# generated using pymatgen
data_ZnH11(C3N2)3
_symmetry_space_group_name_H-M   'P 1'
_cell_length_a   10.87141366
_cell_length_b   12.36355703
_cell_length_c   16.63992455
_cell_angle_alpha   89.99981685
_cell_angle_beta   94.52308871
_cell_angle_gamma   90.00003934
_symmetry_Int_Tables_number   1
_chemical_formula_structural   ZnH11(C3N2)3
_chemical_formula_sum   'Zn8 H88 C72 N48'
_cell_volume   2229.59585569
_cell_formula_units_Z   8
loop_
 _symmetry_equiv_pos_site_id
 _symmetry_equiv_pos_as_xyz
  1  'x, y, z'
loop_
 _atom_site_type_symbol
 _atom_site_label
 _atom_site_symmetry_multiplicity
 _atom_site_fract_x
 _atom_site_fract_y
 _atom_site_fract_z
 _atom_site_occupancy
 _atom_site_pbe_bader_charge
 _atom_site_pbe_bader_spin_density
 _atom_site_pbe_cm5_charge
 _atom_site_pbe_ddec_charge
 _atom_site_pbe_ddec_spin_density
 _atom_site_pbe_ddec_sum_bond_order
 _atom_site_pbe_magmom
Zn  Zn0  1  0.72787993  0.73687021  0.59591335  1  1.19484  0  0.738415  0.665082  0  2.523263  0
Zn  Zn1  1  0.77211855  0.23686863  0.90408609  1  1.194842  0  0.738406  0.665072  0  2.523247  0
Zn  Zn2  1  0.27211791  0.26312980  0.40408560  1  1.194754  0  0.738403  0.665083  0  2.523261  0
Zn  Zn3  1  0.22787930  0.76312976  0.09591286  1  1.194864  0  0.738411  0.665089  0  2.523252  0
Zn  Zn4  1  0.21405505  0.74354561  0.46191327  1  1.189697  0  0.744423  0.665903  0  2.53308  0
Zn  Zn5  1  0.28594584  0.24354561  0.03808603  1  1.189672  0  0.744426  0.665924  0  2.533023  0
Zn  Zn6  1  0.78594372  0.25645521  0.53808693  1  1.189676  0  0.744427  0.665899  0  2.533035  0
Zn  Zn7  1  0.71405477  0.75645359  0.96191306  1  1.189693  0  0.744441  0.665896  0  2.533076  0
H  H8  1  0.07764104  0.63046620  0.20394538  1  0.057801  0  0.098988  0.140835  0  1.04016  0
H  H9  1  0.42235887  0.13046922  0.29605534  1  0.057774  0  0.098963  0.140855  0  1.040128  0
H  H10  1  0.92236326  0.36952814  0.79605630  1  0.057742  0  0.098967  0.140898  0  1.040032  0
H  H11  1  0.57764267  0.86953321  0.70394500  1  0.057791  0  0.098981  0.140874  0  1.040123  0
H  H12  1  0.01171466  0.67578224  0.29192696  1  0.057359  0  0.099283  0.145947  0  1.002255  0
H  H13  1  0.48828527  0.17578406  0.20807426  1  0.057363  0  0.099272  0.145944  0  1.002191  0
H  H14  1  0.98828872  0.32421130  0.70807348  1  0.057656  0  0.099278  0.145972  0  1.002284  0
H  H15  1  0.51171627  0.82421918  0.79192669  1  0.057411  0  0.099276  0.145953  0  1.00222  0
H  H16  1  0.13026837  0.57666354  0.29920973  1  0.093623  0  0.09987  0.152321  0  1.011895  0
H  H17  1  0.36973059  0.07666532  0.20079167  1  0.093679  0  0.099866  0.152331  0  1.011876  0
H  H18  1  0.86973686  0.42333324  0.70079140  1  0.09362  0  0.099898  0.152343  0  1.011895  0
H  H19  1  0.63027095  0.92333631  0.79920807  1  0.093633  0  0.099852  0.152292  0  1.011897  0
H  H20  1  0.48038463  0.95563537  0.35374817  1  0.116082  0  0.116185  0.147513  0  0.978391  0
H  H21  1  0.01961360  0.45563394  0.14624929  1  0.116096  0  0.11619  0.147509  0  0.978416  0
H  H22  1  0.51961414  0.04436626  0.64625143  1  0.11608  0  0.116183  0.147508  0  0.978462  0
H  H23  1  0.98038424  0.54436284  0.85374846  1  0.11609  0  0.116223  0.147558  0  0.978366  0
H  H24  1  0.34811931  0.99400525  0.40248345  1  0.094523  0  0.108506  0.128321  0  0.99528  0
H  H25  1  0.15187986  0.49400573  0.09751516  1  0.094531  0  0.108518  0.128323  0  0.995239  0
H  H26  1  0.65187946  0.00599557  0.59751674  1  0.094547  0  0.108467  0.128256  0  0.995314  0
H  H27  1  0.84811798  0.50599105  0.90248319  1  0.094462  0  0.108496  0.128295  0  0.995273  0
H  H28  1  0.49028327  0.67262228  0.67240810  1  0.031519  0  0.0965  0.137272  0  1.027477  0
H  H29  1  0.00971462  0.17261926  0.82759215  1  0.031922  0  0.096507  0.137283  0  1.027542  0
H  H30  1  0.50971365  0.32737934  0.32759140  1  0.031475  0  0.096513  0.13729  0  1.027519  0
H  H31  1  0.99028415  0.82737590  0.17240745  1  0.031425  0  0.096506  0.137309  0  1.027443  0
H  H32  1  0.35724348  0.63127343  0.61043548  1  0.061774  0  0.098807  0.144442  0  1.021119  0
H  H33  1  0.14275439  0.13127022  0.88956487  1  0.061726  0  0.098803  0.144422  0  1.021159  0
H  H34  1  0.64275437  0.36872819  0.38956467  1  0.061767  0  0.098802  0.144415  0  1.021176  0
H  H35  1  0.85724530  0.86872493  0.11043478  1  0.061809  0  0.098776  0.144433  0  1.021111  0
H  H36  1  0.35077971  0.74837633  0.67051422  1  0.076307  0  0.103415  0.157634  0  0.990413  0
H  H37  1  0.14921914  0.24837177  0.82948590  1  0.076376  0  0.103415  0.15758  0  0.990399  0
H  H38  1  0.64921906  0.25162529  0.32948598  1  0.076356  0  0.103414  0.157627  0  0.990411  0
H  H39  1  0.85078055  0.75162258  0.17051255  1  0.076346  0  0.10344  0.157671  0  0.990385  0
H  H40  1  0.00955495  0.99698265  0.68216342  1  0.098176  0  0.10187  0.153049  0  0.986478  0
H  H41  1  0.49044310  0.49698401  0.81783667  1  0.098115  0  0.101851  0.153022  0  0.986502  0
H  H42  1  0.99044382  0.00301735  0.31783618  1  0.098156  0  0.101854  0.153013  0  0.986465  0
H  H43  1  0.50955567  0.50301600  0.18216474  1  0.098113  0  0.101853  0.153021  0  0.986506  0
H  H44  1  0.87255342  0.92235549  0.69802520  1  0.0601  0  0.094006  0.135143  0  1.016767  0
H  H45  1  0.62744423  0.42235831  0.80197495  1  0.060142  0  0.094023  0.135174  0  1.016739  0
H  H46  1  0.12744534  0.07764371  0.30197560  1  0.060133  0  0.094005  0.135134  0  1.016758  0
H  H47  1  0.37255546  0.57764332  0.19802529  1  0.060107  0  0.094  0.135135  0  1.016802  0
H  H48  1  0.86992894  0.02547460  0.62334527  1  0.06714  0  0.095876  0.142058  0  1.021109  0
H  H49  1  0.63006759  0.52547410  0.87665397  1  0.067166  0  0.095881  0.142049  0  1.021153  0
H  H50  1  0.13006798  0.97452622  0.37665483  1  0.067162  0  0.095891  0.142048  0  1.021104  0
H  H51  1  0.36992933  0.47452510  0.12334614  1  0.067149  0  0.095878  0.14204  0  1.021121  0
H  H52  1  0.98066135  0.62401155  0.42230813  1  0.102777  0  0.115616  0.135727  0  0.998879  0
H  H53  1  0.51933728  0.12400718  0.07768884  1  0.102882  0  0.115622  0.135713  0  0.998838  0
H  H54  1  0.01933742  0.37599169  0.57769026  1  0.10287  0  0.115638  0.135752  0  0.998808  0
H  H55  1  0.48066333  0.87599283  0.92231025  1  0.102846  0  0.115628  0.13576  0  0.99882  0
H  H56  1  0.84169430  0.69734806  0.40057818  1  0.080305  0  0.108389  0.125637  0  0.98971  0
H  H57  1  0.65830344  0.19734125  0.09942098  1  0.080757  0  0.108406  0.125636  0  0.989748  0
H  H58  1  0.15830447  0.30265357  0.59942022  1  0.08035  0  0.108391  0.12561  0  0.989737  0
H  H59  1  0.34169810  0.80265391  0.90057936  1  0.080379  0  0.108419  0.125685  0  0.989705  0
H  H60  1  0.60872678  0.38026156  0.62998149  1  0.040902  0  0.099654  0.14582  0  1.021607  0
H  H61  1  0.89128008  0.88026206  0.87001924  1  0.040903  0  0.099685  0.145812  0  1.021636  0
H  H62  1  0.39127937  0.61973926  0.37002029  1  0.040908  0  0.099679  0.145794  0  1.021582  0
H  H63  1  0.10872423  0.11973876  0.12998064  1  0.040903  0  0.099668  0.145822  0  1.021563  0
H  H64  1  0.52145631  0.49267506  0.59099623  1  0.046249  0  0.100398  0.151071  0  0.985486  0
H  H65  1  0.97854692  0.99267545  0.90900645  1  0.046165  0  0.100406  0.151039  0  0.985514  0
H  H66  1  0.47854800  0.50732414  0.40900665  1  0.046166  0  0.100408  0.151049  0  0.985518  0
H  H67  1  0.02145370  0.00732618  0.09099625  1  0.046209  0  0.100406  0.151065  0  0.985524  0
H  H68  1  0.63074659  0.51039231  0.67506239  1  0.094634  0  0.099412  0.144908  0  1.018721  0
H  H69  1  0.86925824  0.01039356  0.82493851  1  0.094594  0  0.099372  0.144809  0  1.018725  0
H  H70  1  0.36925864  0.48960770  0.32493874  1  0.094607  0  0.099357  0.144807  0  1.018714  0
H  H71  1  0.13074514  0.98960807  0.17506132  1  0.09458  0  0.099415  0.144895  0  1.018749  0
H  H72  1  0.58081386  0.72024225  0.22695828  1  0.075108  0  0.093029  0.135986  0  1.031288  0
H  H73  1  0.91918389  0.22024213  0.27303842  1  0.075123  0  0.092997  0.13596  0  1.031305  0
H  H74  1  0.41919045  0.27976019  0.77304280  1  0.07504  0  0.093027  0.135963  0  1.031279  0
H  H75  1  0.08081211  0.77975869  0.72695803  1  0.075092  0  0.093036  0.136004  0  1.031258  0
H  H76  1  0.61973931  0.67473005  0.33252035  1  0.024934  0  0.089028  0.124071  0  1.030383  0
H  H77  1  0.88025657  0.17473036  0.16747696  1  0.024909  0  0.089002  0.123993  0  1.030418  0
H  H78  1  0.38026315  0.32527319  0.66748004  1  0.024858  0  0.089002  0.123997  0  1.030468  0
H  H79  1  0.11973851  0.82527045  0.83252004  1  0.024924  0  0.089031  0.124061  0  1.030404  0
H  H80  1  0.70837743  0.85246283  0.36773123  1  0.056203  0  0.09599  0.089453  0  1.021752  0
H  H81  1  0.79161577  0.35246405  0.13226793  1  0.056136  0  0.095937  0.089345  0  1.021836  0
H  H82  1  0.29162595  0.14754041  0.63226981  1  0.056245  0  0.095989  0.089406  0  1.021817  0
H  H83  1  0.20837839  0.64753838  0.86773143  1  0.056201  0  0.09598  0.089431  0  1.02176  0
H  H84  1  0.63334368  0.91157321  0.18783690  1  0.095232  0  0.096521  0.092554  0  1.009159  0
H  H85  1  0.86665879  0.41157047  0.31216259  1  0.0952  0  0.096567  0.092663  0  1.009059  0
H  H86  1  0.36666063  0.08842842  0.81216298  1  0.095197  0  0.096545  0.092626  0  1.009129  0
H  H87  1  0.13334275  0.58842712  0.68783715  1  0.095232  0  0.096524  0.092573  0  1.009139  0
H  H88  1  0.75537157  0.04154581  0.33246036  1  0.097513  0  0.090008  0.128806  0  1.055846  0
H  H89  1  0.74462886  0.54154871  0.16754171  1  0.097556  0  0.089979  0.128769  0  1.055728  0
H  H90  1  0.24463089  0.95845582  0.66754183  1  0.097566  0  0.089985  0.128749  0  1.055848  0
H  H91  1  0.25537175  0.45845373  0.83246039  1  0.097497  0  0.089996  0.128777  0  1.055873  0
H  H92  1  0.71477719  0.09037663  0.22811174  1  0.041849  0  0.081876  0.112952  0  1.077154  0
H  H93  1  0.78522880  0.59037668  0.27188990  1  0.041878  0  0.081918  0.112976  0  1.07715  0
H  H94  1  0.28522619  0.90962581  0.77188990  1  0.041979  0  0.081869  0.112943  0  1.077116  0
H  H95  1  0.21477643  0.40962414  0.72811183  1  0.04187  0  0.081884  0.11296  0  1.077145  0
C  C96  1  0.09832220  0.65080084  0.26757904  1  -0.046023  0  -0.235794  -0.473088  0  3.934371  0
C  C97  1  0.40167588  0.15080331  0.23242213  1  -0.045993  0  -0.23576  -0.473095  0  3.934327  0
C  C98  1  0.90168026  0.34919432  0.73242255  1  -0.046203  0  -0.235772  -0.473183  0  3.934294  0
C  C99  1  0.59832566  0.84919832  0.76757821  1  -0.046024  0  -0.235798  -0.473156  0  3.934355  0
C  C100  1  0.19189112  0.73853126  0.27597200  1  0.970748  0  0.209337  0.373757  0  4.024599  0
C  C101  1  0.30810792  0.23853291  0.22402902  1  0.970741  0  0.209292  0.373681  0  4.024754  0
C  C102  1  0.80810765  0.26146713  0.72402820  1  0.970774  0  0.209283  0.373651  0  4.024592  0
C  C103  1  0.69189269  0.76146791  0.77597068  1  0.970732  0  0.209334  0.373746  0  4.024651  0
C  C104  1  0.32420476  0.85609769  0.32480436  1  0.960635  0  0.208711  0.328773  0  4.020267  0
C  C105  1  0.17579250  0.35609623  0.17519328  1  0.9604  0  0.208753  0.328655  0  4.020262  0
C  C106  1  0.67579309  0.14390394  0.67519519  1  0.960798  0  0.208738  0.328744  0  4.020235  0
C  C107  1  0.82420627  0.64390055  0.82480632  1  0.960537  0  0.208656  0.328605  0  4.020167  0
C  C108  1  0.40182613  0.92391383  0.38377398  1  -0.031078  0  -0.139811  -0.328591  0  3.936933  0
C  C109  1  0.09817485  0.42391500  0.11622670  1  -0.031212  0  -0.139811  -0.328506  0  3.936849  0
C  C110  1  0.59817357  0.07608699  0.61622687  1  -0.031364  0  -0.139735  -0.328474  0  3.936917  0
C  C111  1  0.90182484  0.57608339  0.88377415  1  -0.031128  0  -0.139841  -0.328572  0  3.936906  0
C  C112  1  0.44902078  0.86471955  0.45825402  1  1.021507  0  0.212095  0.342846  0  4.002334  0
C  C113  1  0.05097833  0.36472263  0.04174490  1  1.021603  0  0.212064  0.342893  0  4.002152  0
C  C114  1  0.55097707  0.13528127  0.54174553  1  1.021592  0  0.212078  0.342855  0  4.002192  0
C  C115  1  0.94902044  0.63527657  0.95825470  1  1.021508  0  0.212056  0.342856  0  4.002211  0
C  C116  1  0.45153026  0.76842664  0.56630557  1  1.008291  0  0.213322  0.38402  0  4.000769  0
C  C117  1  0.04846860  0.26842400  0.93369511  1  1.008276  0  0.213394  0.384092  0  4.00062  0
C  C118  1  0.54846759  0.23157660  0.43369459  1  1.008298  0  0.213331  0.384071  0  4.000637  0
C  C119  1  0.95153109  0.73157278  0.06630394  1  1.008249  0  0.21331  0.384017  0  4.000634  0
C  C120  1  0.41106620  0.70138429  0.63355651  1  -0.030017  0  -0.233347  -0.471752  0  3.941175  0
C  C121  1  0.08893171  0.20137953  0.86644367  1  -0.030441  0  -0.233382  -0.471697  0  3.941169  0
C  C122  1  0.58893165  0.29861734  0.36644424  1  -0.030023  0  -0.233376  -0.471769  0  3.941253  0
C  C123  1  0.91106799  0.79861401  0.13355357  1  -0.029923  0  -0.233356  -0.471824  0  3.941156  0
C  C124  1  0.92606082  0.96042636  0.65240017  1  -0.092851  0  -0.233431  -0.456126  0  3.928964  0
C  C125  1  0.57393685  0.46042733  0.84759990  1  -0.092856  0  -0.233432  -0.456114  0  3.928954  0
C  C126  1  0.07393702  0.03957365  0.34760058  1  -0.092857  0  -0.233436  -0.456036  0  3.928926  0
C  C127  1  0.42606192  0.53957267  0.15240090  1  -0.092826  0  -0.233407  -0.456058  0  3.928933  0
C  C128  1  0.96042804  0.88018422  0.59163213  1  0.970786  0  0.208502  0.376503  0  4.02666  0
C  C129  1  0.53957236  0.38018330  0.90836707  1  0.970782  0  0.208483  0.37646  0  4.026576  0
C  C130  1  0.03956980  0.11981740  0.40836742  1  0.970761  0  0.208481  0.376404  0  4.026739  0
C  C131  1  0.46042918  0.61981590  0.09163328  1  0.97078  0  0.20849  0.376485  0  4.02662  0
C  C132  1  0.94935107  0.75055505  0.50497383  1  1.014182  0  0.217827  0.34701  0  3.987607  0
C  C133  1  0.55064742  0.25055213  0.99502557  1  1.014285  0  0.217845  0.347096  0  3.987601  0
C  C134  1  0.05064677  0.24944658  0.49502452  1  1.014292  0  0.217792  0.346961  0  3.987567  0
C  C135  1  0.44935504  0.74944626  0.00497662  1  1.014139  0  0.217787  0.347039  0  3.987527  0
C  C136  1  0.90286539  0.66151605  0.44971923  1  -0.035475  0  -0.137407  -0.328663  0  3.965216  0
C  C137  1  0.59713418  0.16151103  0.05027891  1  -0.035983  0  -0.137389  -0.32859  0  3.965204  0
C  C138  1  0.09713338  0.33848558  0.55027917  1  -0.035596  0  -0.137409  -0.328578  0  3.965181  0
C  C139  1  0.40286736  0.83848574  0.94972083  1  -0.035595  0  -0.137465  -0.328789  0  3.965235  0
C  C140  1  0.83508706  0.57363509  0.48939996  1  0.978328  0  0.210632  0.339643  0  4.012241  0
C  C141  1  0.66491523  0.07363271  0.01059972  1  0.978457  0  0.21057  0.339483  0  4.012212  0
C  C142  1  0.16491448  0.42636492  0.51059978  1  0.978361  0  0.210618  0.339549  0  4.012183  0
C  C143  1  0.33508538  0.92636568  0.98939997  1  0.978249  0  0.210631  0.339628  0  4.012188  0
C  C144  1  0.71013839  0.49139076  0.56249980  1  0.979201  0  0.210862  0.375929  0  4.019894  0
C  C145  1  0.78986484  0.99138767  0.93749988  1  0.979466  0  0.210892  0.375908  0  4.020021  0
C  C146  1  0.28986500  0.50861168  0.43750124  1  0.979488  0  0.210896  0.375925  0  4.019976  0
C  C147  1  0.21013578  0.00860991  0.06249921  1  0.979491  0  0.210902  0.375978  0  4.019993  0
C  C148  1  0.61262264  0.46718722  0.61768290  1  -0.045803  0  -0.232727  -0.465674  0  3.93301  0
C  C149  1  0.88738241  0.96718605  0.88231813  1  -0.045742  0  -0.232735  -0.465522  0  3.93301  0
C  C150  1  0.38738259  0.53281279  0.38231883  1  -0.045744  0  -0.23273  -0.465519  0  3.932975  0
C  C151  1  0.11262005  0.03281315  0.11768226  1  -0.045752  0  -0.232777  -0.465688  0  3.933033  0
C  C152  1  0.62158353  0.73858071  0.28744004  1  -0.058544  0  -0.183074  -0.311611  0  3.858853  0
C  C153  1  0.87841146  0.23857678  0.21255888  1  -0.058609  0  -0.183018  -0.311504  0  3.858586  0
C  C154  1  0.37841893  0.26142416  0.71256095  1  -0.058499  0  -0.183008  -0.311446  0  3.858859  0
C  C155  1  0.12158362  0.76142080  0.78743993  1  -0.058549  0  -0.183079  -0.3116  0  3.858812  0
C  C156  1  0.67096152  0.83599278  0.30591955  1  -0.117292  0  -0.100867  -0.03826  0  4.091396  0
C  C157  1  0.82903444  0.33599618  0.19407858  1  -0.117066  0  -0.100815  -0.03812  0  4.09119  0
C  C158  1  0.32904002  0.16400966  0.69408079  1  -0.1173  0  -0.10089  -0.038231  0  4.091434  0
C  C159  1  0.17096156  0.66400787  0.80591967  1  -0.117267  0  -0.10087  -0.038259  0  4.091402  0
C  C160  1  0.67214736  0.92563458  0.24973979  1  -0.000236  0  -0.097988  -0.023849  0  4.064969  0
C  C161  1  0.82785234  0.42563369  0.25026193  1  -0.000326  0  -0.098005  -0.023995  0  4.065123  0
C  C162  1  0.32785972  0.07436948  0.75026023  1  -0.000301  0  -0.098067  -0.024044  0  4.065142  0
C  C163  1  0.17214643  0.57436713  0.74974008  1  -0.000257  0  -0.097984  -0.023867  0  4.064978  0
C  C164  1  0.71605871  0.02410677  0.27130713  1  -0.203402  0  -0.185172  -0.313092  0  3.837623  0
C  C165  1  0.78393987  0.52410539  0.22869488  1  -0.203429  0  -0.185201  -0.313054  0  3.837581  0
C  C166  1  0.28394006  0.97589728  0.72869427  1  -0.203427  0  -0.185094  -0.312932  0  3.837536  0
C  C167  1  0.21605890  0.47589381  0.77130832  1  -0.203372  0  -0.185167  -0.313062  0  3.837599  0
N  N168  1  0.88189950  0.80239760  0.55816285  1  -1.25168  0  -0.366123  -0.422323  0  3.433961  0
N  N169  1  0.61809902  0.30239496  0.94183703  1  -1.251773  0  -0.366174  -0.422377  0  3.4341  0
N  N170  1  0.11809835  0.19760403  0.44183549  1  -1.251739  0  -0.366126  -0.422302  0  3.434054  0
N  N171  1  0.38190160  0.69760425  0.05816507  1  -1.251571  0  -0.366098  -0.42231  0  3.434001  0
N  N172  1  0.07000372  0.87717194  0.56171196  1  -0.708976  0  -0.249616  -0.294293  0  3.141884  0
N  N173  1  0.42999612  0.37717193  0.93828851  1  -0.708946  0  -0.249572  -0.294222  0  3.141833  0
N  N174  1  0.92999413  0.12282888  0.43828759  1  -0.709013  0  -0.249599  -0.294265  0  3.141853  0
N  N175  1  0.57000450  0.62282727  0.06171239  1  -0.708983  0  -0.249643  -0.29433  0  3.141896  0
N  N176  1  0.06218037  0.79406086  0.50634008  1  -0.824879  0  -0.274196  -0.252898  0  3.588393  0
N  N177  1  0.43781942  0.29405981  0.99365998  1  -0.8249  0  -0.274205  -0.252961  0  3.588397  0
N  N178  1  0.93781840  0.20593995  0.49365952  1  -0.824893  0  -0.274161  -0.252863  0  3.58834  0
N  N179  1  0.56218119  0.70593939  0.00634092  1  -0.824931  0  -0.274141  -0.252862  0  3.588363  0
N  N180  1  0.74703875  0.59175756  0.54233076  1  -1.237736  0  -0.369908  -0.43101  0  3.445723  0
N  N181  1  0.75296058  0.09175412  0.95766787  1  -1.237636  0  -0.369953  -0.431039  0  3.445932  0
N  N182  1  0.25296186  0.40824326  0.45766833  1  -1.237598  0  -0.369924  -0.430998  0  3.445747  0
N  N183  1  0.24703726  0.90824346  0.04233048  1  -1.237618  0  -0.369883  -0.430986  0  3.445801  0
N  N184  1  0.85289991  0.46921452  0.47636907  1  -0.685164  0  -0.246447  -0.28461  0  3.180338  0
N  N185  1  0.64710165  0.96920989  0.02363024  1  -0.685206  0  -0.246397  -0.284542  0  3.180278  0
N  N186  1  0.14710255  0.53078710  0.52363012  1  -0.685176  0  -0.24642  -0.284551  0  3.180323  0
N  N187  1  0.35289896  0.03078769  0.97636946  1  -0.685122  0  -0.246439  -0.284604  0  3.180301  0
N  N188  1  0.77304867  0.41693575  0.52373715  1  -0.837615  0  -0.274415  -0.27662  0  3.564568  0
N  N189  1  0.72695452  0.91693246  0.97626270  1  -0.838048  0  -0.274419  -0.276572  0  3.564659  0
N  N190  1  0.22695379  0.58306587  0.47626324  1  -0.838015  0  -0.274446  -0.276654  0  3.564709  0
N  N191  1  0.27304609  0.08306431  0.02373699  1  -0.837945  0  -0.274449  -0.276645  0  3.564695  0
N  N192  1  0.56728088  0.80098610  0.55644514  1  -0.843578  0  -0.279738  -0.28384  0  3.577515  0
N  N193  1  0.93271855  0.30098445  0.94355420  1  -0.843607  0  -0.279739  -0.283776  0  3.577356  0
N  N194  1  0.43271788  0.19901391  0.44355386  1  -0.843677  0  -0.279755  -0.283908  0  3.577469  0
N  N195  1  0.06728114  0.69901313  0.05644485  1  -0.843606  0  -0.279719  -0.283819  0  3.577538  0
N  N196  1  0.56613320  0.86276620  0.48720243  1  -0.711897  0  -0.246898  -0.284399  0  3.1682  0
N  N197  1  0.93386555  0.36276398  0.01279639  1  -0.71188  0  -0.246941  -0.284528  0  3.16816  0
N  N198  1  0.43386465  0.13723542  0.51279652  1  -0.711877  0  -0.246907  -0.284407  0  3.168169  0
N  N199  1  0.06613414  0.63723441  0.98720266  1  -0.711918  0  -0.246902  -0.284448  0  3.168185  0
N  N200  1  0.37432557  0.80733465  0.50541614  1  -1.283234  0  -0.372584  -0.424914  0  3.451345  0
N  N201  1  0.12567238  0.30733421  0.99458500  1  -1.283176  0  -0.372571  -0.424978  0  3.451284  0
N  N202  1  0.62567320  0.19266779  0.49458466  1  -1.283172  0  -0.372537  -0.424887  0  3.45121  0
N  N203  1  0.87432547  0.69266256  0.00541515  1  -1.283197  0  -0.372552  -0.424885  0  3.451145  0
N  N204  1  0.23957126  0.78130280  0.34664514  1  -1.280439  0  -0.373062  -0.445815  0  3.488877  0
N  N205  1  0.26042965  0.28130229  0.15335527  1  -1.280234  0  -0.373066  -0.445743  0  3.488868  0
N  N206  1  0.76042843  0.21869721  0.65335511  1  -1.280447  0  -0.373093  -0.445779  0  3.488911  0
N  N207  1  0.73957004  0.71869772  0.84664437  1  -1.280327  0  -0.37303  -0.445712  0  3.488834  0
N  N208  1  0.32861239  0.86169172  0.24545978  1  -0.702649  0  -0.249082  -0.284832  0  3.161103  0
N  N209  1  0.17138302  0.36168991  0.25453956  1  -0.702638  0  -0.249118  -0.284803  0  3.161157  0
N  N210  1  0.67138269  0.13831153  0.75454023  1  -0.702653  0  -0.249101  -0.284862  0  3.16112  0
N  N211  1  0.82861205  0.63830767  0.74545865  1  -0.702613  0  -0.249093  -0.284824  0  3.161016  0
N  N212  1  0.24385798  0.78631944  0.21466669  1  -0.829779  0  -0.275658  -0.27474  0  3.575378  0
N  N213  1  0.25613647  0.28631917  0.28533338  1  -0.829657  0  -0.275605  -0.274711  0  3.575368  0
N  N214  1  0.75613894  0.21367976  0.78533401  1  -0.829803  0  -0.275624  -0.274649  0  3.575257  0
N  N215  1  0.74386045  0.71368084  0.71466613  1  -0.829817  0  -0.275597  -0.274665  0  3.575333  0
