# generated using pymatgen
data_RbH7C7SO7
_symmetry_space_group_name_H-M   'P 1'
_cell_length_a   7.24787505
_cell_length_b   11.93523193
_cell_length_c   12.04330949
_cell_angle_alpha   104.31350626
_cell_angle_beta   90.00003156
_cell_angle_gamma   90.00049352
_symmetry_Int_Tables_number   1
_chemical_formula_structural   RbH7C7SO7
_chemical_formula_sum   'Rb4 H28 C28 S4 O28'
_cell_volume   1009.46700121
_cell_formula_units_Z   4
loop_
 _symmetry_equiv_pos_site_id
 _symmetry_equiv_pos_as_xyz
  1  'x, y, z'
loop_
 _atom_site_type_symbol
 _atom_site_label
 _atom_site_symmetry_multiplicity
 _atom_site_fract_x
 _atom_site_fract_y
 _atom_site_fract_z
 _atom_site_occupancy
 _atom_site_hle17_bader_spin_density
 _atom_site_hle17_ddec_charge
 _atom_site_hle17_ddec_spin_density
 _atom_site_hle17_ddec_sum_bond_order
 _atom_site_hle17_magmom
 _atom_site_hse06_10hf_bader_spin_density
 _atom_site_hse06_10hf_ddec_charge
 _atom_site_hse06_10hf_ddec_spin_density
 _atom_site_hse06_10hf_ddec_sum_bond_order
 _atom_site_hse06_10hf_magmom
 _atom_site_hse06_bader_spin_density
 _atom_site_hse06_ddec_charge
 _atom_site_hse06_ddec_spin_density
 _atom_site_hse06_ddec_sum_bond_order
 _atom_site_hse06_magmom
 _atom_site_pbe_bader_spin_density
 _atom_site_pbe_cm5_charge
 _atom_site_pbe_ddec_charge
 _atom_site_pbe_ddec_spin_density
 _atom_site_pbe_ddec_sum_bond_order
 _atom_site_pbe_magmom
Rb  Rb0  1  0.41729135  0.09112885  0.25098578  1  0  0.946846  0  0.509058  0  0  0.898764  0  0.72411  0  0  0.912964  0  0.701649  0  0  0.794723  0.888359  0  0.739897  0
Rb  Rb1  1  0.91728920  0.90886885  0.24901283  1  0  0.946854  0  0.509039  0  0  0.898767  0  0.724089  0  0  0.912964  0  0.701632  0  0  0.794727  0.888365  0  0.739874  0
Rb  Rb2  1  0.58270999  0.90886978  0.74901326  1  0  0.946847  0  0.509045  0  0  0.898775  0  0.724086  0  0  0.912966  0  0.701635  0  0  0.794722  0.888373  0  0.739872  0
Rb  Rb3  1  0.08270799  0.09113065  0.75098642  1  0  0.946841  0  0.509043  0  0  0.898773  0  0.724077  0  0  0.912964  0  0.70163  0  0  0.794714  0.888371  0  0.739863  0
H  H4  1  0.63086557  0.66756087  0.16001636  1  0  0.41359  0  0.859325  0  0  0.384435  0  0.932996  0  0  0.396438  0  0.920273  0  0  0.309019  0.375976  0  0.941927  0
H  H5  1  0.13086294  0.33243867  0.33998258  1  0  0.413517  0  0.85937  0  0  0.38436  0  0.933047  0  0  0.396363  0  0.920324  0  0  0.308996  0.375899  0  0.94198  0
H  H6  1  0.36913439  0.33244297  0.83998558  1  0  0.413543  0  0.859227  0  0  0.384392  0  0.932904  0  0  0.396393  0  0.920181  0  0  0.309011  0.375932  0  0.941833  0
H  H7  1  0.86913702  0.66756082  0.66001584  1  0  0.413524  0  0.859346  0  0  0.384379  0  0.933008  0  0  0.396381  0  0.920287  0  0  0.309003  0.375919  0  0.94194  0
H  H8  1  0.16217602  0.60282208  0.16363062  1  0  0.38087  0  0.892138  0  0  0.357042  0  0.960785  0  0  0.368516  0  0.948702  0  0  0.30739  0.348963  0  0.969199  0
H  H9  1  0.66217498  0.39718023  0.33636898  1  0  0.38093  0  0.892099  0  0  0.357091  0  0.960755  0  0  0.368569  0  0.94866  0  0  0.307391  0.349012  0  0.969169  0
H  H10  1  0.83782394  0.39717826  0.83636634  1  0  0.380929  0  0.892038  0  0  0.357069  0  0.960742  0  0  0.368547  0  0.94865  0  0  0.307379  0.34899  0  0.969156  0
H  H11  1  0.33782773  0.60281752  0.66362820  1  0  0.380968  0  0.892059  0  0  0.357137  0  0.960708  0  0  0.368615  0  0.948614  0  0  0.30742  0.349058  0  0.969123  0
H  H12  1  0.34966203  0.31886536  0.08444565  1  0  0.130563  0  0.949273  0  0  0.139675  0  1.008466  0  0  0.143646  0  1.006495  0  0  0.113363  0.13675  0  1.01019  0
H  H13  1  0.84966509  0.68113889  0.41555531  1  0  0.130644  0  0.949204  0  0  0.139786  0  1.008368  0  0  0.143755  0  1.006402  0  0  0.113414  0.136875  0  1.010073  0
H  H14  1  0.65033655  0.68113590  0.91555651  1  0  0.130564  0  0.949306  0  0  0.139694  0  1.008497  0  0  0.143663  0  1.006532  0  0  0.113367  0.136814  0  1.010162  0
H  H15  1  0.15033901  0.31885807  0.58444832  1  0  0.130683  0  0.949301  0  0  0.139815  0  1.008451  0  0  0.143787  0  1.006479  0  0  0.11342  0.136886  0  1.010182  0
H  H16  1  0.14126454  0.14753122  0.03744360  1  0  0.110231  0  0.952882  0  0  0.118439  0  1.01713  0  0  0.122302  0  1.01371  0  0  0.116904  0.115579  0  1.019667  0
H  H17  1  0.64126869  0.85246929  0.46256055  1  0  0.110296  0  0.952892  0  0  0.118405  0  1.017235  0  0  0.122278  0  1.013787  0  0  0.116895  0.115545  0  1.019773  0
H  H18  1  0.85873404  0.85246834  0.96256148  1  0  0.110259  0  0.95293  0  0  0.118379  0  1.017249  0  0  0.122253  0  1.013796  0  0  0.116881  0.115518  0  1.019794  0
H  H19  1  0.35873540  0.14752767  0.53744391  1  0  0.110204  0  0.952887  0  0  0.118373  0  1.01718  0  0  0.122239  0  1.013748  0  0  0.116887  0.115511  0  1.019719  0
H  H20  1  0.66788396  0.37376352  0.08687547  1  0  0.121785  0  0.931529  0  0  0.130732  0  0.994057  0  0  0.134655  0  0.989901  0  0  0.116641  0.127751  0  0.997255  0
H  H21  1  0.16788832  0.62623449  0.41312229  1  0  0.121749  0  0.931578  0  0  0.130669  0  0.994133  0  0  0.134617  0  0.989944  0  0  0.116638  0.127686  0  0.997335  0
H  H22  1  0.33211186  0.62623775  0.91312752  1  0  0.121731  0  0.931617  0  0  0.130651  0  0.99417  0  0  0.134599  0  0.989983  0  0  0.116616  0.127668  0  0.997375  0
H  H23  1  0.83211578  0.37376582  0.58687217  1  0  0.121736  0  0.931567  0  0  0.130672  0  0.994121  0  0  0.134618  0  0.989934  0  0  0.116614  0.127688  0  0.997323  0
H  H24  1  0.99853419  0.18881119  0.39297186  1  0  0.423963  0  0.878357  0  0  0.3932  0  0.942028  0  0  0.403616  0  0.926801  0  0  0.297142  0.38584  0  0.952767  0
H  H25  1  0.49853261  0.81118611  0.10702753  1  0  0.423942  0  0.878384  0  0  0.393188  0  0.942051  0  0  0.403598  0  0.926827  0  0  0.297131  0.385828  0  0.95279  0
H  H26  1  0.00146715  0.81118744  0.60702719  1  0  0.423973  0  0.878335  0  0  0.393219  0  0.942002  0  0  0.403629  0  0.926777  0  0  0.297134  0.385856  0  0.952744  0
H  H27  1  0.50146183  0.18881253  0.89297235  1  0  0.423996  0  0.878312  0  0  0.393234  0  0.94198  0  0  0.403649  0  0.926753  0  0  0.29716  0.385873  0  0.952719  0
H  H28  1  0.94640567  0.17889258  0.26194647  1  0  0.423972  0  0.857294  0  0  0.396115  0  0.924093  0  0  0.405262  0  0.910739  0  0  0.304588  0.389594  0  0.933622  0
H  H29  1  0.44640298  0.82110096  0.23805117  1  0  0.424062  0  0.857137  0  0  0.396189  0  0.923986  0  0  0.405336  0  0.910633  0  0  0.304619  0.389669  0  0.933512  0
H  H30  1  0.05359428  0.82110347  0.73805279  1  0  0.424018  0  0.85721  0  0  0.396143  0  0.924053  0  0  0.405289  0  0.910701  0  0  0.3046  0.389623  0  0.933579  0
H  H31  1  0.55359146  0.17889422  0.76194789  1  0  0.424007  0  0.857249  0  0  0.396154  0  0.924042  0  0  0.4053  0  0.910689  0  0  0.304602  0.389633  0  0.933571  0
C  C32  1  0.85708433  0.57610984  0.14742723  1  0  0.677222  0  3.81891  0  0  0.620521  0  4.121157  0  0  0.65541  0  4.113006  0  0  0.231647  0.596881  0  4.126213  0
C  C33  1  0.35707886  0.42389270  0.35257167  1  0  0.6773  0  3.818842  0  0  0.620514  0  4.121136  0  0  0.655415  0  4.112989  0  0  0.231596  0.596873  0  4.12619  0
C  C34  1  0.14291701  0.42389226  0.85257347  1  0  0.677308  0  3.819013  0  0  0.620582  0  4.121233  0  0  0.655486  0  4.113085  0  0  0.231634  0.596941  0  4.126291  0
C  C35  1  0.64291972  0.57610677  0.64742508  1  0  0.677329  0  3.818895  0  0  0.620577  0  4.12114  0  0  0.655489  0  4.112995  0  0  0.231617  0.596935  0  4.126196  0
C  C36  1  0.93251938  0.45823378  0.11487667  1  0  -0.224282  0  3.768991  0  0  -0.204467  0  4.014955  0  0  -0.220469  0  4.037416  0  0  -0.035484  -0.194189  0  4.000008  0
C  C37  1  0.43251561  0.54176748  0.38512361  1  0  -0.224523  0  3.769142  0  0  -0.204552  0  4.014962  0  0  -0.220596  0  4.037478  0  0  -0.035533  -0.194276  0  4.00002  0
C  C38  1  0.06748334  0.54176833  0.88512485  1  0  -0.224472  0  3.769208  0  0  -0.20455  0  4.015039  0  0  -0.220611  0  4.037575  0  0  -0.035543  -0.194273  0  4.000096  0
C  C39  1  0.56748158  0.45823112  0.61487210  1  0  -0.224569  0  3.769258  0  0  -0.20458  0  4.015035  0  0  -0.220676  0  4.037616  0  0  -0.035568  -0.194298  0  4.000085  0
C  C40  1  0.12668170  0.44244306  0.11473989  1  0  0.353122  0  3.784591  0  0  0.332048  0  4.049391  0  0  0.349238  0  4.062744  0  0  0.100854  0.320579  0  4.040078  0
C  C41  1  0.62667608  0.55756081  0.38526339  1  0  0.35329  0  3.784421  0  0  0.332162  0  4.049236  0  0  0.349365  0  4.062596  0  0  0.100872  0.320692  0  4.039927  0
C  C42  1  0.87332240  0.55755903  0.88525997  1  0  0.353139  0  3.784529  0  0  0.332067  0  4.049294  0  0  0.349274  0  4.062659  0  0  0.100838  0.320597  0  4.039994  0
C  C43  1  0.37331974  0.44243783  0.61473649  1  0  0.353336  0  3.784442  0  0  0.332213  0  4.049223  0  0  0.349431  0  4.062589  0  0  0.100909  0.320743  0  4.039911  0
C  C44  1  0.20066671  0.32987476  0.08459248  1  0  -0.180238  0  3.690622  0  0  -0.201076  0  3.952535  0  0  -0.209485  0  3.969865  0  0  -0.098325  -0.195736  0  3.941049  0
C  C45  1  0.70067100  0.67012606  0.41540844  1  0  -0.180327  0  3.690532  0  0  -0.201208  0  3.952475  0  0  -0.209619  0  3.969803  0  0  -0.098386  -0.195879  0  3.940987  0
C  C46  1  0.79932911  0.67012476  0.91540843  1  0  -0.180163  0  3.690565  0  0  -0.201044  0  3.952487  0  0  -0.209454  0  3.969815  0  0  -0.098319  -0.195738  0  3.940986  0
C  C47  1  0.29933310  0.32987089  0.58459436  1  0  -0.180559  0  3.690763  0  0  -0.201423  0  3.952705  0  0  -0.209837  0  3.970028  0  0  -0.098437  -0.196075  0  3.941213  0
C  C48  1  0.08473963  0.23509600  0.05802040  1  0  -0.034201  0  3.743689  0  0  -0.062699  0  3.999017  0  0  -0.056328  0  4.015185  0  0  -0.079056  -0.06647  0  3.987944  0
C  C49  1  0.58474529  0.76490500  0.44197804  1  0  -0.034187  0  3.743721  0  0  -0.062568  0  3.999068  0  0  -0.056192  0  4.01524  0  0  -0.078984  -0.066353  0  3.987991  0
C  C50  1  0.91525481  0.76490438  0.94198072  1  0  -0.034205  0  3.743765  0  0  -0.06257  0  3.999112  0  0  -0.056194  0  4.015287  0  0  -0.078969  -0.066356  0  3.988044  0
C  C51  1  0.41525881  0.23509191  0.55802060  1  0  -0.034016  0  3.743546  0  0  -0.062462  0  3.998897  0  0  -0.056087  0  4.015065  0  0  -0.07899  -0.066241  0  3.987814  0
C  C52  1  0.89194185  0.25102692  0.05913601  1  0  -0.17882  0  3.791956  0  0  -0.151225  0  4.04642  0  0  -0.162993  0  4.068253  0  0  -0.036247  -0.143792  0  4.03184  0
C  C53  1  0.39194798  0.74897499  0.44086690  1  0  -0.17898  0  3.792061  0  0  -0.151451  0  4.046593  0  0  -0.163222  0  4.06843  0  0  -0.036322  -0.143979  0  4.031965  0
C  C54  1  0.10805259  0.74897695  0.94086925  1  0  -0.178919  0  3.791977  0  0  -0.151425  0  4.046551  0  0  -0.163197  0  4.068388  0  0  -0.036323  -0.143955  0  4.031924  0
C  C55  1  0.60805888  0.25102451  0.55913318  1  0  -0.178905  0  3.791911  0  0  -0.151358  0  4.046428  0  0  -0.163129  0  4.068261  0  0  -0.036282  -0.143892  0  4.031801  0
C  C56  1  0.81655089  0.36120707  0.08626199  1  0  -0.011767  0  3.714494  0  0  -0.05763  0  3.975557  0  0  -0.048114  0  3.989292  0  0  -0.072205  -0.063518  0  3.966219  0
C  C57  1  0.31654853  0.63879700  0.41374058  1  0  -0.011598  0  3.714396  0  0  -0.057459  0  3.975448  0  0  -0.047947  0  3.989181  0  0  -0.072139  -0.063359  0  3.966106  0
C  C58  1  0.18344906  0.63879763  0.91374015  1  0  -0.011592  0  3.714429  0  0  -0.057431  0  3.975481  0  0  -0.047914  0  3.989219  0  0  -0.072084  -0.063329  0  3.966138  0
C  C59  1  0.68345005  0.36120508  0.58625845  1  0  -0.011592  0  3.714511  0  0  -0.057482  0  3.975538  0  0  -0.047955  0  3.989289  0  0  -0.072108  -0.06338  0  3.966192  0
S  S60  1  0.75011043  0.12682579  0.03507625  1  0  1.323842  0  5.668144  0  0  1.230692  0  6.187122  0  0  1.278917  0  6.162059  0  0  0.496014  1.197382  0  6.203524  0
S  S61  1  0.25011557  0.87317355  0.46492185  1  0  1.324136  0  5.667896  0  0  1.231037  0  6.186849  0  0  1.279263  0  6.161787  0  0  0.496167  1.197714  0  6.203246  0
S  S62  1  0.24988815  0.87317718  0.96492464  1  0  1.32402  0  5.667796  0  0  1.230917  0  6.18677  0  0  1.279143  0  6.161708  0  0  0.496107  1.197596  0  6.20317  0
S  S63  1  0.74988990  0.12682507  0.53507636  1  0  1.323942  0  5.668127  0  0  1.230824  0  6.187104  0  0  1.279051  0  6.162039  0  0  0.496081  1.197503  0  6.203499  0
O  O64  1  0.55796610  0.16487611  0.02425525  1  0  -0.699485  0  1.973421  0  0  -0.646333  0  2.219632  0  0  -0.667104  0  2.204073  0  0  -0.352668  -0.631617  0  2.229904  0
O  O65  1  0.05797072  0.83512390  0.47574543  1  0  -0.699596  0  1.973366  0  0  -0.646468  0  2.219596  0  0  -0.66724  0  2.204034  0  0  -0.352727  -0.631755  0  2.229876  0
O  O66  1  0.44203248  0.83512687  0.97574648  1  0  -0.699493  0  1.973285  0  0  -0.646366  0  2.219497  0  0  -0.667138  0  2.203938  0  0  -0.352689  -0.631657  0  2.229782  0
O  O67  1  0.94203338  0.16487562  0.52425632  1  0  -0.69949  0  1.973454  0  0  -0.646354  0  2.219672  0  0  -0.667127  0  2.204114  0  0  -0.352696  -0.63164  0  2.229946  0
O  O68  1  0.81676705  0.04632676  0.92995100  1  0  -0.727762  0  1.970407  0  0  -0.684885  0  2.234892  0  0  -0.706087  0  2.220881  0  0  -0.434611  -0.669899  0  2.244083  0
O  O69  1  0.31677573  0.95367581  0.57004513  1  0  -0.727774  0  1.970216  0  0  -0.684933  0  2.234754  0  0  -0.706136  0  2.220743  0  0  -0.434604  -0.669949  0  2.24395  0
O  O70  1  0.18322601  0.95367877  0.07004801  1  0  -0.727806  0  1.970318  0  0  -0.684935  0  2.234791  0  0  -0.706139  0  2.220784  0  0  -0.434602  -0.669948  0  2.243986  0
O  O71  1  0.68322975  0.04632368  0.42995329  1  0  -0.727742  0  1.970353  0  0  -0.684853  0  2.234804  0  0  -0.706057  0  2.220794  0  0  -0.434558  -0.669868  0  2.243997  0
O  O72  1  0.77384126  0.08301408  0.13913373  1  0  -0.763042  0  1.977675  0  0  -0.711282  0  2.236253  0  0  -0.733117  0  2.221216  0  0  -0.460677  -0.695764  0  2.246141  0
O  O73  1  0.27384003  0.91698190  0.36086028  1  0  -0.76313  0  1.977667  0  0  -0.711363  0  2.236214  0  0  -0.733199  0  2.221177  0  0  -0.460741  -0.695847  0  2.246106  0
O  O74  1  0.22616008  0.91698193  0.86086221  1  0  -0.763125  0  1.977589  0  0  -0.711361  0  2.236143  0  0  -0.733192  0  2.2211  0  0  -0.46076  -0.695845  0  2.246037  0
O  O75  1  0.72615993  0.08301757  0.63913648  1  0  -0.76313  0  1.977704  0  0  -0.71137  0  2.236271  0  0  -0.733203  0  2.221228  0  0  -0.460778  -0.695854  0  2.246163  0
O  O76  1  0.95978954  0.66264180  0.18142704  1  0  -0.628458  0  1.992185  0  0  -0.580853  0  2.223131  0  0  -0.60414  0  2.216169  0  0  -0.359053  -0.564947  0  2.227702  0
O  O77  1  0.45978834  0.33735790  0.31857538  1  0  -0.628497  0  1.992025  0  0  -0.580872  0  2.223002  0  0  -0.604162  0  2.216034  0  0  -0.359032  -0.564965  0  2.227569  0
O  O78  1  0.04021180  0.33735942  0.81857179  1  0  -0.628509  0  1.992239  0  0  -0.580883  0  2.223181  0  0  -0.60417  0  2.216213  0  0  -0.359034  -0.564976  0  2.22775  0
O  O79  1  0.54021438  0.66264157  0.68142137  1  0  -0.628492  0  1.99207  0  0  -0.580881  0  2.223038  0  0  -0.604168  0  2.216065  0  0  -0.359001  -0.564974  0  2.227611  0
O  O80  1  0.67625759  0.58408305  0.13859644  1  0  -0.525436  0  2.121427  0  0  -0.469783  0  2.338074  0  0  -0.492061  0  2.324971  0  0  -0.313843  -0.45437  0  2.346736  0
O  O81  1  0.17625615  0.41591677  0.36140507  1  0  -0.525365  0  2.121497  0  0  -0.469693  0  2.338148  0  0  -0.491973  0  2.325045  0  0  -0.313803  -0.454279  0  2.346806  0
O  O82  1  0.32374237  0.41591994  0.86140695  1  0  -0.52541  0  2.121352  0  0  -0.469773  0  2.338014  0  0  -0.492047  0  2.324909  0  0  -0.313834  -0.454359  0  2.346674  0
O  O83  1  0.82374518  0.58408101  0.63859461  1  0  -0.525387  0  2.121408  0  0  -0.469768  0  2.338106  0  0  -0.492043  0  2.324998  0  0  -0.31385  -0.454354  0  2.346765  0
O  O84  1  0.24365870  0.53199966  0.14198561  1  0  -0.481751  0  2.112599  0  0  -0.43306  0  2.323584  0  0  -0.45353  0  2.315652  0  0  -0.333555  -0.418532  0  2.328511  0
O  O85  1  0.74365455  0.46800396  0.35801267  1  0  -0.481907  0  2.112441  0  0  -0.433196  0  2.323469  0  0  -0.453651  0  2.31549  0  0  -0.33357  -0.418668  0  2.328396  0
O  O86  1  0.75634402  0.46800240  0.85801176  1  0  -0.481795  0  2.11245  0  0  -0.433117  0  2.323499  0  0  -0.453573  0  2.315525  0  0  -0.333549  -0.41859  0  2.32843  0
O  O87  1  0.25634403  0.53199468  0.64198638  1  0  -0.481887  0  2.112411  0  0  -0.433196  0  2.32344  0  0  -0.453651  0  2.315459  0  0  -0.333579  -0.418669  0  2.328367  0
O  O88  1  0.04530589  0.20146201  0.31897237  1  0  -0.850754  0  1.837396  0  0  -0.798352  0  2.002236  0  0  -0.81753  0  1.974144  0  0  -0.612565  -0.784802  0  2.021932  0
O  O89  1  0.54530350  0.79853445  0.18102581  1  0  -0.850845  0  1.837314  0  0  -0.798443  0  2.002193  0  0  -0.817613  0  1.974116  0  0  -0.612595  -0.784892  0  2.021889  0
O  O90  1  0.95469407  0.79853662  0.68102668  1  0  -0.850813  0  1.83731  0  0  -0.798402  0  2.002166  0  0  -0.817572  0  1.974091  0  0  -0.612571  -0.784849  0  2.021863  0
O  O91  1  0.45469232  0.20146333  0.81897386  1  0  -0.850826  0  1.837307  0  0  -0.798434  0  2.002131  0  0  -0.81761  0  1.974039  0  0  -0.612606  -0.784883  0  2.021828  0
