# generated using pymatgen
data_NdH14C6(ClO)3
_symmetry_space_group_name_H-M   'P 1'
_cell_length_a   8.28021741
_cell_length_b   8.68528830
_cell_length_c   16.34668326
_cell_angle_alpha   89.99994911
_cell_angle_beta   94.86203875
_cell_angle_gamma   90.00002899
_symmetry_Int_Tables_number   1
_chemical_formula_structural   NdH14C6(ClO)3
_chemical_formula_sum   'Nd4 H56 C24 Cl12 O12'
_cell_volume   1171.35914813
_cell_formula_units_Z   4
loop_
 _symmetry_equiv_pos_site_id
 _symmetry_equiv_pos_as_xyz
  1  'x, y, z'
loop_
 _atom_site_type_symbol
 _atom_site_label
 _atom_site_symmetry_multiplicity
 _atom_site_fract_x
 _atom_site_fract_y
 _atom_site_fract_z
 _atom_site_occupancy
 _atom_site_hle17_bader_spin_density
 _atom_site_hle17_ddec_charge
 _atom_site_hle17_ddec_spin_density
 _atom_site_hle17_ddec_sum_bond_order
 _atom_site_hle17_magmom
 _atom_site_hse06_10hf_bader_spin_density
 _atom_site_hse06_10hf_ddec_charge
 _atom_site_hse06_10hf_ddec_spin_density
 _atom_site_hse06_10hf_ddec_sum_bond_order
 _atom_site_hse06_10hf_magmom
 _atom_site_hse06_bader_spin_density
 _atom_site_hse06_ddec_charge
 _atom_site_hse06_ddec_spin_density
 _atom_site_hse06_ddec_sum_bond_order
 _atom_site_hse06_magmom
 _atom_site_pbe_bader_spin_density
 _atom_site_pbe_cm5_charge
 _atom_site_pbe_ddec_charge
 _atom_site_pbe_ddec_spin_density
 _atom_site_pbe_ddec_sum_bond_order
 _atom_site_pbe_magmom
Nd  Nd0  1  0.31304517  0.37200481  0.22422649  1  0  1.998217  0  1.858232  0  0  1.845681  0  2.311765  0  0  1.903376  0  2.240269  0  0  1.043236  1.803944  0  2.362438  0
Nd  Nd1  1  0.18695532  0.87200541  0.27577343  1  0  1.998213  0  1.858247  0  0  1.845692  0  2.311752  0  0  1.90338  0  2.240266  0  0  1.043241  1.803955  0  2.362423  0
Nd  Nd2  1  0.68695424  0.62799364  0.77577425  1  0  1.998207  0  1.858245  0  0  1.845684  0  2.311755  0  0  1.903365  0  2.240286  0  0  1.043238  1.80394  0  2.362435  0
Nd  Nd3  1  0.81304530  0.12799304  0.72422613  1  0  1.998216  0  1.858234  0  0  1.845678  0  2.311763  0  0  1.903364  0  2.240288  0  0  1.043238  1.803938  0  2.362441  0
H  H4  1  0.50720499  0.35364445  0.97061595  1  0  0.095412  0  0.950794  0  0  0.111166  0  1.016339  0  0  0.112482  0  1.015837  0  0  0.09761  0.110121  0  1.016806  0
H  H5  1  0.99279466  0.85364445  0.52938372  1  0  0.095421  0  0.950787  0  0  0.111176  0  1.016332  0  0  0.112492  0  1.015829  0  0  0.097613  0.110131  0  1.016798  0
H  H6  1  0.49279442  0.64635860  0.02938479  1  0  0.095409  0  0.95083  0  0  0.111175  0  1.01637  0  0  0.112491  0  1.015865  0  0  0.097622  0.110129  0  1.016837  0
H  H7  1  0.00720474  0.14635860  0.47061518  1  0  0.095411  0  0.950825  0  0  0.11117  0  1.016377  0  0  0.112486  0  1.015873  0  0  0.097623  0.110125  0  1.016844  0
H  H8  1  0.30908055  0.33910913  0.00807702  1  0  0.093809  0  0.992417  0  0  0.109748  0  1.060091  0  0  0.11065  0  1.060086  0  0  0.094169  0.108972  0  1.060256  0
H  H9  1  0.19091992  0.83910937  0.49192353  1  0  0.093805  0  0.992422  0  0  0.109744  0  1.060098  0  0  0.110647  0  1.06009  0  0  0.094166  0.108968  0  1.060264  0
H  H10  1  0.69091766  0.66089277  0.99192428  1  0  0.093794  0  0.992447  0  0  0.109739  0  1.060124  0  0  0.110646  0  1.060103  0  0  0.094146  0.108963  0  1.060289  0
H  H11  1  0.80908190  0.16089253  0.50807548  1  0  0.093782  0  0.99245  0  0  0.109725  0  1.060137  0  0  0.110632  0  1.060116  0  0  0.094136  0.108949  0  1.060303  0
H  H12  1  0.44895209  0.18132740  0.02243446  1  0  0.07906  0  0.93453  0  0  0.097234  0  0.999068  0  0  0.098707  0  0.997542  0  0  0.090534  0.096055  0  1.000308  0
H  H13  1  0.05104831  0.68132760  0.47756616  1  0  0.079065  0  0.934542  0  0  0.09724  0  0.999078  0  0  0.098713  0  0.997554  0  0  0.090532  0.096061  0  1.000318  0
H  H14  1  0.55104612  0.81867219  0.97756684  1  0  0.079037  0  0.93457  0  0  0.097229  0  0.999095  0  0  0.098702  0  0.997569  0  0  0.090517  0.09605  0  1.000334  0
H  H15  1  0.94895352  0.31867315  0.52243285  1  0  0.079052  0  0.934528  0  0  0.097231  0  0.999073  0  0  0.098704  0  0.997547  0  0  0.090526  0.096053  0  1.000312  0
H  H16  1  0.73123656  0.39577512  0.06606506  1  0  0.073516  0  0.928717  0  0  0.089432  0  0.989462  0  0  0.089404  0  0.989854  0  0  0.105707  0.089302  0  0.98942  0
H  H17  1  0.76876374  0.89577434  0.43393488  1  0  0.073513  0  0.928704  0  0  0.089424  0  0.98946  0  0  0.089395  0  0.989851  0  0  0.105699  0.089294  0  0.989418  0
H  H18  1  0.26876163  0.60422563  0.93393502  1  0  0.073525  0  0.92867  0  0  0.089447  0  0.989445  0  0  0.089423  0  0.989833  0  0  0.105702  0.089316  0  0.989403  0
H  H19  1  0.23123809  0.10422525  0.56606474  1  0  0.07351  0  0.928702  0  0  0.089442  0  0.989461  0  0  0.089417  0  0.98985  0  0  0.105696  0.089311  0  0.989419  0
H  H20  1  0.68316136  0.22064559  0.11687175  1  0  0.058097  0  0.931811  0  0  0.071393  0  0.997217  0  0  0.072122  0  0.996279  0  0  0.09952  0.070751  0  0.99806  0
H  H21  1  0.81683886  0.72064492  0.38312765  1  0  0.058098  0  0.931834  0  0  0.071394  0  0.997242  0  0  0.07212  0  0.996301  0  0  0.099523  0.070752  0  0.998083  0
H  H22  1  0.31683805  0.77935516  0.88312776  1  0  0.058106  0  0.931853  0  0  0.071419  0  0.997275  0  0  0.072149  0  0.996336  0  0  0.099533  0.070776  0  0.998116  0
H  H23  1  0.18316176  0.27935468  0.61687192  1  0  0.058102  0  0.931856  0  0  0.071412  0  0.997281  0  0  0.072143  0  0.996341  0  0  0.099531  0.07077  0  0.998121  0
H  H24  1  0.84901845  0.38656981  0.21085473  1  0  0.085003  0  0.953282  0  0  0.095299  0  1.021836  0  0  0.095697  0  1.021898  0  0  0.099917  0.094895  0  1.021973  0
H  H25  1  0.65098305  0.88657037  0.28914465  1  0  0.084999  0  0.95325  0  0  0.095297  0  1.021803  0  0  0.095696  0  1.021865  0  0  0.099909  0.094893  0  1.021941  0
H  H26  1  0.15098216  0.61343094  0.78914484  1  0  0.085  0  0.953288  0  0  0.095298  0  1.021835  0  0  0.095697  0  1.021897  0  0  0.099917  0.094895  0  1.021972  0
H  H27  1  0.34901757  0.11343038  0.71085492  1  0  0.08502  0  0.953271  0  0  0.095322  0  1.021806  0  0  0.095722  0  1.021869  0  0  0.09992  0.094918  0  1.021943  0
H  H28  1  0.71097744  0.54462787  0.19374053  1  0  0.074881  0  0.926035  0  0  0.088071  0  0.988782  0  0  0.089104  0  0.98781  0  0  0.099737  0.087223  0  0.989644  0
H  H29  1  0.78902391  0.04462827  0.30625961  1  0  0.074864  0  0.926039  0  0  0.088058  0  0.988789  0  0  0.089092  0  0.987818  0  0  0.099727  0.08721  0  0.989651  0
H  H30  1  0.28901955  0.45537173  0.80626011  1  0  0.074886  0  0.926059  0  0  0.088052  0  0.988831  0  0  0.089085  0  0.987863  0  0  0.099736  0.087204  0  0.989694  0
H  H31  1  0.21097913  0.95537248  0.69374005  1  0  0.074892  0  0.92605  0  0  0.088055  0  0.988822  0  0  0.089088  0  0.987856  0  0  0.099733  0.087207  0  0.989684  0
H  H32  1  0.67477115  0.52397787  0.34666747  1  0  0.063622  0  0.928864  0  0  0.074517  0  0.998621  0  0  0.075861  0  0.99665  0  0  0.10423  0.073401  0  1.00027  0
H  H33  1  0.82523019  0.02397855  0.15333268  1  0  0.063621  0  0.928876  0  0  0.074519  0  0.998626  0  0  0.075862  0  0.996657  0  0  0.104222  0.073403  0  1.000275  0
H  H34  1  0.32522826  0.47602057  0.65333265  1  0  0.063601  0  0.928879  0  0  0.074505  0  0.998607  0  0  0.075849  0  0.996636  0  0  0.104218  0.073388  0  1.000256  0
H  H35  1  0.17477043  0.97601990  0.84666750  1  0  0.063618  0  0.928847  0  0  0.074503  0  0.998609  0  0  0.075846  0  0.996639  0  0  0.10421  0.073386  0  1.000258  0
H  H36  1  0.81198291  0.36332923  0.34877193  1  0  0.083669  0  0.919372  0  0  0.100536  0  0.977161  0  0  0.10068  0  0.97729  0  0  0.105113  0.1003  0  0.977279  0
H  H37  1  0.68801617  0.86333004  0.15122796  1  0  0.08369  0  0.919386  0  0  0.100556  0  0.977172  0  0  0.1007  0  0.977298  0  0  0.105118  0.100319  0  0.97729  0
H  H38  1  0.18801529  0.63666691  0.65122876  1  0  0.08369  0  0.91939  0  0  0.10052  0  0.977203  0  0  0.100664  0  0.977329  0  0  0.105109  0.100283  0  0.977321  0
H  H39  1  0.31198324  0.13666840  0.84877216  1  0  0.083695  0  0.919401  0  0  0.100542  0  0.9772  0  0  0.100685  0  0.977326  0  0  0.105121  0.100305  0  0.977316  0
H  H40  1  0.59035613  0.18820312  0.38981834  1  0  0.077264  0  0.923673  0  0  0.089414  0  0.988529  0  0  0.090435  0  0.987773  0  0  0.105624  0.088565  0  0.989261  0
H  H41  1  0.90964529  0.68820411  0.11018235  1  0  0.07725  0  0.923666  0  0  0.089384  0  0.988534  0  0  0.090403  0  0.987779  0  0  0.105631  0.088535  0  0.989266  0
H  H42  1  0.40964086  0.81179647  0.61018230  1  0  0.077234  0  0.923688  0  0  0.089374  0  0.988551  0  0  0.090394  0  0.987797  0  0  0.105613  0.088526  0  0.989282  0
H  H43  1  0.09035654  0.31179549  0.88981727  1  0  0.077243  0  0.9237  0  0  0.089378  0  0.988559  0  0  0.090397  0  0.987803  0  0  0.105612  0.088532  0  0.989292  0
H  H44  1  0.62164945  0.34494053  0.46031559  1  0  0.071126  0  0.924192  0  0  0.087936  0  0.98389  0  0  0.087751  0  0.984236  0  0  0.109578  0.087989  0  0.983734  0
H  H45  1  0.87835083  0.84494046  0.03968376  1  0  0.071103  0  0.924207  0  0  0.087905  0  0.983905  0  0  0.087721  0  0.984252  0  0  0.10957  0.087959  0  0.983751  0
H  H46  1  0.37834875  0.65505907  0.53968388  1  0  0.071109  0  0.924214  0  0  0.087911  0  0.983917  0  0  0.087728  0  0.984263  0  0  0.109566  0.087966  0  0.983762  0
H  H47  1  0.12165100  0.15505913  0.96031586  1  0  0.07113  0  0.924212  0  0  0.087928  0  0.983912  0  0  0.087743  0  0.984259  0  0  0.109575  0.087984  0  0.983757  0
H  H48  1  0.31604688  0.19707894  0.45123139  1  0  0.088543  0  0.96905  0  0  0.100364  0  1.044754  0  0  0.101724  0  1.043895  0  0  0.091029  0.09924  0  1.04559  0
H  H49  1  0.18395352  0.69707876  0.04876861  1  0  0.088453  0  0.969146  0  0  0.100315  0  1.044812  0  0  0.101675  0  1.043954  0  0  0.091013  0.099191  0  1.045648  0
H  H50  1  0.68395132  0.80292296  0.54876930  1  0  0.088516  0  0.969092  0  0  0.100389  0  1.04474  0  0  0.10175  0  1.043885  0  0  0.091016  0.099264  0  1.045574  0
H  H51  1  0.81604709  0.30292199  0.95123095  1  0  0.088517  0  0.969064  0  0  0.100337  0  1.044765  0  0  0.101698  0  1.043911  0  0  0.091022  0.099213  0  1.045601  0
H  H52  1  0.19782952  0.36818781  0.42696671  1  0  0.094735  0  0.971007  0  0  0.111538  0  1.036003  0  0  0.11216  0  1.035955  0  0  0.093448  0.110955  0  1.036207  0
H  H53  1  0.30217095  0.86818766  0.07303260  1  0  0.094729  0  0.970975  0  0  0.11153  0  1.035982  0  0  0.112152  0  1.035934  0  0  0.093459  0.110947  0  1.036186  0
H  H54  1  0.80216746  0.63181293  0.57303331  1  0  0.094728  0  0.970988  0  0  0.111534  0  1.035988  0  0  0.112155  0  1.035943  0  0  0.093442  0.11095  0  1.036193  0
H  H55  1  0.69783088  0.13181309  0.92696824  1  0  0.094709  0  0.971018  0  0  0.111505  0  1.036024  0  0  0.112128  0  1.035979  0  0  0.09344  0.110922  0  1.036229  0
H  H56  1  0.37236163  0.37588126  0.50097764  1  0  0.078605  0  0.940113  0  0  0.097706  0  1.004358  0  0  0.098497  0  1.003722  0  0  0.093472  0.09701  0  1.004958  0
H  H57  1  0.12763943  0.87588031  0.99902205  1  0  0.078586  0  0.940106  0  0  0.097682  0  1.004362  0  0  0.098472  0  1.003728  0  0  0.093477  0.096985  0  1.004963  0
H  H58  1  0.62763656  0.62412179  0.49902305  1  0  0.07861  0  0.940144  0  0  0.09771  0  1.004396  0  0  0.098501  0  1.003761  0  0  0.093464  0.097013  0  1.004997  0
H  H59  1  0.87236240  0.12412274  0.00097879  1  0  0.078566  0  0.940124  0  0  0.097668  0  1.004372  0  0  0.098459  0  1.003739  0  0  0.09345  0.096973  0  1.004972  0
C  C60  1  0.43690036  0.30769281  0.01926190  1  0  -0.091356  0  3.625902  0  0  -0.184571  0  3.885631  0  0  -0.179509  0  3.890499  0  0  -0.15106  -0.187775  0  3.882246  0
C  C61  1  0.06310009  0.80769301  0.48073805  1  0  -0.09137  0  3.625945  0  0  -0.184589  0  3.885672  0  0  -0.179526  0  3.890541  0  0  -0.151065  -0.187792  0  3.882286  0
C  C62  1  0.56309905  0.69230794  0.98073884  1  0  -0.091352  0  3.62601  0  0  -0.184614  0  3.885752  0  0  -0.179549  0  3.890621  0  0  -0.151059  -0.187817  0  3.882366  0
C  C63  1  0.93690053  0.19230774  0.51926090  1  0  -0.091332  0  3.626033  0  0  -0.184587  0  3.885771  0  0  -0.179522  0  3.890641  0  0  -0.15105  -0.187789  0  3.882385  0
C  C64  1  0.66332865  0.34624303  0.11478445  1  0  0.063917  0  3.630556  0  0  0.008293  0  3.891871  0  0  0.014581  0  3.898584  0  0  -0.069703  0.004066  0  3.887294  0
C  C65  1  0.83667283  0.84624237  0.38521556  1  0  0.063904  0  3.630536  0  0  0.008298  0  3.891827  0  0  0.014588  0  3.898543  0  0  -0.069706  0.004071  0  3.88725  0
C  C66  1  0.33667075  0.65375772  0.88521568  1  0  0.063886  0  3.630512  0  0  0.00817  0  3.891967  0  0  0.014453  0  3.898691  0  0  -0.069735  0.003944  0  3.88739  0
C  C67  1  0.16332900  0.15375838  0.61478406  1  0  0.063907  0  3.630505  0  0  0.008189  0  3.891954  0  0  0.014476  0  3.898674  0  0  -0.069729  0.003962  0  3.887377  0
C  C68  1  0.72165977  0.41827858  0.19529504  1  0  0.051665  0  3.613604  0  0  -0.008755  0  3.880356  0  0  -0.002203  0  3.885434  0  0  -0.075578  -0.013203  0  3.876991  0
C  C69  1  0.77834054  0.91827918  0.30470427  1  0  0.051664  0  3.613472  0  0  -0.008769  0  3.880236  0  0  -0.002223  0  3.88532  0  0  -0.075574  -0.013218  0  3.876872  0
C  C70  1  0.27833964  0.58172102  0.80470508  1  0  0.051654  0  3.613618  0  0  -0.008724  0  3.880389  0  0  -0.002175  0  3.885476  0  0  -0.075574  -0.013175  0  3.877026  0
C  C71  1  0.22166007  0.08172042  0.69529530  1  0  0.051631  0  3.613559  0  0  -0.008742  0  3.880323  0  0  -0.002197  0  3.885416  0  0  -0.075568  -0.013191  0  3.876958  0
C  C72  1  0.68389248  0.39813289  0.33878634  1  0  0.057137  0  3.637276  0  0  -0.005357  0  3.910798  0  0  0.001492  0  3.915735  0  0  -0.069282  -0.009995  0  3.907499  0
C  C73  1  0.81610782  0.89813374  0.16121298  1  0  0.056999  0  3.637297  0  0  -0.005492  0  3.91081  0  0  0.001362  0  3.915744  0  0  -0.069329  -0.010131  0  3.907518  0
C  C74  1  0.31610693  0.60186440  0.66121378  1  0  0.057085  0  3.637301  0  0  -0.005354  0  3.910745  0  0  0.001498  0  3.915683  0  0  -0.069286  -0.009991  0  3.907447  0
C  C75  1  0.18389280  0.10186470  0.83878720  1  0  0.057024  0  3.63729  0  0  -0.005445  0  3.910784  0  0  0.001409  0  3.915714  0  0  -0.069323  -0.010079  0  3.907486  0
C  C76  1  0.58252267  0.31430947  0.39631042  1  0  0.05154  0  3.634511  0  0  -0.006332  0  3.900744  0  0  0.000108  0  3.90655  0  0  -0.068965  -0.010686  0  3.896828  0
C  C77  1  0.91747759  0.81431046  0.10368893  1  0  0.051656  0  3.634412  0  0  -0.006174  0  3.900594  0  0  0.000263  0  3.906404  0  0  -0.068912  -0.010534  0  3.896684  0
C  C78  1  0.41747673  0.68569013  0.60368970  1  0  0.0516  0  3.63449  0  0  -0.006248  0  3.900674  0  0  0.000185  0  3.906486  0  0  -0.068914  -0.010608  0  3.896762  0
C  C79  1  0.08252182  0.18568913  0.89631058  1  0  0.051608  0  3.634512  0  0  -0.006216  0  3.900648  0  0  0.000226  0  3.906451  0  0  -0.068906  -0.010584  0  3.896747  0
C  C80  1  0.31908269  0.32271093  0.44378661  1  0  -0.081454  0  3.632439  0  0  -0.178441  0  3.898223  0  0  -0.172778  0  3.90308  0  0  -0.149177  -0.18208  0  3.894891  0
C  C81  1  0.18091777  0.82271189  0.05621272  1  0  -0.081301  0  3.63251  0  0  -0.178311  0  3.898285  0  0  -0.172648  0  3.903143  0  0  -0.149142  -0.181951  0  3.894951  0
C  C82  1  0.68091430  0.67728982  0.55621342  1  0  -0.08146  0  3.632455  0  0  -0.17851  0  3.898271  0  0  -0.172835  0  3.903096  0  0  -0.149156  -0.182148  0  3.894939  0
C  C83  1  0.81908406  0.17729001  0.94378751  1  0  -0.081296  0  3.632403  0  0  -0.17831  0  3.898236  0  0  -0.172631  0  3.903052  0  0  -0.149109  -0.181952  0  3.894906  0
Cl  Cl84  1  0.42450932  0.67673163  0.21163309  1  0  -0.703226  0  0.967905  0  0  -0.66333  0  1.242432  0  0  -0.678896  0  1.218461  0  0  -0.323209  -0.651933  0  1.259237  0
Cl  Cl85  1  0.07549107  0.17673081  0.28836631  1  0  -0.703213  0  0.967881  0  0  -0.663334  0  1.242442  0  0  -0.6789  0  1.218471  0  0  -0.323221  -0.651938  0  1.259249  0
Cl  Cl86  1  0.57549130  0.32326681  0.78836770  1  0  -0.703247  0  0.967931  0  0  -0.663334  0  1.242435  0  0  -0.6789  0  1.218467  0  0  -0.323211  -0.651936  0  1.259241  0
Cl  Cl87  1  0.92450833  0.82326648  0.71163259  1  0  -0.703242  0  0.967919  0  0  -0.663338  0  1.242445  0  0  -0.678904  0  1.218478  0  0  -0.323217  -0.651941  0  1.259252  0
Cl  Cl88  1  0.09964196  0.56711623  0.30769209  1  0  -0.708444  0  0.959296  0  0  -0.668782  0  1.227648  0  0  -0.684842  0  1.204808  0  0  -0.331884  -0.657005  0  1.243599  0
Cl  Cl89  1  0.40035838  0.06711573  0.19230736  1  0  -0.708444  0  0.959296  0  0  -0.668778  0  1.227641  0  0  -0.684839  0  1.204801  0  0  -0.331882  -0.657001  0  1.243591  0
Cl  Cl90  1  0.90035623  0.43288336  0.69230738  1  0  -0.708459  0  0.959303  0  0  -0.668794  0  1.227647  0  0  -0.684855  0  1.204813  0  0  -0.331887  -0.657017  0  1.243598  0
Cl  Cl91  1  0.59964224  0.93288387  0.80769282  1  0  -0.708439  0  0.959297  0  0  -0.668767  0  1.22763  0  0  -0.684828  0  1.204796  0  0  -0.331879  -0.656989  0  1.243582  0
Cl  Cl92  1  0.08809380  0.40410397  0.09812234  1  0  -0.671857  0  0.807404  0  0  -0.630726  0  1.054122  0  0  -0.646276  0  1.033868  0  0  -0.362747  -0.619323  0  1.068344  0
Cl  Cl93  1  0.41190670  0.90410331  0.40187757  1  0  -0.671878  0  0.807422  0  0  -0.630742  0  1.054128  0  0  -0.646291  0  1.033875  0  0  -0.362754  -0.619341  0  1.068352  0
Cl  Cl94  1  0.91190561  0.59589678  0.90187779  1  0  -0.671869  0  0.80742  0  0  -0.630742  0  1.054136  0  0  -0.64629  0  1.033884  0  0  -0.362749  -0.619339  0  1.068357  0
Cl  Cl95  1  0.58809392  0.09589628  0.59812261  1  0  -0.671859  0  0.807402  0  0  -0.630735  0  1.054133  0  0  -0.646285  0  1.033881  0  0  -0.362749  -0.619334  0  1.068357  0
O  O96  1  0.49244400  0.37480510  0.09713019  1  0  -0.349822  0  2.381573  0  0  -0.265156  0  2.633046  0  0  -0.284727  0  2.637987  0  0  -0.272593  -0.251319  0  2.629276  0
O  O97  1  0.00755770  0.87480540  0.40286978  1  0  -0.349803  0  2.38161  0  0  -0.265133  0  2.633068  0  0  -0.284701  0  2.638003  0  0  -0.272571  -0.251296  0  2.629296  0
O  O98  1  0.50755663  0.62519450  0.90287121  1  0  -0.349762  0  2.381523  0  0  -0.265053  0  2.633013  0  0  -0.284623  0  2.63796  0  0  -0.272538  -0.251216  0  2.62924  0
O  O99  1  0.99244292  0.12519535  0.59712917  1  0  -0.349777  0  2.381552  0  0  -0.265065  0  2.633038  0  0  -0.284635  0  2.637984  0  0  -0.272549  -0.251227  0  2.629266  0
O  O100  1  0.62266948  0.35816766  0.25655095  1  0  -0.374836  0  2.372065  0  0  -0.292879  0  2.624273  0  0  -0.312293  0  2.627375  0  0  -0.277427  -0.279138  0  2.621813  0
O  O101  1  0.87733202  0.85816956  0.24344783  1  0  -0.374763  0  2.371986  0  0  -0.292836  0  2.624217  0  0  -0.312249  0  2.627321  0  0  -0.277411  -0.279094  0  2.621757  0
O  O102  1  0.37733114  0.64182848  0.74344862  1  0  -0.374774  0  2.372075  0  0  -0.292847  0  2.624266  0  0  -0.312258  0  2.627369  0  0  -0.277411  -0.279104  0  2.621805  0
O  O103  1  0.12266860  0.14182889  0.75655174  1  0  -0.374778  0  2.372019  0  0  -0.292849  0  2.62422  0  0  -0.312261  0  2.627325  0  0  -0.27742  -0.279107  0  2.621757  0
O  O104  1  0.41637672  0.36168611  0.37776190  1  0  -0.358825  0  2.380211  0  0  -0.27399  0  2.637442  0  0  -0.293304  0  2.640051  0  0  -0.281295  -0.260317  0  2.635288  0
O  O105  1  0.08362497  0.86168692  0.12223746  1  0  -0.358862  0  2.380238  0  0  -0.274038  0  2.637475  0  0  -0.293348  0  2.640083  0  0  -0.281337  -0.260362  0  2.635321  0
O  O106  1  0.58362148  0.63831464  0.62223879  1  0  -0.358779  0  2.380193  0  0  -0.273962  0  2.637436  0  0  -0.293272  0  2.640049  0  0  -0.281322  -0.260285  0  2.635278  0
O  O107  1  0.91637443  0.13831268  0.87776205  1  0  -0.358878  0  2.380245  0  0  -0.274035  0  2.637449  0  0  -0.293348  0  2.64006  0  0  -0.281332  -0.260356  0  2.635296  0
