# generated using pymatgen
data_AlHC7N3O11
_symmetry_space_group_name_H-M   'P 1'
_cell_length_a   7.02127822
_cell_length_b   16.19007246
_cell_length_c   19.28792177
_cell_angle_alpha   76.03392981
_cell_angle_beta   79.51551486
_cell_angle_gamma   77.48736873
_symmetry_Int_Tables_number   1
_chemical_formula_structural   AlHC7N3O11
_chemical_formula_sum   'Al4 H4 C28 N12 O44'
_cell_volume   2057.65068925
_cell_formula_units_Z   4
loop_
 _symmetry_equiv_pos_site_id
 _symmetry_equiv_pos_as_xyz
  1  'x, y, z'
loop_
 _atom_site_type_symbol
 _atom_site_label
 _atom_site_symmetry_multiplicity
 _atom_site_fract_x
 _atom_site_fract_y
 _atom_site_fract_z
 _atom_site_occupancy
 _atom_site_pbe_bader_charge
 _atom_site_pbe_bader_spin_density
 _atom_site_pbe_cm5_charge
 _atom_site_pbe_ddec_charge
 _atom_site_pbe_ddec_spin_density
 _atom_site_pbe_ddec_sum_bond_order
 _atom_site_pbe_magmom
Al  Al0  1  0.38746897  0.24997365  0.75177380  1  2.508931  0  0.424949  1.649606  0  2.520498  0
Al  Al1  1  0.61253681  0.75002544  0.24821202  1  2.508994  0  0.425005  1.649429  0  2.520458  0
Al  Al2  1  0.88922385  0.25003289  0.74819879  1  2.508165  0  0.424284  1.646065  0  2.524948  0
Al  Al3  1  0.11078789  0.74996247  0.25179592  1  2.508206  0  0.424331  1.646119  0  2.524669  0
C  C4  1  0.22878664  0.15487204  0.66950233  1  1.697153  0  0.290986  0.720494  0  4.129399  0
C  C5  1  0.77122058  0.84511622  0.33049996  1  1.696416  0  0.290949  0.720471  0  4.129819  0
C  C6  1  0.55343697  0.34527880  0.83038180  1  1.686478  0  0.288351  0.716724  0  4.136294  0
C  C7  1  0.44656877  0.65471435  0.16961003  1  1.686136  0  0.288449  0.716965  0  4.136017  0
C  C8  1  0.13060085  0.14877349  0.86146172  1  1.692749  0  0.288264  0.658715  0  4.07881  0
C  C9  1  0.86936959  0.85124729  0.13854461  1  1.692606  0  0.288282  0.658984  0  4.078504  0
C  C10  1  0.64083632  0.35115738  0.63845845  1  1.689737  0  0.286703  0.65557  0  4.080412  0
C  C11  1  0.35919175  0.64883084  0.36153067  1  1.690021  0  0.286718  0.655968  0  4.080142  0
C  C12  1  0.64809489  0.41572107  0.56724795  1  0.362009  0  0.104673  -0.087071  0  3.791058  0
C  C13  1  0.35193136  0.58425848  0.43274208  1  0.361798  0  0.104677  -0.087178  0  3.790816  0
C  C14  1  0.13124663  0.08420419  0.93267822  1  0.353368  0  0.101967  -0.09028  0  3.792549  0
C  C15  1  0.86870877  0.91584331  0.06734003  1  0.351076  0  0.102086  -0.090441  0  3.792926  0
C  C16  1  0.49863175  0.46619110  0.53250187  1  0.237077  0  0.10402  0.032085  0  3.86956  0
C  C17  1  0.50138468  0.53379116  0.46748799  1  0.272709  0  0.104232  0.032535  0  3.869241  0
C  C18  1  0.99743771  0.03377968  0.96748241  1  0.276822  0  0.106128  0.034304  0  3.868638  0
C  C19  1  0.00252486  0.96625407  0.03252953  1  0.236866  0  0.106003  0.034525  0  3.868752  0
C  C20  1  0.50921201  0.39277948  0.88733575  1  -0.016289  0  0.017677  -0.080896  0  3.810969  0
C  C21  1  0.49079378  0.60721315  0.11265649  1  -0.015862  0  0.017704  -0.080924  0  3.811462  0
C  C22  1  0.28909736  0.10752097  0.61243797  1  -0.006981  0  0.01776  -0.081888  0  3.810785  0
C  C23  1  0.71093517  0.89245925  0.38755879  1  -0.006549  0  0.017863  -0.081847  0  3.81062  0
C  C24  1  0.44068635  0.47638732  0.99173017  1  0.354048  0  0.114058  0.069253  0  3.941496  0
C  C25  1  0.55930840  0.52359367  0.00826730  1  0.26826  0  0.114131  0.069423  0  3.941123  0
C  C26  1  0.40891489  0.02368280  0.50821841  1  0.287006  0  0.113645  0.068593  0  3.945263  0
C  C27  1  0.59110365  0.97634337  0.49177178  1  0.349317  0  0.113872  0.069087  0  3.944345  0
C  C28  1  0.51891128  0.56881546  0.06358894  1  -0.045462  0  -0.011269  -0.032078  0  4.11074  0
C  C29  1  0.48107301  0.43116904  0.93641170  1  -0.045808  0  -0.011283  -0.03213  0  4.110495  0
C  C30  1  0.65108776  0.93096052  0.43653829  1  -0.047606  0  -0.011337  -0.03158  0  4.109929  0
C  C31  1  0.34892406  0.06904349  0.56344760  1  -0.046746  0  -0.011218  -0.031406  0  4.111333  0
H  H32  1  0.09427637  0.36464149  0.72405304  1  0.614172  0  0.343155  0.429449  0  0.859059  0
H  H33  1  0.90574686  0.63536053  0.27592056  1  0.613968  0  0.343092  0.429164  0  0.859429  0
H  H34  1  0.68300903  0.13536035  0.77602920  1  0.616499  0  0.343103  0.429168  0  0.859389  0
H  H35  1  0.31699456  0.86463713  0.22397968  1  0.616591  0  0.343142  0.429172  0  0.859359  0
N  N36  1  0.69525327  0.55523456  0.42872749  1  0.443884  0  0.052058  0.492288  0  4.252879  0
N  N37  1  0.30477851  0.44474757  0.57126313  1  0.444119  0  0.052149  0.492395  0  4.252721  0
N  N38  1  0.17915163  0.94476294  0.07123775  1  0.448362  0  0.052992  0.491917  0  4.25414  0
N  N39  1  0.82082371  0.05525809  0.92876705  1  0.45017  0  0.05298  0.492044  0  4.254913  0
N  N40  1  0.14969775  0.57415637  0.45953289  1  0.396395  0  0.043109  0.502105  0  4.304976  0
N  N41  1  0.85032948  0.42582939  0.54045751  1  0.396325  0  0.043281  0.502552  0  4.304978  0
N  N42  1  0.68319678  0.92591898  0.04054993  1  0.410258  0  0.043961  0.503178  0  4.303571  0
N  N43  1  0.31671575  0.07414685  0.95949016  1  0.410915  0  0.044558  0.504161  0  4.303181  0
N  N44  1  0.75448813  0.53029013  0.96142338  1  0.473932  0  0.074047  0.511028  0  4.208051  0
N  N45  1  0.24550692  0.46969630  0.03857375  1  0.474187  0  0.074097  0.510848  0  4.207881  0
N  N46  1  0.74619339  0.96972092  0.53856306  1  0.457217  0  0.073342  0.510219  0  4.208548  0
N  N47  1  0.25383961  0.03028995  0.46142204  1  0.457422  0  0.073205  0.510058  0  4.209374  0
O  O48  1  0.97457741  0.17049224  0.83279930  1  -1.243945  0  -0.213687  -0.564262  0  2.41615  0
O  O49  1  0.02541687  0.82951788  0.16719563  1  -1.24398  0  -0.213731  -0.564461  0  2.415701  0
O  O50  1  0.47789700  0.32941874  0.66714306  1  -1.23825  0  -0.213148  -0.563765  0  2.417115  0
O  O51  1  0.52212315  0.67056859  0.33285138  1  -1.238111  0  -0.213182  -0.563911  0  2.416979  0
O  O52  1  0.36914986  0.17195928  0.69409171  1  -1.230132  0  -0.220739  -0.57601  0  2.272073  0
O  O53  1  0.63087306  0.82803492  0.30590457  1  -1.229553  0  -0.220666  -0.575965  0  2.272145  0
O  O54  1  0.73547213  0.32815267  0.80582881  1  -1.225935  0  -0.219205  -0.573325  0  2.275091  0
O  O55  1  0.26453280  0.67184386  0.19416695  1  -1.22566  0  -0.219281  -0.573526  0  2.274882  0
O  O56  1  0.29465734  0.17297357  0.83761708  1  -1.225283  0  -0.214093  -0.560397  0  2.354844  0
O  O57  1  0.70532891  0.82705108  0.16238223  1  -1.2254  0  -0.21407  -0.560299  0  2.355217  0
O  O58  1  0.80518224  0.32701758  0.66233266  1  -1.228394  0  -0.213635  -0.557927  0  2.3544  0
O  O59  1  0.19484247  0.67296612  0.33766201  1  -1.228696  0  -0.213595  -0.558167  0  2.354561  0
O  O60  1  0.40723516  0.32655065  0.81074173  1  -1.21767  0  -0.218354  -0.569493  0  2.270573  0
O  O61  1  0.59277390  0.67344108  0.18925056  1  -1.21764  0  -0.21834  -0.569495  0  2.270474  0
O  O62  1  0.04427447  0.17347715  0.68919271  1  -1.227205  0  -0.219453  -0.570591  0  2.270037  0
O  O63  1  0.95573709  0.82650851  0.31080635  1  -1.22734  0  -0.219557  -0.570584  0  2.27001  0
O  O64  1  0.11705483  0.30208691  0.74058692  1  -1.41277  0  -0.449947  -0.984471  0  2.077286  0
O  O65  1  0.88296281  0.69791512  0.25938931  1  -1.412474  0  -0.449953  -0.984102  0  2.077785  0
O  O66  1  0.65977991  0.19790400  0.75940488  1  -1.414818  0  -0.450521  -0.98449  0  2.076958  0
O  O67  1  0.34023041  0.80209032  0.24058801  1  -1.415065  0  -0.450522  -0.984413  0  2.076905  0
O  O68  1  0.74206249  0.61725960  0.44310009  1  -0.381226  0  -0.072636  -0.249639  0  2.019145  0
O  O69  1  0.77930789  0.51306780  0.38296926  1  -0.394364  0  -0.093328  -0.272993  0  1.92275  0
O  O70  1  0.25795112  0.38273069  0.55688740  1  -0.380856  0  -0.072724  -0.24978  0  2.019358  0
O  O71  1  0.22074848  0.48691176  0.61702603  1  -0.394945  0  -0.093276  -0.27285  0  1.922203  0
O  O72  1  0.30230646  0.88274349  0.05682686  1  -0.380308  0  -0.074297  -0.250777  0  2.019467  0
O  O73  1  0.17542292  0.98690859  0.11699128  1  -0.395995  0  -0.093134  -0.27235  0  1.92333  0
O  O74  1  0.69768026  0.11728400  0.94317153  1  -0.380867  0  -0.07429  -0.250768  0  2.01904  0
O  O75  1  0.82451709  0.01310445  0.88302380  1  -0.397066  0  -0.093129  -0.272412  0  1.924185  0
O  O76  1  0.05304025  0.62224956  0.49888441  1  -0.373319  0  -0.074826  -0.237232  0  1.931269  0
O  O77  1  0.09771877  0.51929083  0.43602518  1  -0.400019  0  -0.085233  -0.277499  0  2.083967  0
O  O78  1  0.90230568  0.48069119  0.56396884  1  -0.399383  0  -0.085388  -0.277743  0  2.083577  0
O  O79  1  0.94699419  0.37774048  0.50110723  1  -0.374019  0  -0.074845  -0.23746  0  1.931542  0
O  O80  1  0.67401507  0.87780588  0.00121163  1  -0.37488  0  -0.074971  -0.236599  0  1.930896  0
O  O81  1  0.55282928  0.98075954  0.06406136  1  -0.409058  0  -0.085008  -0.27768  0  2.083273  0
O  O82  1  0.44708817  0.01929573  0.93599369  1  -0.410575  0  -0.084992  -0.278048  0  2.083272  0
O  O83  1  0.32588364  0.12225904  0.99882851  1  -0.374398  0  -0.075513  -0.237252  0  1.931066  0
O  O84  1  0.78626764  0.60461329  0.93828176  1  -0.401323  0  -0.098915  -0.279277  0  1.858389  0
O  O85  1  0.86355145  0.46272368  0.95066919  1  -0.405747  0  -0.101886  -0.290432  0  1.903105  0
O  O86  1  0.21373711  0.39537239  0.06172521  1  -0.401772  0  -0.099029  -0.279288  0  1.858261  0
O  O87  1  0.13644924  0.53726546  0.04932251  1  -0.405264  0  -0.101828  -0.290209  0  1.902894  0
O  O88  1  0.82812056  0.89537906  0.56217457  1  -0.399414  0  -0.099684  -0.279433  0  1.85731  0
O  O89  1  0.77804734  0.03736170  0.54878973  1  -0.403178  0  -0.100436  -0.2892  0  1.904137  0
O  O90  1  0.17191514  0.10462909  0.43781069  1  -0.399677  0  -0.099496  -0.279325  0  1.85763  0
O  O91  1  0.22199093  0.96264789  0.45120034  1  -0.403086  0  -0.100387  -0.289044  0  1.90463  0
