# generated using pymatgen
data_ZnH21C16(N2O3)2
_symmetry_space_group_name_H-M   'P 1'
_cell_length_a   10.07228200
_cell_length_b   11.02364934
_cell_length_c   10.98868082
_cell_angle_alpha   84.20530419
_cell_angle_beta   86.52395913
_cell_angle_gamma   86.02712926
_symmetry_Int_Tables_number   1
_chemical_formula_structural   ZnH21C16(N2O3)2
_chemical_formula_sum   'Zn2 H42 C32 N8 O12'
_cell_volume   1209.18831025
_cell_formula_units_Z   2
loop_
 _symmetry_equiv_pos_site_id
 _symmetry_equiv_pos_as_xyz
  1  'x, y, z'
loop_
 _atom_site_type_symbol
 _atom_site_label
 _atom_site_symmetry_multiplicity
 _atom_site_fract_x
 _atom_site_fract_y
 _atom_site_fract_z
 _atom_site_occupancy
 _atom_site_pbe_bader_charge
 _atom_site_pbe_bader_spin_density
 _atom_site_pbe_cm5_charge
 _atom_site_pbe_ddec_charge
 _atom_site_pbe_ddec_spin_density
 _atom_site_pbe_ddec_sum_bond_order
 _atom_site_pbe_magmom
Zn  Zn0  1  0.63847606  0.47262347  0.46904413  1  1.31482  0  0.684563  0.873281  0  2.333304  0
Zn  Zn1  1  0.33655692  0.48901883  0.48600883  1  1.321809  0  0.691471  0.890876  0  2.284112  0
H  H2  1  0.29677786  0.48783166  0.09727526  1  0.067356  0  0.098229  0.107893  0  1.028828  0
H  H3  1  0.77291194  0.98541944  0.21241719  1  0.022049  0  0.092194  0.095362  0  1.001806  0
H  H4  1  0.01316231  0.67854906  0.25037336  1  0.433648  0  0.324004  0.253969  0  0.947442  0
H  H5  1  0.14388872  0.82562248  0.30607970  1  0.067241  0  0.10646  0.114883  0  0.980474  0
H  H6  1  0.26213914  0.72636636  0.22880896  1  0.052695  0  0.099755  0.110632  0  1.003349  0
H  H7  1  0.24686471  0.71313368  0.39079132  1  0.147097  0  0.111586  0.132726  0  1.062874  0
H  H8  1  0.96827287  0.53142174  0.18627424  1  0.44624  0  0.318269  0.248362  0  0.955269  0
H  H9  1  0.88332353  0.34265022  0.16197633  1  0.039396  0  0.098914  0.102791  0  0.991287  0
H  H10  1  0.74657436  0.45469530  0.13756359  1  0.090506  0  0.105854  0.120978  0  1.030531  0
H  H11  1  0.75670045  0.36678511  0.28017048  1  0.121225  0  0.112299  0.129269  0  1.049077  0
H  H12  1  0.89693509  0.33265470  0.93004896  1  -0.001934  0  0.084762  0.065373  0  1.082014  0
H  H13  1  0.28490076  0.50687513  0.87188033  1  0.120044  0  0.101891  0.099569  0  1.041347  0
H  H14  1  0.72147414  0.35841198  0.91576536  1  0.040926  0  0.091664  0.086575  0  1.021234  0
H  H15  1  0.81681422  0.48096560  0.94554455  1  0.029487  0  0.095568  0.094349  0  1.007154  0
H  H16  1  0.74131969  0.26820043  0.63077550  1  0.458139  0  0.296519  0.258393  0  0.968988  0
H  H17  1  0.77449542  0.07182148  0.75451831  1  0.022664  0  0.092836  0.090154  0  1.006082  0
H  H18  1  0.70296307  0.19010981  0.84121877  1  0.047532  0  0.089509  0.088321  0  1.003485  0
H  H19  1  0.87636945  0.14646159  0.84579240  1  0.039919  0  0.093651  0.087975  0  1.036553  0
H  H20  1  0.04676426  0.46626275  0.82448022  1  0.416166  0  0.296056  0.242769  0  0.973307  0
H  H21  1  0.17719028  0.35736680  0.97451282  1  0.048227  0  0.095538  0.100602  0  1.007898  0
H  H22  1  0.24106435  0.25458891  0.86820340  1  0.075765  0  0.105735  0.120302  0  0.976177  0
H  H23  1  0.07495001  0.24429071  0.93352547  1  -0.019448  0  0.070765  0.046789  0  1.060023  0
H  H24  1  0.59006688  0.50533362  0.86082676  1  0.091259  0  0.104882  0.126923  0  1.044033  0
H  H25  1  0.09126186  0.11371094  0.79727931  1  0.038536  0  0.081698  0.065866  0  1.04698  0
H  H26  1  0.19542369  0.07028209  0.66906100  1  0.083581  0  0.102753  0.111013  0  1.00116  0
H  H27  1  0.02137362  0.10667408  0.65173688  1  0.059832  0  0.092431  0.089806  0  1.046881  0
H  H28  1  0.65606942  0.70619740  0.18992282  1  0.100119  0  0.096742  0.107259  0  1.033667  0
H  H29  1  0.54865969  0.79517034  0.08430666  1  0.060502  0  0.097031  0.096334  0  0.987248  0
H  H30  1  0.71518630  0.74885804  0.03423541  1  0.051609  0  0.102248  0.10587  0  0.982131  0
H  H31  1  0.12022892  0.16266430  0.32470678  1  0.049409  0  0.095159  0.099886  0  1.014939  0
H  H32  1  0.28073964  0.12961086  0.25112830  1  0.005881  0  0.088329  0.079291  0  1.001618  0
H  H33  1  0.25433091  0.26107609  0.33651972  1  0.087911  0  0.091889  0.104959  0  1.035786  0
H  H34  1  0.81267122  0.88888358  0.65163065  1  0.379496  0  0.280702  0.213158  0  0.989697  0
H  H35  1  0.30873231  0.86825703  0.47801287  1  0.106702  0  0.107269  0.125036  0  1.027633  0
H  H36  1  0.03641419  0.81877745  0.65445861  1  0.031151  0  0.098136  0.108063  0  0.978497  0
H  H37  1  0.03506492  0.93949591  0.53281770  1  0.038051  0  0.084153  0.08177  0  1.033841  0
H  H38  1  0.03455243  0.78409357  0.50134986  1  0.034869  0  0.088659  0.093665  0  1.036976  0
H  H39  1  0.83120820  0.86274029  0.38815273  1  0.026381  0  0.100324  0.058504  0  0.972033  0
H  H40  1  0.81838041  0.09460998  0.51963436  1  0.065056  0  0.105069  0.06581  0  1.02151  0
H  H41  1  0.83809956  0.19753967  0.33568451  1  0.404235  0  0.279335  0.219439  0  1.013337  0
H  H42  1  0.82922832  0.12446932  0.13883498  1  0.008797  0  0.088442  0.089343  0  1.012007  0
H  H43  1  0.66821801  0.12175913  0.21728666  1  0.036011  0  0.080316  0.077657  0  1.014311  0
C  C44  1  0.50125936  0.24900754  0.45006918  1  1.579424  0  0.214935  0.60996  0  4.164353  0
C  C45  1  0.05295764  0.55438445  0.38947982  1  1.06872  0  0.251508  0.267918  0  3.993605  0
C  C46  1  0.92803013  0.50057029  0.36646384  1  1.072802  0  0.24763  0.262834  0  3.992182  0
C  C47  1  0.47446366  0.47315437  0.70605695  1  1.549085  0  0.209295  0.635481  0  4.168638  0
C  C48  1  0.91781110  0.42433816  0.56449263  1  0.484583  0  0.09561  0.065794  0  4.016216  0
C  C49  1  0.89302538  0.35318614  0.68693220  1  0.833781  0  0.165561  0.21608  0  3.861977  0
C  C50  1  0.06449424  0.35276319  0.69141195  1  0.925466  0  0.185898  0.246425  0  3.843468  0
C  C51  1  0.52678361  0.71154781  0.48885701  1  1.546979  0  0.211903  0.593094  0  4.168295  0
C  C52  1  0.46862593  0.53642700  0.24429267  1  1.581949  0  0.20777  0.533183  0  4.226105  0
C  C53  1  0.38083010  0.52388204  0.04080473  1  -0.029197  0  -0.105722  -0.189205  0  4.038749  0
C  C54  1  0.47547821  0.56445889  0.10704482  1  0.472654  0  0.070085  0.086241  0  3.99737  0
C  C55  1  0.50331978  0.11344534  0.44864011  1  -0.018029  0  -0.025763  -0.178246  0  3.931177  0
C  C56  1  0.38089949  0.51504025  0.91090750  1  -0.036236  0  -0.086118  -0.01475  0  4.019645  0
C  C57  1  0.48893829  0.50199204  0.83297986  1  -0.040282  0  -0.096198  -0.230046  0  3.855264  0
C  C58  1  0.62479288  0.04301173  0.45741002  1  -0.059766  0  -0.016082  0.001568  0  3.905963  0
C  C59  1  0.77303148  0.08413273  0.22009052  1  0.262299  0  -0.153835  -0.211999  0  4.02919  0
C  C60  1  0.19110038  0.73254260  0.30807616  1  0.23852  0  -0.1409  -0.227852  0  3.930538  0
C  C61  1  0.81589947  0.41151583  0.20414776  1  0.22678  0  -0.140574  -0.220428  0  3.889876  0
C  C62  1  0.81804467  0.39928096  0.89584265  1  0.436814  0  -0.155157  -0.172199  0  3.992314  0
C  C63  1  0.79230278  0.16086429  0.78588433  1  0.258456  0  -0.14388  -0.192608  0  3.995259  0
C  C64  1  0.15147586  0.30884016  0.89761061  1  0.257264  0  -0.146647  -0.204174  0  4.025691  0
C  C65  1  0.10929749  0.12901426  0.69723273  1  0.360137  0  -0.148715  -0.166995  0  3.938314  0
C  C66  1  0.38854595  0.04381289  0.45348709  1  0.531242  0  0.092126  0.2388  0  4.016417  0
C  C67  1  0.62885109  0.72229376  0.09411965  1  0.333752  0  -0.141857  -0.182237  0  3.904681  0
C  C68  1  0.22812320  0.16683055  0.33148629  1  0.405127  0  -0.146057  -0.165309  0  3.903276  0
C  C69  1  0.99568197  0.84994780  0.56541120  1  0.28816  0  -0.152364  -0.219033  0  4.009735  0
C  C70  1  0.40016473  0.91588936  0.47399747  1  -0.043057  0  -0.098622  -0.225143  0  3.966006  0
C  C71  1  0.52240133  0.84785516  0.48446592  1  0.015012  0  -0.012233  -0.027633  0  3.977446  0
C  C72  1  0.63507960  0.91593497  0.47526255  1  0.00024  0  -0.018002  -0.02714  0  3.928421  0
C  C73  1  0.78657727  0.90609375  0.46856489  1  0.317909  0  0.011434  0.064445  0  3.86997  0
C  C74  1  0.77725228  0.05231518  0.44480762  1  0.338988  0  0.002654  0.030388  0  3.831969  0
C  C75  1  0.04902375  0.44202883  0.57461452  1  0.44959  0  0.095627  0.058502  0  3.9164  0
N  N76  1  0.12299136  0.51063290  0.48749629  1  -1.183484  0  -0.308719  -0.2997  0  3.359352  0
N  N77  1  0.85232071  0.44904940  0.45925179  1  -1.237816  0  -0.316123  -0.294313  0  3.415371  0
N  N78  1  0.83879255  0.10569546  0.33028466  1  -1.063158  0  -0.495839  -0.357076  0  3.442248  0
N  N79  1  0.08813693  0.64679261  0.30498826  1  -1.207864  0  -0.420837  -0.272039  0  3.622172  0
N  N80  1  0.89418063  0.50392055  0.24752158  1  -1.199823  0  -0.42893  -0.284328  0  3.558415  0
N  N81  1  0.82425177  0.24582697  0.67946760  1  -1.155571  0  -0.477626  -0.37264  0  3.505666  0
N  N82  1  0.11146178  0.39766051  0.79779629  1  -1.084629  0  -0.482547  -0.369304  0  3.521987  0
N  N83  1  0.85062231  0.84921102  0.57587320  1  -1.08668  0  -0.4908  -0.337786  0  3.460358  0
O  O84  1  0.61514994  0.29594910  0.43319106  1  -1.175594  0  -0.321794  -0.572109  0  2.351625  0
O  O85  1  0.14458575  0.25072242  0.65794385  1  -1.04164  0  -0.206367  -0.193085  0  2.529699  0
O  O86  1  0.58773360  0.61222520  0.05036184  1  -1.07729  0  -0.18881  -0.146958  0  2.588407  0
O  O87  1  0.25966257  0.09050265  0.44105071  1  -1.076224  0  -0.195651  -0.176509  0  2.584747  0
O  O88  1  0.39115955  0.30677308  0.47373822  1  -1.163794  0  -0.30199  -0.533627  0  2.391846  0
O  O89  1  0.58070538  0.43523882  0.64746354  1  -1.180213  0  -0.327855  -0.573573  0  2.354606  0
O  O90  1  0.35846798  0.48635417  0.66474728  1  -1.145137  0  -0.312807  -0.531393  0  2.37435  0
O  O91  1  0.64121098  0.65458793  0.49113186  1  -1.142878  0  -0.311827  -0.525532  0  2.291739  0
O  O92  1  0.41571089  0.66385634  0.48500669  1  -1.188918  0  -0.316128  -0.570679  0  2.38354  0
O  O93  1  0.57847644  0.53630877  0.29497397  1  -1.174211  0  -0.305052  -0.535391  0  2.439741  0
O  O94  1  0.35656244  0.51059458  0.29703119  1  -1.168867  0  -0.317171  -0.547089  0  2.393673  0
O  O95  1  0.83872909  0.44054383  0.76973715  1  -1.016332  0  -0.230097  -0.244426  0  2.507697  0
