# generated using pymatgen
data_CuH5C8NO7
_symmetry_space_group_name_H-M   'P 1'
_cell_length_a   5.90201174
_cell_length_b   18.88996451
_cell_length_c   18.88569222
_cell_angle_alpha   119.96719042
_cell_angle_beta   89.96601168
_cell_angle_gamma   90.02101841
_symmetry_Int_Tables_number   1
_chemical_formula_structural   CuH5C8NO7
_chemical_formula_sum   'Cu6 H30 C48 N6 O42'
_cell_volume   1824.05597152
_cell_formula_units_Z   6
loop_
 _symmetry_equiv_pos_site_id
 _symmetry_equiv_pos_as_xyz
  1  'x, y, z'
loop_
 _atom_site_type_symbol
 _atom_site_label
 _atom_site_symmetry_multiplicity
 _atom_site_fract_x
 _atom_site_fract_y
 _atom_site_fract_z
 _atom_site_occupancy
 _atom_site_pbe_bader_charge
 _atom_site_pbe_bader_spin_density
 _atom_site_pbe_cm5_charge
 _atom_site_pbe_ddec_charge
 _atom_site_pbe_ddec_spin_density
 _atom_site_pbe_ddec_sum_bond_order
 _atom_site_pbe_magmom
Cu  Cu0  1  0.82135624  0.52139359  0.47815378  1  1.080524  -0.535923  0.693333  0.837866  -0.692398  2.230867  -0.533
Cu  Cu1  1  0.82123651  0.95681664  0.47868468  1  1.084133  -0.535846  0.693326  0.837931  -0.692257  2.229185  -0.533
Cu  Cu2  1  0.82140055  0.52178838  0.04322028  1  1.082001  -0.536034  0.69332  0.837905  -0.692567  2.230513  -0.533
Cu  Cu3  1  0.17873530  0.47867976  0.95671589  1  1.083946  0.536108  0.693167  0.838114  0.692546  2.230068  0.533
Cu  Cu4  1  0.17854536  0.47811861  0.52131398  1  1.078602  0.535789  0.693215  0.837427  0.692268  2.230758  0.533
Cu  Cu5  1  0.17856940  0.04316927  0.52178299  1  1.082072  0.535751  0.693508  0.838067  0.69228  2.229293  0.533
H  H6  1  0.67460852  0.63338023  0.44738269  1  0.603802  4.1e-05  0.302193  0.388732  5.7e-05  0.922908  0.0
H  H7  1  0.67524704  0.81419382  0.36665694  1  0.600278  4.1e-05  0.301935  0.388471  5.7e-05  0.923352  0.0
H  H8  1  0.67455222  0.55251672  0.18594897  1  0.60052  4e-05  0.302358  0.388487  5.8e-05  0.923056  0.0
H  H9  1  0.32395781  0.36680618  0.81429233  1  0.601537  -4.2e-05  0.302056  0.388109  -5.8e-05  0.923904  0.0
H  H10  1  0.32227349  0.44751452  0.63328425  1  0.605167  -4.1e-05  0.301785  0.388509  -5.9e-05  0.923662  0.0
H  H11  1  0.32307590  0.18587850  0.55254276  1  0.607957  -4e-05  0.301997  0.388485  -5.8e-05  0.923573  0.0
H  H12  1  0.35107063  0.36521608  0.55396531  1  0.596999  -3.1e-05  0.304289  0.388564  -4.3e-05  0.91645  0.0
H  H13  1  0.34982477  0.18838491  0.63471600  1  0.597893  -3e-05  0.304184  0.388528  -4.4e-05  0.916834  0.0
H  H14  1  0.35188977  0.44625703  0.81142461  1  0.593836  -3.1e-05  0.30467  0.389094  -4.4e-05  0.915378  0.0
H  H15  1  0.65074383  0.63457356  0.18805228  1  0.59829  3.1e-05  0.304356  0.388752  4.5e-05  0.91712  0.0
H  H16  1  0.65174640  0.55341991  0.36533937  1  0.630837  2.9e-05  0.304281  0.38889  4.6e-05  0.916289  0.0
H  H17  1  0.65123131  0.81176917  0.44645959  1  0.587024  3.2e-05  0.303969  0.38842  4.5e-05  0.917091  0.0
H  H18  1  0.44853134  0.29573508  0.36357692  1  0.152659  -0.000165  0.121531  0.137999  -0.000172  1.016989  0.0
H  H19  1  0.44862265  0.06788768  0.70448202  1  0.17725  -0.000165  0.121174  0.137931  -0.000173  1.016394  0.0
H  H20  1  0.44842296  0.63654240  0.93223637  1  0.16287  -0.000165  0.121397  0.138115  -0.000172  1.016662  0.0
H  H21  1  0.55133923  0.70440167  0.06777792  1  0.177649  0.000164  0.121271  0.137882  0.000172  1.016837  0.0
H  H22  1  0.55135209  0.36336684  0.29554434  1  0.148401  0.000166  0.12121  0.137883  0.000173  1.016486  0.0
H  H23  1  0.55118854  0.93218650  0.63656870  1  0.161579  0.000166  0.121327  0.137979  0.000173  1.016429  0.0
H  H24  1  0.55097494  0.70413885  0.63660080  1  0.170058  0.00016  0.121492  0.137808  0.000168  1.016734  0.0
H  H25  1  0.55078762  0.93247191  0.29566588  1  0.190737  0.000161  0.121427  0.137754  0.000169  1.016293  0.0
H  H26  1  0.55108395  0.36321801  0.06736900  1  0.184721  0.000155  0.121317  0.137535  0.000167  1.01678  0.0
H  H27  1  0.44930900  0.29570742  0.93261105  1  0.148437  -0.000169  0.121437  0.137796  -0.000168  1.016444  0.0
H  H28  1  0.44920381  0.63683907  0.70428113  1  0.173414  -0.000161  0.121427  0.137767  -0.000168  1.01644  0.0
H  H29  1  0.44917534  0.06751597  0.36326522  1  0.184616  -0.000156  0.121441  0.137724  -0.000169  1.016499  0.0
H  H30  1  0.98614973  0.24191680  0.48388336  1  0.144527  0.00066  0.108513  0.112976  0.00061  1.008067  0.0
H  H31  1  0.98659371  0.24192777  0.75815733  1  0.139584  0.000673  0.108516  0.113196  0.00061  1.007772  0.0
H  H32  1  0.98632761  0.51630548  0.75811353  1  0.103271  0.000681  0.108608  0.113337  0.00061  1.007733  0.0
H  H33  1  0.01339918  0.75815064  0.24193302  1  0.139583  -0.000673  0.108656  0.113317  -0.00061  1.007851  0.0
H  H34  1  0.01379597  0.48372614  0.24177202  1  0.145485  -0.00066  0.108579  0.113217  -0.00061  1.00795  0.0
H  H35  1  0.01380752  0.75799283  0.51611258  1  0.144767  -0.000661  0.108498  0.112994  -0.00061  1.008038  0.0
C  C36  1  0.83914513  0.35815986  0.45229061  1  1.564714  -0.000531  0.224362  0.596177  -0.000571  4.125514  -0.001
C  C37  1  0.83938927  0.09411182  0.64195692  1  1.573642  -0.000552  0.224851  0.596785  -0.000569  4.124748  -0.001
C  C38  1  0.83920400  0.54786140  0.90595006  1  1.56445  -0.000536  0.224501  0.596452  -0.000565  4.125844  -0.001
C  C39  1  0.16056250  0.64193740  0.09407083  1  1.573926  0.000555  0.224836  0.59682  0.00057  4.125575  0.001
C  C40  1  0.16077721  0.45211250  0.35802676  1  1.562263  0.000525  0.225008  0.597102  0.000562  4.1256  0.001
C  C41  1  0.16066849  0.90591063  0.54782430  1  1.563282  0.000533  0.224847  0.596713  0.000566  4.12499  0.001
C  C42  1  0.16124929  0.64155026  0.54751858  1  1.590567  0.000475  0.226126  0.600053  0.000545  4.122506  0.001
C  C43  1  0.16095244  0.90600474  0.35832776  1  1.572251  0.000505  0.225704  0.599598  0.000547  4.122574  0.001
C  C44  1  0.16126204  0.45230577  0.09389113  1  1.588215  0.000493  0.225475  0.599139  0.000543  4.123072  0.001
C  C45  1  0.83908155  0.35833751  0.90604025  1  1.573076  -0.000503  0.226056  0.599669  -0.000547  4.122611  -0.001
C  C46  1  0.83884999  0.54771793  0.64164721  1  1.591102  -0.00046  0.225862  0.599588  -0.000541  4.122949  -0.001
C  C47  1  0.83879544  0.09398734  0.45236213  1  1.591322  -0.000475  0.225438  0.599651  -0.000542  4.122329  -0.001
C  C48  1  0.53072930  0.25485362  0.38055086  1  0.062634  0.001161  -0.056164  -0.106873  0.000743  3.874816  0.001
C  C49  1  0.53093401  0.12570898  0.74533692  1  -0.019784  0.001184  -0.055877  -0.106818  0.000743  3.874143  0.001
C  C50  1  0.53073628  0.61960423  0.87439076  1  0.020878  0.001174  -0.055635  -0.106427  0.000743  3.87453  0.001
C  C51  1  0.46905204  0.74525850  0.12562729  1  -0.023938  -0.001186  -0.055648  -0.106294  -0.000742  3.87456  -0.001
C  C52  1  0.46916993  0.38035075  0.25466702  1  0.063875  -0.001163  -0.055725  -0.106279  -0.000741  3.874047  -0.001
C  C53  1  0.46906065  0.87430798  0.61954137  1  0.023147  -0.001171  -0.055923  -0.10644  -0.000742  3.874443  -0.001
C  C54  1  0.46891426  0.74500599  0.61957962  1  0.045595  -0.001133  -0.055005  -0.103086  -0.000725  3.869125  -0.001
C  C55  1  0.46870662  0.87459996  0.25482274  1  -0.035975  -0.001158  -0.054621  -0.103129  -0.000724  3.869292  -0.001
C  C56  1  0.46894855  0.38021822  0.12525937  1  0.00803  -0.001138  -0.054385  -0.102265  -0.000726  3.867789  -0.001
C  C57  1  0.53139464  0.25486542  0.87471907  1  0.005516  0.001164  -0.054423  -0.102368  0.000723  3.8688  0.001
C  C58  1  0.53123515  0.61982049  0.74515625  1  0.042094  0.001132  -0.054512  -0.102649  0.000724  3.86838  0.001
C  C59  1  0.53117444  0.12542528  0.38033059  1  0.003006  0.001136  -0.054756  -0.10259  0.000724  3.869181  0.001
C  C60  1  0.43694746  0.17875750  0.35769872  1  0.184298  0.001122  0.078751  0.06348  0.00081  3.92765  0.001
C  C61  1  0.43707225  0.17893210  0.82142278  1  0.245451  0.001101  0.078861  0.063611  0.00081  3.927848  0.001
C  C62  1  0.43693685  0.64244076  0.82113143  1  0.170622  0.001121  0.078681  0.063466  0.000809  3.928289  0.001
C  C63  1  0.56298156  0.82130454  0.17885344  1  0.245865  -0.0011  0.078708  0.063703  -0.00081  3.927897  -0.001
C  C64  1  0.56310050  0.35755491  0.17858518  1  0.173685  -0.001122  0.078749  0.06286  -0.000809  3.928551  -0.001
C  C65  1  0.56299777  0.82101817  0.64230591  1  0.171957  -0.001122  0.078913  0.063265  -0.00081  3.927394  -0.001
C  C66  1  0.73087058  0.27726421  0.42627553  1  -0.008134  -0.001032  -0.00405  -0.006443  -0.000765  3.936967  -0.001
C  C67  1  0.73122267  0.14897984  0.72288304  1  -0.04983  -0.001122  -0.004462  -0.006793  -0.000768  3.936927  -0.001
C  C68  1  0.73097615  0.57391833  0.85109365  1  0.007339  -0.001055  -0.004564  -0.007371  -0.000762  3.937545  -0.001
C  C69  1  0.26876994  0.72283748  0.14893531  1  -0.050289  0.001136  -0.004451  -0.006853  0.000775  3.936476  0.001
C  C70  1  0.26899054  0.42606627  0.27709735  1  -0.032928  0.00107  -0.004664  -0.006935  0.000774  3.936967  0.001
C  C71  1  0.26892689  0.85101137  0.57381365  1  0.007829  0.001075  -0.004169  -0.006431  0.000776  3.936509  0.001
C  C72  1  0.26900350  0.72254146  0.57375413  1  -0.031801  0.001109  -0.003479  -0.004907  0.000807  3.936217  0.001
C  C73  1  0.26867197  0.85125243  0.27731678  1  -0.047412  0.001192  -0.003509  -0.004703  0.000807  3.935247  0.001
C  C74  1  0.26897813  0.42603424  0.14862395  1  -0.017788  0.001133  -0.003423  -0.00422  0.00081  3.933842  0.001
C  C75  1  0.73140072  0.27733498  0.85133124  1  -0.049547  -0.001196  -0.003637  -0.004907  -0.000811  3.936153  -0.001
C  C76  1  0.73118744  0.57400195  0.72268000  1  -0.061749  -0.001163  -0.003473  -0.004217  -0.000818  3.935804  -0.001
C  C77  1  0.73107770  0.14877380  0.42616014  1  -0.015898  -0.001144  -0.003222  -0.005047  -0.00082  3.936131  -0.001
C  C78  1  0.83052538  0.22409767  0.44839403  1  -0.041176  -0.001486  -0.062683  -0.080202  -0.000883  3.894997  -0.002
C  C79  1  0.83092747  0.22424343  0.77600952  1  0.081337  -0.001405  -0.062592  -0.080648  -0.000885  3.894016  -0.002
C  C80  1  0.83067226  0.55180010  0.77579042  1  0.035276  -0.001479  -0.063006  -0.081249  -0.000882  3.894975  -0.002
C  C81  1  0.16908739  0.77596817  0.22423136  1  0.082403  0.001403  -0.062759  -0.080751  0.000885  3.893536  0.002
C  C82  1  0.16941762  0.44822200  0.22394948  1  -0.007764  0.001456  -0.062841  -0.081042  0.000882  3.893394  0.002
C  C83  1  0.16942325  0.77568083  0.55160670  1  -0.041003  0.001488  -0.062774  -0.08059  0.000885  3.894395  0.002
N  N84  1  0.22725623  0.15383429  0.30786316  1  0.394998  0.000308  0.058919  0.508034  0.000208  4.209874  0.0
N  N85  1  0.22724615  0.15404019  0.84637960  1  0.402286  0.000307  0.059221  0.507963  0.000207  4.209007  0.0
N  N86  1  0.22714668  0.69223193  0.84601794  1  0.408292  0.000307  0.059327  0.508436  0.000208  4.208798  0.0
N  N87  1  0.77284660  0.84621024  0.15393479  1  0.399288  -0.000307  0.05923  0.508296  -0.000208  4.208647  0.0
N  N88  1  0.77285850  0.30774251  0.15366163  1  0.402705  -0.000308  0.059555  0.508467  -0.000208  4.208983  0.0
N  N89  1  0.77268220  0.84591732  0.69214556  1  0.411238  -0.000307  0.0593  0.508022  -0.000208  4.209073  0.0
O  O90  1  0.72389144  0.40890413  0.44154917  1  -1.094142  -0.085718  -0.299119  -0.50385  -0.055789  2.410242  -0.077
O  O91  1  0.72397462  0.03267968  0.59123894  1  -1.099981  -0.085757  -0.299455  -0.504734  -0.055839  2.409833  -0.077
O  O92  1  0.72391058  0.55854723  0.96744354  1  -1.095589  -0.085686  -0.299299  -0.504269  -0.055771  2.410875  -0.077
O  O93  1  0.27586304  0.59123828  0.03257141  1  -1.099857  0.085709  -0.299194  -0.504619  0.055808  2.410824  0.077
O  O94  1  0.27597741  0.44135453  0.40876764  1  -1.091827  0.085783  -0.299265  -0.504491  0.055832  2.411516  0.077
O  O95  1  0.27597706  0.96738401  0.55852697  1  -1.093334  0.085818  -0.2993  -0.504298  0.055863  2.410545  0.077
O  O96  1  0.27434150  0.59124589  0.55952182  1  -1.0944  0.085312  -0.298373  -0.503576  0.055529  2.407694  0.077
O  O97  1  0.27414903  0.96828354  0.40859322  1  -1.099104  0.085332  -0.298149  -0.503307  0.055567  2.407093  0.077
O  O98  1  0.27436607  0.44033201  0.03156593  1  -1.093434  0.085216  -0.298194  -0.503451  0.055498  2.408592  0.077
O  O99  1  0.72600745  0.40858887  0.96838385  1  -1.099226  -0.085318  -0.298001  -0.502991  -0.055553  2.407542  -0.077
O  O100  1  0.72579052  0.55974577  0.59135859  1  -1.095289  -0.085343  -0.298255  -0.503175  -0.055553  2.408244  -0.077
O  O101  1  0.72563271  0.03168678  0.44037601  1  -1.096692  -0.085392  -0.29808  -0.503225  -0.055588  2.40739  -0.077
O  O102  1  0.03707777  0.36958943  0.48349963  1  -1.115041  0.089074  -0.313928  -0.540612  0.058108  2.378963  0.08
O  O103  1  0.03740465  0.11382781  0.63043441  1  -1.116945  0.089079  -0.313766  -0.540396  0.058119  2.378855  0.08
O  O104  1  0.03713579  0.51664502  0.88612797  1  -1.116555  0.088967  -0.314053  -0.540599  0.058059  2.379222  0.08
O  O105  1  0.96263321  0.63043264  0.11386850  1  -1.117125  -0.088962  -0.313861  -0.540625  -0.058036  2.379182  -0.08
O  O106  1  0.96289213  0.48339135  0.36952117  1  -1.116205  -0.088864  -0.313905  -0.540713  -0.057989  2.379268  -0.08
O  O107  1  0.96267930  0.88617129  0.51664465  1  -1.117851  -0.088844  -0.314008  -0.540824  -0.057987  2.378922  -0.08
O  O108  1  0.96500885  0.62948322  0.51484528  1  -1.118923  -0.087673  -0.314142  -0.543582  -0.057181  2.383817  -0.079
O  O109  1  0.96465504  0.88544393  0.37049027  1  -1.120834  -0.087679  -0.313974  -0.54367  -0.0572  2.384081  -0.079
O  O110  1  0.96503527  0.48501822  0.11455713  1  -1.120627  -0.087633  -0.313717  -0.543056  -0.057166  2.38378  -0.079
O  O111  1  0.03524721  0.37049702  0.88537336  1  -1.121623  0.087611  -0.314165  -0.54372  0.057156  2.383614  0.079
O  O112  1  0.03502642  0.51494515  0.62949603  1  -1.119464  0.087561  -0.313603  -0.543173  0.057121  2.384348  0.079
O  O113  1  0.03509092  0.11454532  0.48501881  1  -1.120678  0.087523  -0.313751  -0.543531  0.057108  2.384251  0.079
O  O114  1  0.57193938  0.58750922  0.41660036  1  -1.215732  0.001354  -0.584418  -0.743576  0.000771  1.971842  0.0
O  O115  1  0.57181067  0.82892761  0.41229550  1  -1.168805  0.001348  -0.584494  -0.743159  0.000769  1.971695  0.0
O  O116  1  0.57157993  0.58318665  0.17081455  1  -1.179842  0.001352  -0.584535  -0.742946  0.000771  1.973416  0.0
O  O117  1  0.42855351  0.41217039  0.82927483  1  -1.176458  -0.001353  -0.584085  -0.742709  -0.000771  1.973524  0.0
O  O118  1  0.42797402  0.41702248  0.58832138  1  -1.183715  -0.001343  -0.584774  -0.743605  -0.000766  1.970619  0.0
O  O119  1  0.42798015  0.17132512  0.58317076  1  -1.18747  -0.001344  -0.58524  -0.743872  -0.000766  1.970138  0.0
O  O120  1  0.14571996  0.20261535  0.28904711  1  -0.440228  0.000366  -0.124095  -0.317404  0.00024  1.916671  0.0
O  O121  1  0.14556665  0.08649231  0.79761906  1  -0.445442  0.000363  -0.124487  -0.317612  0.000239  1.916105  0.0
O  O122  1  0.14550189  0.71104846  0.91361667  1  -0.449419  0.000365  -0.124385  -0.317683  0.00024  1.91638  0.0
O  O123  1  0.85438417  0.79747783  0.08632728  1  -0.443939  -0.000367  -0.124552  -0.31786  -0.000241  1.915922  0.0
O  O124  1  0.85435720  0.28891796  0.20244353  1  -0.444569  -0.000365  -0.124592  -0.317784  -0.00024  1.916281  0.0
O  O125  1  0.85419307  0.91352249  0.71100334  1  -0.44963  -0.000365  -0.124425  -0.317437  -0.00024  1.916811  0.0
O  O126  1  0.85416256  0.79709939  0.71092547  1  -0.44241  -0.000379  -0.124114  -0.317536  -0.000248  1.916481  0.0
O  O127  1  0.85447353  0.91375826  0.20273028  1  -0.445505  -0.000376  -0.124051  -0.317707  -0.000247  1.916497  0.0
O  O128  1  0.85441184  0.28894869  0.08605380  1  -0.45208  -0.000378  -0.124344  -0.317751  -0.000248  1.916815  0.0
O  O129  1  0.14581702  0.20279578  0.91400411  1  -0.446662  0.00038  -0.124091  -0.317671  0.000249  1.916739  0.0
O  O130  1  0.14569374  0.71101719  0.79719807  1  -0.44129  0.000378  -0.124292  -0.317908  0.000247  1.916569  0.0
O  O131  1  0.14578936  0.08623100  0.28904389  1  -0.450529  0.000378  -0.124073  -0.317678  0.000248  1.917188  0.0
