# generated using pymatgen
data_UH5C10N2Cl2O7
_symmetry_space_group_name_H-M   'P 1'
_cell_length_a   8.08015824
_cell_length_b   8.56098994
_cell_length_c   12.17127165
_cell_angle_alpha   70.68528929
_cell_angle_beta   72.23003951
_cell_angle_gamma   76.12344543
_symmetry_Int_Tables_number   1
_chemical_formula_structural   UH5C10N2Cl2O7
_chemical_formula_sum   'U2 H10 C20 N4 Cl4 O14'
_cell_volume   747.55143371
_cell_formula_units_Z   2
loop_
 _symmetry_equiv_pos_site_id
 _symmetry_equiv_pos_as_xyz
  1  'x, y, z'
loop_
 _atom_site_type_symbol
 _atom_site_label
 _atom_site_symmetry_multiplicity
 _atom_site_fract_x
 _atom_site_fract_y
 _atom_site_fract_z
 _atom_site_occupancy
 _atom_site_hle17_bader_spin_density
 _atom_site_hle17_ddec_charge
 _atom_site_hle17_ddec_spin_density
 _atom_site_hle17_ddec_sum_bond_order
 _atom_site_hle17_magmom
 _atom_site_hse06_10hf_bader_spin_density
 _atom_site_hse06_10hf_ddec_charge
 _atom_site_hse06_10hf_ddec_spin_density
 _atom_site_hse06_10hf_ddec_sum_bond_order
 _atom_site_hse06_10hf_magmom
 _atom_site_hse06_bader_spin_density
 _atom_site_hse06_ddec_charge
 _atom_site_hse06_ddec_spin_density
 _atom_site_hse06_ddec_sum_bond_order
 _atom_site_hse06_magmom
 _atom_site_pbe_bader_spin_density
 _atom_site_pbe_cm5_charge
 _atom_site_pbe_ddec_charge
 _atom_site_pbe_ddec_spin_density
 _atom_site_pbe_ddec_sum_bond_order
 _atom_site_pbe_magmom
U  U0  1  0.35624460  0.33186182  0.24249347  1  0  2.441863  0  4.156084  0  0  2.511859  0  4.801561  0  0  2.617617  0  4.76672  0  0  2.160625  2.435709  0  4.82746  0
U  U1  1  0.64374944  0.66812782  0.75751603  1  0  2.441864  0  4.156072  0  0  2.511875  0  4.801621  0  0  2.617666  0  4.766764  0  0  2.160616  2.435771  0  4.827428  0
H  H2  1  0.69665551  0.09448370  0.22754267  1  0  0.432901  0  0.836024  0  0  0.41293  0  0.895747  0  0  0.424928  0  0.878065  0  0  0.317141  0.404193  0  0.908579  0
H  H3  1  0.30335184  0.90551260  0.77245206  1  0  0.43283  0  0.836117  0  0  0.412879  0  0.895827  0  0  0.424864  0  0.878158  0  0  0.317124  0.404146  0  0.908658  0
H  H4  1  0.67140310  0.12147011  0.10139018  1  0  0.389293  0  0.940341  0  0  0.350684  0  1.017984  0  0  0.36432  0  0.998945  0  0  0.288127  0.341079  0  1.031328  0
H  H5  1  0.32859686  0.87852361  0.89860822  1  0  0.389402  0  0.940214  0  0  0.350772  0  1.017883  0  0  0.364406  0  0.998846  0  0  0.288183  0.341171  0  1.031223  0
H  H6  1  0.99895415  0.01924920  0.31367916  1  0  0.082598  0  0.929767  0  0  0.089129  0  0.995093  0  0  0.091685  0  0.99219  0  0  0.120631  0.087313  0  0.997037  0
H  H7  1  0.00106038  0.98075087  0.68631333  1  0  0.082558  0  0.929832  0  0  0.089043  0  0.995183  0  0  0.091599  0  0.992279  0  0  0.120612  0.08723  0  0.997138  0
H  H8  1  0.31494156  0.87933794  0.27723032  1  0  0.123023  0  0.946607  0  0  0.131815  0  1.005918  0  0  0.134831  0  1.0057  0  0  0.118808  0.129612  0  1.006342  0
H  H9  1  0.68507421  0.12065473  0.72276024  1  0  0.123075  0  0.946543  0  0  0.131864  0  1.00587  0  0  0.134881  0  1.005645  0  0  0.118834  0.129639  0  1.006333  0
H  H10  1  0.44803724  0.80604739  0.07838213  1  0  0.09107  0  0.956081  0  0  0.096748  0  1.023706  0  0  0.100125  0  1.019807  0  0  0.121314  0.094304  0  1.026494  0
H  H11  1  0.55197506  0.19394277  0.92160966  1  0  0.09105  0  0.956106  0  0  0.096789  0  1.023653  0  0  0.10016  0  1.019768  0  0  0.121297  0.094337  0  1.026438  0
C  C12  1  0.15561993  0.39114693  0.02966543  1  0  0.309678  0  3.803235  0  0  0.289842  0  4.084261  0  0  0.313393  0  4.090425  0  0  0.130993  0.273804  0  4.079205  0
C  C13  1  0.84438980  0.60885751  0.97034514  1  0  0.309603  0  3.803254  0  0  0.289675  0  4.084412  0  0  0.313307  0  4.090473  0  0  0.130984  0.273641  0  4.07935  0
C  C14  1  0.96821655  0.50173085  0.89094393  1  0  0.300448  0  3.807434  0  0  0.283166  0  4.086891  0  0  0.30672  0  4.09233  0  0  0.129199  0.266958  0  4.082638  0
C  C15  1  0.03179257  0.49827738  0.10906511  1  0  0.300385  0  3.80759  0  0  0.283048  0  4.087062  0  0  0.30664  0  4.09249  0  0  0.129179  0.266835  0  4.082805  0
C  C16  1  0.12275281  0.40205527  0.92043356  1  0  -0.117169  0  3.757455  0  0  -0.131701  0  4.055551  0  0  -0.149083  0  4.07898  0  0  -0.023556  -0.119471  0  4.03897  0
C  C17  1  0.87724771  0.59795821  0.07956866  1  0  -0.117082  0  3.757352  0  0  -0.131541  0  4.055424  0  0  -0.148953  0  4.078824  0  0  -0.023464  -0.119311  0  4.038841  0
C  C18  1  0.37047914  0.50694513  0.44012070  1  0  0.293479  0  3.820753  0  0  0.274866  0  4.104386  0  0  0.298285  0  4.110542  0  0  0.125589  0.258739  0  4.09964  0
C  C19  1  0.62949888  0.49306373  0.55987467  1  0  0.293549  0  3.820302  0  0  0.274931  0  4.103983  0  0  0.298352  0  4.110132  0  0  0.125622  0.258812  0  4.099248  0
C  C20  1  0.45640529  0.61334689  0.57176466  1  0  0.292963  0  3.83588  0  0  0.273749  0  4.120224  0  0  0.297395  0  4.126615  0  0  0.123343  0.25754  0  4.115195  0
C  C21  1  0.54357183  0.38665942  0.42823226  1  0  0.292958  0  3.835995  0  0  0.27381  0  4.120199  0  0  0.297457  0  4.126576  0  0  0.123391  0.257613  0  4.115159  0
C  C22  1  0.33190615  0.61637943  0.51176889  1  0  -0.123641  0  3.797644  0  0  -0.141001  0  4.10043  0  0  -0.158883  0  4.124511  0  0  -0.02636  -0.12843  0  4.083439  0
C  C23  1  0.66808338  0.38363793  0.48823056  1  0  -0.123615  0  3.797499  0  0  -0.140954  0  4.10022  0  0  -0.158831  0  4.124287  0  0  -0.026365  -0.128399  0  4.083243  0
C  C24  1  0.05095848  0.97910592  0.04665529  1  0  0.300942  0  3.751347  0  0  0.274765  0  4.020771  0  0  0.287037  0  4.03564  0  0  0.252601  0.266486  0  4.010842  0
C  C25  1  0.94904971  0.02088551  0.95333622  1  0  0.301067  0  3.751302  0  0  0.274875  0  4.020759  0  0  0.287143  0  4.035632  0  0  0.252673  0.266611  0  4.010819  0
C  C26  1  0.06491307  0.98349901  0.23084506  1  0  0.190055  0  3.666297  0  0  0.157927  0  3.92682  0  0  0.167661  0  3.940868  0  0  0.08175  0.151728  0  3.917164  0
C  C27  1  0.93510988  0.01649744  0.76914324  1  0  0.190029  0  3.666465  0  0  0.158056  0  3.926788  0  0  0.167786  0  3.940836  0  0  0.081809  0.151862  0  3.917152  0
C  C28  1  0.23944349  0.90545822  0.21129955  1  0  -0.133139  0  3.669327  0  0  -0.149176  0  3.927414  0  0  -0.158526  0  3.947809  0  0  -0.058287  -0.143191  0  3.913767  0
C  C29  1  0.76057193  0.09454445  0.78868973  1  0  -0.133161  0  3.669246  0  0  -0.149301  0  3.927376  0  0  -0.15864  0  3.947755  0  0  -0.058277  -0.143311  0  3.913774  0
C  C30  1  0.31246044  0.86684404  0.10264037  1  0  0.198016  0  3.624713  0  0  0.16028  0  3.879742  0  0  0.169964  0  3.893889  0  0  0.08469  0.154156  0  3.869943  0
C  C31  1  0.68754499  0.13315604  0.89735310  1  0  0.198118  0  3.624431  0  0  0.160388  0  3.879428  0  0  0.170067  0  3.89357  0  0  0.084796  0.15428  0  3.869617  0
N  N32  1  0.97045517  0.02081825  0.14951040  1  0  -0.371925  0  3.070154  0  0  -0.32928  0  3.329898  0  0  -0.344942  0  3.343563  0  0  -0.298071  -0.318953  0  3.320744  0
N  N33  1  0.02955067  0.97917927  0.85048519  1  0  -0.371863  0  3.07036  0  0  -0.329261  0  3.330067  0  0  -0.344924  0  3.34373  0  0  -0.298062  -0.318933  0  3.320917  0
N  N34  1  0.21833259  0.90295567  0.02124222  1  0  -0.348341  0  3.162625  0  0  -0.284991  0  3.39851  0  0  -0.303276  0  3.413229  0  0  -0.28988  -0.272613  0  3.388423  0
N  N35  1  0.78168099  0.09703444  0.97875098  1  0  -0.348311  0  3.162296  0  0  -0.285011  0  3.398238  0  0  -0.303298  0  3.412961  0  0  -0.289968  -0.272625  0  3.388131  0
Cl  Cl36  1  0.26130229  0.28874109  0.82571667  1  0  0.005147  0  1.422226  0  0  0.017974  0  1.66171  0  0  0.016537  0  1.659299  0  0  0.039854  0.019796  0  1.663254  0
Cl  Cl37  1  0.73869740  0.71125334  0.17429724  1  0  0.005104  0  1.422184  0  0  0.017921  0  1.661638  0  0  0.016486  0  1.659233  0  0  0.039794  0.019739  0  1.663176  0
Cl  Cl38  1  0.13420056  0.74623262  0.52974325  1  0  0.027465  0  1.445983  0  0  0.031106  0  1.694412  0  0  0.030739  0  1.687893  0  0  0.054423  0.032766  0  1.6987  0
Cl  Cl39  1  0.86578483  0.25377867  0.47025259  1  0  0.027463  0  1.445974  0  0  0.031092  0  1.694378  0  0  0.030725  0  1.687859  0  0  0.054421  0.032759  0  1.69867  0
O  O40  1  0.46755640  0.49897392  0.13384045  1  0  -0.699426  0  1.620637  0  0  -0.705486  0  1.912031  0  0  -0.727802  0  1.903223  0  0  -0.75799  -0.692581  0  1.919375  0
O  O41  1  0.53244675  0.50101578  0.86616559  1  0  -0.699408  0  1.620721  0  0  -0.705504  0  1.912163  0  0  -0.727832  0  1.90335  0  0  -0.758036  -0.692587  0  1.919471  0
O  O42  1  0.24629359  0.16366582  0.35219439  1  0  -0.722681  0  1.587323  0  0  -0.727499  0  1.873095  0  0  -0.748797  0  1.861082  0  0  -0.768787  -0.715503  0  1.882769  0
O  O43  1  0.75369832  0.83632876  0.64781611  1  0  -0.722733  0  1.587224  0  0  -0.727561  0  1.872995  0  0  -0.748874  0  1.860975  0  0  -0.768771  -0.715548  0  1.88262  0
O  O44  1  0.28176812  0.29668209  0.07283362  1  0  -0.518583  0  2.064413  0  0  -0.503824  0  2.3221  0  0  -0.534548  0  2.323761  0  0  -0.316649  -0.481298  0  2.319819  0
O  O45  1  0.71821950  0.70331504  0.92717553  1  0  -0.518627  0  2.064106  0  0  -0.503836  0  2.321817  0  0  -0.534599  0  2.323447  0  0  -0.316693  -0.481304  0  2.319527  0
O  O46  1  0.91838174  0.51158321  0.79920123  1  0  -0.525931  0  2.098862  0  0  -0.514267  0  2.355635  0  0  -0.542424  0  2.35452  0  0  -0.324334  -0.493905  0  2.35552  0
O  O47  1  0.08161695  0.48841774  0.20080408  1  0  -0.525826  0  2.099248  0  0  -0.514153  0  2.356045  0  0  -0.542319  0  2.354938  0  0  -0.32426  -0.493792  0  2.355922  0
O  O48  1  0.27026069  0.49755810  0.38040678  1  0  -0.516491  0  2.079144  0  0  -0.506484  0  2.334196  0  0  -0.535148  0  2.332555  0  0  -0.328064  -0.485482  0  2.334365  0
O  O49  1  0.72972289  0.50244783  0.61960045  1  0  -0.516677  0  2.078717  0  0  -0.506647  0  2.333754  0  0  -0.535336  0  2.332138  0  0  -0.328157  -0.485644  0  2.33393  0
O  O50  1  0.43804190  0.70572782  0.63917922  1  0  -0.521185  0  2.071702  0  0  -0.506471  0  2.319023  0  0  -0.536144  0  2.31732  0  0  -0.324669  -0.484752  0  2.319178  0
O  O51  1  0.56193626  0.29427926  0.36083130  1  0  -0.521153  0  2.072204  0  0  -0.506476  0  2.319504  0  0  -0.536137  0  2.31779  0  0  -0.324631  -0.484762  0  2.319653  0
O  O52  1  0.59929521  0.12462657  0.18849407  1  0  -0.88051  0  1.93312  0  0  -0.856701  0  2.142428  0  0  -0.881727  0  2.109306  0  0  -0.632533  -0.838107  0  2.16545  0
O  O53  1  0.40070953  0.87536963  0.81150366  1  0  -0.880518  0  1.933086  0  0  -0.856731  0  2.142399  0  0  -0.881736  0  2.109322  0  0  -0.632555  -0.838126  0  2.165409  0
