# generated using pymatgen
data_HRuC7N(O2F3)2
_symmetry_space_group_name_H-M   'P 1'
_cell_length_a   8.93239461
_cell_length_b   13.14915372
_cell_length_c   13.14909446
_cell_angle_alpha   102.97281945
_cell_angle_beta   93.31975965
_cell_angle_gamma   93.31647049
_symmetry_Int_Tables_number   1
_chemical_formula_structural   HRuC7N(O2F3)2
_chemical_formula_sum   'H4 Ru4 C28 N4 O16 F24'
_cell_volume   1498.47249626
_cell_formula_units_Z   4
loop_
 _symmetry_equiv_pos_site_id
 _symmetry_equiv_pos_as_xyz
  1  'x, y, z'
loop_
 _atom_site_type_symbol
 _atom_site_label
 _atom_site_symmetry_multiplicity
 _atom_site_fract_x
 _atom_site_fract_y
 _atom_site_fract_z
 _atom_site_occupancy
 _atom_site_pbe_bader_charge
 _atom_site_pbe_bader_spin_density
 _atom_site_pbe_cm5_charge
 _atom_site_pbe_ddec_charge
 _atom_site_pbe_ddec_spin_density
 _atom_site_pbe_ddec_sum_bond_order
 _atom_site_pbe_magmom
H  H0  1  0.89474818  0.84109592  0.05154310  1  0.088584  0.000386  0.10141  0.109109  0.000665  1.017572  0.0
H  H1  1  0.10524365  0.94845652  0.15890136  1  0.088581  0.000385  0.101376  0.109101  0.000665  1.017643  0.0
H  H2  1  0.10526418  0.15889481  0.94845039  1  0.088333  0.000385  0.101446  0.109158  0.000665  1.017418  0.0
H  H3  1  0.89476992  0.05153499  0.84109312  1  0.088639  0.000386  0.101399  0.109091  0.000665  1.017628  0.0
Ru  Ru4  1  0.54986702  0.57326940  0.97377719  1  1.257018  1.040537  0.760198  0.783006  1.101722  3.872073  1.022
Ru  Ru5  1  0.45011001  0.02622447  0.42672479  1  1.260643  1.040482  0.760451  0.782925  1.101747  3.87222  1.018
Ru  Ru6  1  0.45012765  0.42673394  0.02622750  1  1.261486  1.040976  0.760221  0.783048  1.102118  3.872214  1.023
Ru  Ru7  1  0.54988957  0.97378275  0.57327563  1  1.256584  1.040664  0.76046  0.782767  1.10202  3.872639  1.018
C  C8  1  0.74739907  0.40658244  0.95589288  1  1.603976  -0.007625  0.210606  0.397903  -0.009248  4.190217  -0.004
C  C9  1  0.25264897  0.04408354  0.59340251  1  1.604315  -0.007602  0.210752  0.398512  -0.009223  4.191941  -0.004
C  C10  1  0.25259853  0.59342711  0.04410418  1  1.603572  -0.007627  0.21065  0.398085  -0.009249  4.189753  -0.004
C  C11  1  0.74734596  0.95592209  0.40658977  1  1.604263  -0.007602  0.210838  0.398656  -0.009224  4.191499  -0.004
C  C12  1  0.89534743  0.35224707  0.93581459  1  1.760135  -0.001506  0.306277  0.605538  -0.001724  4.036026  -0.001
C  C13  1  0.10468544  0.06417789  0.64775557  1  1.760252  -0.001507  0.305937  0.60455  -0.001726  4.036467  -0.001
C  C14  1  0.10464336  0.64775157  0.06418740  1  1.759898  -0.001506  0.306219  0.605463  -0.001724  4.036164  -0.001
C  C15  1  0.89531182  0.93581837  0.35224235  1  1.759814  -0.001508  0.305997  0.604693  -0.001726  4.03619  -0.001
C  C16  1  0.62265168  0.57574374  0.19014415  1  1.609958  -0.007475  0.211181  0.396682  -0.009095  4.184322  -0.004
C  C17  1  0.37742351  0.80989495  0.42426915  1  1.611149  -0.007456  0.210884  0.39666  -0.009073  4.18689  -0.004
C  C18  1  0.37734911  0.42426427  0.80985725  1  1.610103  -0.007475  0.21109  0.396518  -0.009095  4.184239  -0.004
C  C19  1  0.62257599  0.19011146  0.57572501  1  1.611038  -0.007457  0.210905  0.396719  -0.009075  4.186435  -0.004
C  C20  1  0.69977656  0.61962873  0.30116530  1  1.751817  -0.001567  0.304733  0.603876  -0.001794  4.043557  -0.001
C  C21  1  0.30028146  0.69886049  0.38038987  1  1.753648  -0.001567  0.304533  0.603316  -0.001796  4.043878  -0.001
C  C22  1  0.30022579  0.38037301  0.69883631  1  1.751938  -0.001567  0.304883  0.604144  -0.001794  4.043338  -0.001
C  C23  1  0.69972442  0.30114278  0.61960689  1  1.753636  -0.001567  0.304568  0.603585  -0.001796  4.043393  -0.001
C  C24  1  0.69404032  0.78440174  0.90003153  1  0.802454  0.031231  0.217061  0.300052  0.022973  4.025111  0.031
C  C25  1  0.30596564  0.09995684  0.21559241  1  0.802814  0.031224  0.217252  0.30057  0.022967  4.025257  0.031
C  C26  1  0.30596229  0.21560233  0.09996604  1  0.802619  0.031191  0.21721  0.300354  0.022948  4.025273  0.031
C  C27  1  0.69403974  0.90004177  0.78441015  1  0.802073  0.03124  0.217153  0.300404  0.022979  4.025256  0.031
C  C28  1  0.75684579  0.87426876  0.87427605  1  0.3394  -0.088572  -0.001251  -0.117622  -0.095854  4.131596  -0.059
C  C29  1  0.24315803  0.12572593  0.12572102  1  0.33879  -0.088636  -0.001331  -0.117842  -0.095926  4.131293  -0.059
C  C30  1  0.87933015  0.93784353  0.93784756  1  -0.041227  -0.050157  0.007215  0.108127  -0.050777  4.027253  -0.027
C  C31  1  0.12067798  0.06214957  0.06214857  1  -0.04097  -0.050133  0.007219  0.108096  -0.050752  4.027317  -0.027
C  C32  1  0.94112029  0.91058257  0.02905731  1  0.039012  -0.022484  -0.085024  -0.11901  -0.024288  3.964737  -0.012
C  C33  1  0.05888277  0.97094191  0.08941241  1  -0.021759  -0.022376  -0.085026  -0.119012  -0.024325  3.964578  -0.012
C  C34  1  0.05888680  0.08941131  0.97093895  1  -0.020981  -0.02236  -0.085094  -0.119113  -0.024312  3.964515  -0.012
C  C35  1  0.94112536  0.02905119  0.91058449  1  0.038392  -0.022495  -0.085045  -0.118998  -0.024297  3.964332  -0.012
N  N36  1  0.64288454  0.70969430  0.92382970  1  -1.195155  -0.042931  -0.331263  -0.345137  -0.053237  3.156369  -0.05
N  N37  1  0.35708798  0.07614882  0.29029003  1  -1.194924  -0.042892  -0.331414  -0.345417  -0.053191  3.157017  -0.05
N  N38  1  0.35710393  0.29030359  0.07617660  1  -1.195371  -0.042895  -0.331302  -0.345255  -0.053198  3.156895  -0.05
N  N39  1  0.64291040  0.92385762  0.70971093  1  -1.194813  -0.042887  -0.331339  -0.345291  -0.053191  3.156812  -0.05
O  O40  1  0.74149509  0.49733211  0.93853260  1  -1.049109  0.020633  -0.279756  -0.406551  0.012812  2.496369  0.014
O  O41  1  0.25848661  0.06143308  0.50267265  1  -1.04954  0.02062  -0.27977  -0.406504  0.0128  2.497545  0.014
O  O42  1  0.25849985  0.50266340  0.06147039  1  -1.048562  0.020651  -0.279704  -0.406532  0.012821  2.495471  0.014
O  O43  1  0.74151065  0.93857337  0.49732903  1  -1.049397  0.020626  -0.279886  -0.406647  0.012804  2.497071  0.014
O  O44  1  0.64339406  0.63137673  0.12402603  1  -1.062124  0.024504  -0.282837  -0.404288  0.015663  2.448894  0.016
O  O45  1  0.35664667  0.87596577  0.36863300  1  -1.062215  0.024486  -0.282784  -0.404204  0.015654  2.450603  0.016
O  O46  1  0.35660597  0.36862425  0.87597836  1  -1.062161  0.024513  -0.282827  -0.404276  0.015668  2.448703  0.016
O  O47  1  0.64335793  0.12403597  0.63136946  1  -1.062018  0.0245  -0.282829  -0.404273  0.015661  2.450059  0.016
O  O48  1  0.64479648  0.35487010  0.98987704  1  -1.058775  0.021435  -0.282639  -0.401986  0.013322  2.436022  0.014
O  O49  1  0.35520624  0.01013093  0.64512586  1  -1.058773  0.021401  -0.282698  -0.402176  0.013304  2.437627  0.014
O  O50  1  0.35518992  0.64512935  0.01012648  1  -1.058754  0.021416  -0.282713  -0.402127  0.013314  2.436465  0.014
O  O51  1  0.64479671  0.98987628  0.35487393  1  -1.058675  0.021392  -0.282664  -0.402195  0.0133  2.437815  0.014
O  O52  1  0.54742383  0.48810746  0.17421325  1  -1.053255  0.023914  -0.277816  -0.392783  0.01518  2.454344  0.016
O  O53  1  0.45263090  0.82579441  0.51188005  1  -1.054012  0.023894  -0.277651  -0.392722  0.015173  2.455831  0.016
O  O54  1  0.45256964  0.51189509  0.82579046  1  -1.053394  0.023905  -0.277785  -0.392716  0.015174  2.454447  0.016
O  O55  1  0.54736748  0.17421206  0.48812624  1  -1.054139  0.02389  -0.27763  -0.392702  0.015168  2.456106  0.016
F  F56  1  0.99468700  0.40918227  0.89372403  1  -0.604427  -0.000154  -0.094747  -0.182094  -0.000192  1.367812  0.0
F  F57  1  0.00533860  0.10627492  0.59082811  1  -0.604145  -0.000154  -0.094774  -0.181909  -0.000192  1.367954  0.0
F  F58  1  0.00531475  0.59081404  0.10628548  1  -0.604373  -0.000154  -0.094782  -0.182164  -0.000192  1.367863  0.0
F  F59  1  0.99465117  0.89371432  0.40916873  1  -0.604091  -0.000154  -0.094718  -0.181871  -0.000192  1.36798  0.0
F  F60  1  0.86773865  0.25669359  0.86955128  1  -0.607585  -0.000417  -0.092929  -0.189269  -0.000334  1.335732  0.0
F  F61  1  0.13230247  0.13043363  0.74330983  1  -0.607488  -0.000416  -0.092867  -0.189132  -0.000333  1.335941  0.0
F  F62  1  0.13224559  0.74330662  0.13044699  1  -0.607547  -0.000417  -0.092943  -0.189261  -0.000334  1.335733  0.0
F  F63  1  0.86768832  0.86956500  0.25668759  1  -0.607406  -0.000416  -0.092931  -0.189222  -0.000333  1.335884  0.0
F  F64  1  0.95968123  0.33815895  0.02755041  1  -0.604143  -0.000608  -0.096019  -0.188274  -0.000579  1.293353  0.0
F  F65  1  0.04035497  0.97244444  0.66183982  1  -0.604273  -0.000607  -0.095988  -0.18807  -0.000578  1.293711  0.0
F  F66  1  0.04029914  0.66183661  0.97245429  1  -0.604077  -0.000608  -0.095924  -0.188187  -0.000579  1.293488  0.0
F  F67  1  0.95965549  0.02754947  0.33816190  1  -0.604165  -0.000608  -0.096044  -0.188163  -0.000579  1.29356  0.0
F  F68  1  0.65649867  0.56304736  0.36931097  1  -0.605991  -0.000215  -0.092538  -0.177502  -0.000201  1.314583  0.0
F  F69  1  0.34360754  0.63071227  0.43695435  1  -0.606164  -0.000215  -0.092532  -0.177508  -0.0002  1.314616  0.0
F  F70  1  0.34351092  0.43694888  0.63068820  1  -0.606262  -0.000216  -0.092544  -0.177563  -0.000201  1.314569  0.0
F  F71  1  0.65639946  0.36929101  0.56304246  1  -0.606293  -0.000215  -0.092509  -0.177582  -0.0002  1.314493  0.0
F  F72  1  0.66482177  0.72043513  0.33806426  1  -0.61123  -0.000503  -0.101629  -0.196797  -0.000582  1.343824  0.0
F  F73  1  0.33516143  0.66197135  0.27957019  1  -0.611075  -0.000502  -0.101596  -0.19664  -0.000581  1.343908  0.0
F  F74  1  0.33517696  0.27956431  0.66194431  1  -0.611194  -0.000503  -0.101621  -0.196786  -0.000582  1.343753  0.0
F  F75  1  0.66484437  0.33803114  0.72042640  1  -0.610938  -0.000502  -0.101615  -0.196718  -0.000581  1.343952  0.0
F  F76  1  0.85125950  0.62006377  0.29810829  1  -0.582323  -0.000639  -0.09719  -0.187722  -0.0006  1.331531  -0.001
F  F77  1  0.14880516  0.70193208  0.38001273  1  -0.583632  -0.000638  -0.097132  -0.18746  -0.000599  1.33203  -0.001
F  F78  1  0.14874208  0.37994109  0.70188941  1  -0.582282  -0.000639  -0.097309  -0.187878  -0.0006  1.331436  -0.001
F  F79  1  0.85120107  0.29807431  0.61998245  1  -0.58373  -0.000638  -0.097167  -0.187558  -0.000599  1.331892  -0.001
