# generated using pymatgen
data_Cu2H25C20S2I2NO2
_symmetry_space_group_name_H-M   'P 1'
_cell_length_a   11.72121694
_cell_length_b   11.72110505
_cell_length_c   24.20079539
_cell_angle_alpha   99.84962421
_cell_angle_beta   99.84936263
_cell_angle_gamma   107.44409220
_symmetry_Int_Tables_number   1
_chemical_formula_structural   Cu2H25C20S2I2NO2
_chemical_formula_sum   'Cu8 H100 C80 S8 I8 N4 O8'
_cell_volume   3036.48761183
_cell_formula_units_Z   4
loop_
 _symmetry_equiv_pos_site_id
 _symmetry_equiv_pos_as_xyz
  1  'x, y, z'
loop_
 _atom_site_type_symbol
 _atom_site_label
 _atom_site_symmetry_multiplicity
 _atom_site_fract_x
 _atom_site_fract_y
 _atom_site_fract_z
 _atom_site_occupancy
 _atom_site_pbe_bader_charge
 _atom_site_pbe_bader_spin_density
 _atom_site_pbe_cm5_charge
 _atom_site_pbe_ddec_charge
 _atom_site_pbe_ddec_spin_density
 _atom_site_pbe_ddec_sum_bond_order
 _atom_site_pbe_magmom
Cu  Cu0  1  0.02423031  0.30477495  0.20824607  1  0.315482  0  0.180177  0.078042  0  2.84363  0
Cu  Cu1  1  0.19522244  0.47575884  0.29175350  1  0.314657  0  0.180202  0.078031  0  2.843606  0
Cu  Cu2  1  0.97577177  0.69522772  0.79175781  1  0.315544  0  0.180221  0.078072  0  2.843598  0
Cu  Cu3  1  0.80477902  0.52423236  0.70824514  1  0.314721  0  0.180202  0.078039  0  2.843692  0
Cu  Cu4  1  0.06135114  0.53758676  0.21276902  1  0.315907  0  0.177942  0.073372  0  2.872391  0
Cu  Cu5  1  0.96241378  0.43865501  0.28722926  1  0.314473  0  0.177951  0.073331  0  2.872626  0
Cu  Cu6  1  0.93864820  0.46240815  0.78722847  1  0.315941  0  0.177943  0.073283  0  2.872601  0
Cu  Cu7  1  0.03759323  0.56135333  0.71277407  1  0.314642  0  0.177963  0.073336  0  2.87254  0
H  H8  1  0.35734310  0.04944485  0.19177710  1  0.391235  0  0.282791  0.22138  0  0.986945  0
H  H9  1  0.45055263  0.14265418  0.30822646  1  0.392539  0  0.282749  0.221336  0  0.986857  0
H  H10  1  0.64265835  0.95054962  0.80822518  1  0.392462  0  0.282815  0.221374  0  0.986976  0
H  H11  1  0.54944884  0.85734466  0.69177588  1  0.392542  0  0.282777  0.221335  0  0.986991  0
H  H12  1  0.76361540  0.84794792  0.96782876  1  0.037604  0  0.104389  0.069658  0  0.987663  0
H  H13  1  0.65205678  0.73639837  0.53216880  1  0.037652  0  0.104417  0.069672  0  0.987732  0
H  H14  1  0.23637431  0.15204331  0.03216558  1  0.037548  0  0.10442  0.069757  0  0.987625  0
H  H15  1  0.34794342  0.26363470  0.46783622  1  0.03765  0  0.104355  0.069665  0  0.987876  0
H  H16  1  0.73595864  0.70702523  0.99136058  1  0.074598  0  0.107139  0.080457  0  0.956726  0
H  H17  1  0.79297188  0.76404977  0.50863191  1  0.074674  0  0.107183  0.080534  0  0.956607  0
H  H18  1  0.26404198  0.29296829  0.00863543  1  0.074738  0  0.107168  0.08052  0  0.956734  0
H  H19  1  0.20703168  0.23597333  0.49137724  1  0.07486  0  0.10715  0.080548  0  0.956689  0
H  H20  1  0.90843054  0.75588860  0.93948010  1  0.07312  0  0.090494  0.059602  0  1.046042  0
H  H21  1  0.74412274  0.59158028  0.56051822  1  0.073121  0  0.090514  0.059612  0  1.046075  0
H  H22  1  0.09157227  0.24412125  0.06051457  1  0.073088  0  0.090525  0.059579  0  1.046141  0
H  H23  1  0.25587066  0.40843841  0.43949088  1  0.071433  0  0.090521  0.059654  0  1.046185  0
H  H24  1  0.98947699  0.89122277  0.99610703  1  0.065288  0  0.1011  0.068877  0  0.996145  0
H  H25  1  0.60877909  0.51053726  0.50389755  1  0.065127  0  0.101075  0.068845  0  0.996111  0
H  H26  1  0.01052360  0.10876649  0.00389437  1  0.065143  0  0.101076  0.068821  0  0.995988  0
H  H27  1  0.39122217  0.48949051  0.49610938  1  0.065296  0  0.101091  0.068951  0  0.99607  0
H  H28  1  0.11736883  0.82541490  0.95318664  1  0.067343  0  0.093687  0.102819  0  1.066667  0
H  H29  1  0.67459024  0.38265372  0.54681857  1  0.067312  0  0.093676  0.10283  0  1.066631  0
H  H30  1  0.88262433  0.17456545  0.04680646  1  0.067256  0  0.093632  0.102737  0  1.066934  0
H  H31  1  0.32543630  0.61738677  0.45319698  1  0.067357  0  0.093628  0.102815  0  1.066944  0
H  H32  1  0.30941191  0.78848114  0.94527163  1  0.077099  0  0.091255  0.097586  0  1.016244  0
H  H33  1  0.71151810  0.19060593  0.55473628  1  0.077128  0  0.091215  0.097583  0  1.016059  0
H  H34  1  0.69059559  0.21151605  0.05473027  1  0.076903  0  0.091256  0.097572  0  1.016223  0
H  H35  1  0.28848709  0.80941760  0.44527266  1  0.076859  0  0.091231  0.097553  0  1.016286  0
H  H36  1  0.37858829  0.64565742  0.99791555  1  0.043045  0  0.095909  0.096668  0  1.006391  0
H  H37  1  0.85433344  0.12141458  0.50208796  1  0.043233  0  0.095864  0.096572  0  1.006298  0
H  H38  1  0.62143103  0.35435675  0.00209540  1  0.043642  0  0.095842  0.096619  0  1.006379  0
H  H39  1  0.14564664  0.87858376  0.49790515  1  0.043489  0  0.095946  0.096636  0  1.006376  0
H  H40  1  0.25248008  0.54604741  0.06111326  1  0.048251  0  0.091479  0.092674  0  1.019906  0
H  H41  1  0.95392930  0.24750895  0.43888445  1  0.048506  0  0.091469  0.092654  0  1.020017  0
H  H42  1  0.74752137  0.45396160  0.93889006  1  0.048848  0  0.091526  0.092826  0  1.019603  0
H  H43  1  0.04604513  0.75250489  0.56111413  1  0.048298  0  0.091444  0.092676  0  1.019607  0
H  H44  1  0.06753284  0.49258266  0.09176727  1  0.094311  0  0.083047  0.10087  0  1.043627  0
H  H45  1  0.00740560  0.43246781  0.40823010  1  0.093993  0  0.083012  0.100795  0  1.043731  0
H  H46  1  0.93246887  0.50740605  0.90822613  1  0.093847  0  0.082999  0.10075  0  1.043765  0
H  H47  1  0.99258434  0.56753571  0.59177093  1  0.09474  0  0.083083  0.100929  0  1.043552  0
H  H48  1  0.94675679  0.55042905  0.06995945  1  0.109026  0  0.103161  0.128443  0  0.99463  0
H  H49  1  0.94955692  0.55324186  0.43003453  1  0.109065  0  0.103084  0.12833  0  0.99483  0
H  H50  1  0.05323849  0.44955062  0.93002755  1  0.108813  0  0.103065  0.128323  0  0.994815  0
H  H51  1  0.05043875  0.44676693  0.56996492  1  0.109178  0  0.103096  0.128373  0  0.99475  0
H  H52  1  0.27130258  0.77029671  0.22341984  1  0.06159  0  0.089363  0.103944  0  1.017595  0
H  H53  1  0.72969773  0.22869259  0.27657724  1  0.061379  0  0.089341  0.10395  0  1.0176  0
H  H54  1  0.72868734  0.22968401  0.77657553  1  0.061594  0  0.089396  0.103978  0  1.017781  0
H  H55  1  0.27031538  0.77130567  0.72342202  1  0.061652  0  0.089415  0.103975  0  1.017862  0
H  H56  1  0.28651499  0.67688410  0.16108785  1  0.094642  0  0.083116  0.101982  0  1.040138  0
H  H57  1  0.82311410  0.21348100  0.33890838  1  0.094614  0  0.083118  0.101968  0  1.040057  0
H  H58  1  0.71347370  0.32310665  0.83890367  1  0.094457  0  0.083129  0.101961  0  1.040133  0
H  H59  1  0.17689730  0.78653227  0.66109749  1  0.094362  0  0.08313  0.101977  0  1.040092  0
H  H60  1  0.40643907  0.88376585  0.16722979  1  0.024806  0  0.10347  0.082552  0  0.97653  0
H  H61  1  0.61623286  0.09355919  0.33276796  1  0.024734  0  0.10349  0.082622  0  0.976567  0
H  H62  1  0.59355370  0.11622234  0.83276753  1  0.024226  0  0.103494  0.082536  0  0.976587  0
H  H63  1  0.38377506  0.90644531  0.66723169  1  0.024247  0  0.103511  0.082617  0  0.976571  0
H  H64  1  0.28008262  0.84646943  0.10812194  1  0.06571  0  0.08926  0.061076  0  1.022452  0
H  H65  1  0.65353636  0.21991327  0.39187816  1  0.065762  0  0.089247  0.061105  0  1.022369  0
H  H66  1  0.71991153  0.15352859  0.89187774  1  0.065767  0  0.089249  0.061045  0  1.022369  0
H  H67  1  0.34647015  0.78009157  0.60812011  1  0.065723  0  0.089237  0.061073  0  1.022311  0
H  H68  1  0.09589084  0.90619218  0.14210017  1  0.053888  0  0.093452  0.069001  0  1.03022  0
H  H69  1  0.59381245  0.40411754  0.35789868  1  0.054359  0  0.093408  0.06887  0  1.030108  0
H  H70  1  0.90411217  0.09380727  0.85790096  1  0.053949  0  0.09343  0.068953  0  1.030058  0
H  H71  1  0.40619601  0.59588456  0.64209967  1  0.053967  0  0.093448  0.068991  0  1.030067  0
H  H72  1  0.18598082  0.01108342  0.10880236  1  0.013303  0  0.078472  0.040864  0  0.990731  0
H  H73  1  0.48893253  0.31402869  0.39120310  1  0.013179  0  0.078438  0.040813  0  0.990849  0
H  H74  1  0.81402157  0.98891547  0.89120088  1  0.013189  0  0.078485  0.04086  0  0.990813  0
H  H75  1  0.51108332  0.68597344  0.60879798  1  0.013176  0  0.078496  0.040882  0  0.990777  0
H  H76  1  0.22436055  0.18517786  0.19370172  1  0.074249  0  0.084314  0.103716  0  1.02529  0
H  H77  1  0.31482040  0.27562785  0.30630908  1  0.074244  0  0.084308  0.103667  0  1.025119  0
H  H78  1  0.77563803  0.81481566  0.80630590  1  0.07423  0  0.084281  0.103686  0  1.025205  0
H  H79  1  0.68518089  0.72436832  0.69369850  1  0.074105  0  0.084312  0.103744  0  1.025252  0
H  H80  1  0.14038510  0.08165567  0.23010171  1  0.076109  0  0.090356  0.109277  0  1.00347  0
H  H81  1  0.41833174  0.35959710  0.26990228  1  0.076339  0  0.090364  0.109202  0  1.00362  0
H  H82  1  0.85960290  0.91832915  0.76990088  1  0.076302  0  0.090356  0.109231  0  1.003593  0
H  H83  1  0.58166357  0.64039544  0.73010031  1  0.076226  0  0.090359  0.109291  0  1.003517  0
H  H84  1  0.92145277  0.91536619  0.16048185  1  0.106378  0  0.107598  0.126973  0  0.986599  0
H  H85  1  0.58462944  0.57854247  0.33951937  1  0.106309  0  0.1076  0.126953  0  0.986579  0
H  H86  1  0.07854270  0.08462779  0.83951363  1  0.106273  0  0.107637  0.127013  0  0.986611  0
H  H87  1  0.41537828  0.42145498  0.66048546  1  0.106462  0  0.107621  0.126954  0  0.986734  0
H  H88  1  0.89715505  0.02423101  0.21526403  1  0.071581  0  0.092808  0.111971  0  1.001267  0
H  H89  1  0.47576442  0.60284303  0.28473677  1  0.07162  0  0.092843  0.112012  0  1.001194  0
H  H90  1  0.10283740  0.97576035  0.78473301  1  0.071604  0  0.092785  0.111907  0  1.00122  0
H  H91  1  0.52424258  0.39715779  0.71526829  1  0.071514  0  0.09279  0.111892  0  1.001184  0
H  H92  1  0.71865657  0.08721622  0.19651244  1  0.071587  0  0.093877  0.098745  0  1.025938  0
H  H93  1  0.41277588  0.78133623  0.30348563  1  0.07155  0  0.093841  0.098686  0  1.025827  0
H  H94  1  0.28134012  0.91277087  0.80348510  1  0.071479  0  0.093861  0.098741  0  1.025801  0
H  H95  1  0.58722566  0.21865419  0.69651308  1  0.071583  0  0.093867  0.098701  0  1.025726  0
H  H96  1  0.51658095  0.06175639  0.13318320  1  0.062154  0  0.095252  0.09316  0  1.014404  0
H  H97  1  0.43824025  0.98342516  0.36682118  1  0.062065  0  0.095254  0.093124  0  1.014433  0
H  H98  1  0.48341355  0.93822140  0.86681846  1  0.061972  0  0.09527  0.093168  0  1.014076  0
H  H99  1  0.56177038  0.01657497  0.63317566  1  0.059198  0  0.095294  0.093219  0  1.013987  0
H  H100  1  0.45465716  0.93173868  0.03282645  1  0.083454  0  0.095989  0.090866  0  1.042728  0
H  H101  1  0.56826755  0.04534559  0.46717358  1  0.08345  0  0.096035  0.090849  0  1.042707  0
H  H102  1  0.54532997  0.06824733  0.96717710  1  0.083792  0  0.095985  0.090914  0  1.042672  0
H  H103  1  0.43175177  0.95466748  0.53281466  1  0.083723  0  0.095977  0.0909  0  1.042612  0
H  H104  1  0.59522833  0.83685089  0.99452894  1  0.030008  0  0.101224  0.110558  0  1.022317  0
H  H105  1  0.66314796  0.90477340  0.50546998  1  0.029905  0  0.10127  0.110634  0  1.022334  0
H  H106  1  0.40475523  0.16314168  0.00546935  1  0.030277  0  0.101234  0.110504  0  1.02239  0
H  H107  1  0.33686691  0.09525844  0.49452676  1  0.030185  0  0.101227  0.110483  0  1.022417  0
C  C108  1  0.80202007  0.80067079  0.99799960  1  0.421239  0  -0.060796  0.006722  0  3.918267  0
C  C109  1  0.69933013  0.69798702  0.50199968  1  0.421137  0  -0.060797  0.00674  0  3.918295  0
C  C110  1  0.19797693  0.19932004  0.00199555  1  0.42131  0  -0.06078  0.006634  0  3.918573  0
C  C111  1  0.30067800  0.30203302  0.49801031  1  0.421319  0  -0.060625  0.006829  0  3.918438  0
C  C112  1  0.92282102  0.79683850  0.98580311  1  0.417135  0  -0.071655  -0.012968  0  3.937738  0
C  C113  1  0.70316194  0.57719150  0.51419772  1  0.417244  0  -0.071687  -0.012953  0  3.937819  0
C  C114  1  0.07718405  0.20316168  0.01419279  1  0.41731  0  -0.071638  -0.012915  0  3.937824  0
C  C115  1  0.29683422  0.42282781  0.48580957  1  0.418745  0  -0.071737  -0.0133  0  3.937779  0
C  C116  1  0.07681387  0.70944046  0.01335474  1  0.426241  0  0.082793  0.203785  0  4.021103  0
C  C117  1  0.79055115  0.42319171  0.48663860  1  0.425768  0  0.082774  0.203774  0  4.021262  0
C  C118  1  0.92318460  0.29054462  0.98663092  1  0.426483  0  0.082983  0.204024  0  4.020664  0
C  C119  1  0.20944208  0.57683171  0.51336857  1  0.42612  0  0.083001  0.204258  0  4.020277  0
C  C120  1  0.14713939  0.76598152  0.97797948  1  -0.027816  0  -0.119345  -0.233398  0  4.026452  0
C  C121  1  0.73401211  0.35286825  0.52202208  1  -0.02692  0  -0.119406  -0.233624  0  4.026445  0
C  C122  1  0.85285032  0.23398451  0.02201736  1  -0.027604  0  -0.119461  -0.233672  0  4.025805  0
C  C123  1  0.26600561  0.64715350  0.47798283  1  -0.027559  0  -0.119371  -0.233734  0  4.025683  0
C  C124  1  0.25607685  0.74368627  0.97310575  1  -0.054095  0  -0.099426  -0.051967  0  4.051193  0
C  C125  1  0.75630273  0.24393590  0.52689826  1  -0.054484  0  -0.099322  -0.051764  0  4.050883  0
C  C126  1  0.74391438  0.25630132  0.02689278  1  -0.0547  0  -0.099379  -0.051783  0  4.051092  0
C  C127  1  0.24369036  0.75609662  0.47310702  1  -0.054347  0  -0.099533  -0.052017  0  4.051034  0
C  C128  1  0.29438746  0.66400738  0.00232861  1  -0.044516  0  -0.110084  -0.120869  0  4.06298  0
C  C129  1  0.83597750  0.20561588  0.49767210  1  -0.044596  0  -0.109929  -0.120775  0  4.062342  0
C  C130  1  0.70562271  0.33599072  0.99767591  1  -0.04398  0  -0.110073  -0.120895  0  4.062877  0
C  C131  1  0.16400101  0.79438763  0.50232313  1  -0.044467  0  -0.110039  -0.120682  0  4.063012  0
C  C132  1  0.22386062  0.60843562  0.03768341  1  -0.00505  0  -0.0923  -0.112465  0  3.995176  0
C  C133  1  0.89154744  0.27614777  0.46231059  1  -0.005032  0  -0.092453  -0.112495  0  3.995601  0
C  C134  1  0.77616525  0.39155169  0.96232013  1  -0.005824  0  -0.09237  -0.112715  0  3.996183  0
C  C135  1  0.10844651  0.72385676  0.53767804  1  -0.005205  0  -0.092262  -0.11246  0  3.995731  0
C  C136  1  0.11593723  0.63107143  0.04456679  1  -0.021721  0  -0.028004  0.018674  0  3.973337  0
C  C137  1  0.86891320  0.38405233  0.45542989  1  -0.022425  0  -0.02802  0.018641  0  3.973935  0
C  C138  1  0.88404257  0.36891690  0.95543230  1  -0.022649  0  -0.028032  0.018598  0  3.974427  0
C  C139  1  0.13107476  0.61595959  0.54456654  1  -0.022124  0  -0.028094  0.018378  0  3.974306  0
C  C140  1  0.04667681  0.57499509  0.08501611  1  -0.135673  0  -0.152  -0.219728  0  3.895473  0
C  C141  1  0.92499220  0.45332136  0.41498049  1  -0.134978  0  -0.151895  -0.219553  0  3.895449  0
C  C142  1  0.95332101  0.42498518  0.91497703  1  -0.134459  0  -0.151866  -0.219472  0  3.895174  0
C  C143  1  0.07500413  0.54668547  0.58501958  1  -0.135991  0  -0.151976  -0.219712  0  3.895128  0
C  C144  1  0.24897621  0.74874262  0.17596397  1  -0.160936  0  -0.159168  -0.207616  0  3.874513  0
C  C145  1  0.75125351  0.25102017  0.32403282  1  -0.160832  0  -0.15914  -0.207579  0  3.874431  0
C  C146  1  0.75101201  0.25124598  0.82402979  1  -0.161121  0  -0.159294  -0.20777  0  3.87483  0
C  C147  1  0.24875324  0.74898617  0.67597024  1  -0.160893  0  -0.159257  -0.207752  0  3.874763  0
C  C148  1  0.30643354  0.86450814  0.15568297  1  0.309763  0  -0.07667  -0.009559  0  3.962809  0
C  C149  1  0.63549006  0.19356083  0.34431452  1  0.309874  0  -0.076721  -0.0098  0  3.963006  0
C  C150  1  0.69355891  0.13548322  0.84431406  1  0.310586  0  -0.076663  -0.009462  0  3.962834  0
C  C151  1  0.36451844  0.80644251  0.65568568  1  0.310467  0  -0.076681  -0.009627  0  3.962889  0
C  C152  1  0.17476100  0.99183053  0.15136481  1  0.322254  0  -0.080278  -0.002866  0  3.980786  0
C  C153  1  0.50816607  0.32523433  0.34863815  1  0.322399  0  -0.080142  -0.002606  0  3.980809  0
C  C154  1  0.82523340  0.00816197  0.84863688  1  0.322311  0  -0.080201  -0.002773  0  3.980764  0
C  C155  1  0.49183794  0.67476437  0.65136395  1  0.322325  0  -0.080259  -0.002842  0  3.98095  0
C  C156  1  0.14963475  0.09730124  0.18729566  1  -0.145318  0  -0.158242  -0.208423  0  3.907339  0
C  C157  1  0.40269965  0.35036209  0.31270904  1  -0.145998  0  -0.158282  -0.208257  0  3.907314  0
C  C158  1  0.85036172  0.90269273  0.81270717  1  -0.145468  0  -0.158263  -0.208313  0  3.90737  0
C  C159  1  0.59730781  0.64964088  0.68729379  1  -0.14543  0  -0.158259  -0.208515  0  3.90754  0
C  C160  1  0.89472721  0.99754840  0.16919613  1  -0.106935  0  -0.143654  -0.209593  0  3.88997  0
C  C161  1  0.50244638  0.60526881  0.33080649  1  -0.107079  0  -0.143689  -0.209611  0  3.889844  0
C  C162  1  0.10526463  0.00244991  0.83080127  1  -0.107085  0  -0.143635  -0.209432  0  3.88964  0
C  C163  1  0.49755487  0.39472927  0.66919744  1  -0.10689  0  -0.143699  -0.209528  0  3.889889  0
C  C164  1  0.77195597  0.97877658  0.13184273  1  -0.011552  0  -0.031287  0.014279  0  3.98106  0
C  C165  1  0.52121658  0.72804356  0.36815859  1  -0.012016  0  -0.03129  0.014285  0  3.981172  0
C  C166  1  0.22804273  0.02121715  0.86815593  1  -0.011718  0  -0.031255  0.014036  0  3.981024  0
C  C167  1  0.47879983  0.27196067  0.63184669  1  -0.011893  0  -0.031215  0.014341  0  3.980891  0
C  C168  1  0.69089712  0.03199742  0.15225661  1  0.017493  0  -0.096255  -0.115494  0  4.015636  0
C  C169  1  0.46799853  0.80909719  0.34774678  1  0.017531  0  -0.096282  -0.115492  0  4.015776  0
C  C170  1  0.30909718  0.96799150  0.84774495  1  0.017126  0  -0.096238  -0.115347  0  4.01579  0
C  C171  1  0.53201000  0.19089648  0.65224794  1  0.017279  0  -0.096217  -0.115276  0  4.016037  0
C  C172  1  0.57766218  0.01749176  0.11684642  1  -0.106632  0  -0.110629  -0.120032  0  4.070131  0
C  C173  1  0.48250274  0.92233615  0.38315608  1  -0.10626  0  -0.110648  -0.120051  0  4.0703  0
C  C174  1  0.42231876  0.98249435  0.88315922  1  -0.106049  0  -0.110713  -0.120086  0  4.070498  0
C  C175  1  0.51750755  0.07768033  0.61683421  1  -0.103427  0  -0.110705  -0.120198  0  4.070906  0
C  C176  1  0.54385046  0.94632195  0.06049945  1  -0.040835  0  -0.094414  -0.05699  0  4.04771  0
C  C177  1  0.55367101  0.95614832  0.43950068  1  -0.040569  0  -0.094505  -0.056969  0  4.047819  0
C  C178  1  0.45613466  0.05365742  0.93950297  1  -0.041085  0  -0.094466  -0.057126  0  4.047942  0
C  C179  1  0.44635448  0.04387179  0.56049369  1  -0.040897  0  -0.094415  -0.05711  0  4.048153  0
C  C180  1  0.62340694  0.89227791  0.03869297  1  0.014293  0  -0.118129  -0.236872  0  4.037038  0
C  C181  1  0.60771967  0.87659111  0.46130977  1  0.014096  0  -0.11813  -0.236915  0  4.036887  0
C  C182  1  0.37658171  0.10770809  0.96130845  1  0.013983  0  -0.118155  -0.236858  0  4.036948  0
C  C183  1  0.39230429  0.12342901  0.53868674  1  0.013965  0  -0.118218  -0.236806  0  4.037057  0
C  C184  1  0.73828769  0.91044176  0.07391082  1  0.391853  0  0.082446  0.207769  0  4.038487  0
C  C185  1  0.58954919  0.76170904  0.42608889  1  0.392098  0  0.082509  0.207828  0  4.038434  0
C  C186  1  0.26169958  0.08955271  0.92608841  1  0.39232  0  0.082468  0.207858  0  4.03868  0
C  C187  1  0.41045949  0.23830837  0.57390891  1  0.392046  0  0.082501  0.207673  0  4.038489  0
S  S188  1  0.08134917  0.67808325  0.15727703  1  -0.002469  0  -0.028872  0.103309  0  3.014552  0
S  S189  1  0.82191251  0.41864808  0.34271659  1  -0.00256  0  -0.028876  0.10332  0  3.014726  0
S  S190  1  0.91863802  0.32190111  0.84271477  1  -0.002594  0  -0.028832  0.103429  0  3.01469  0
S  S191  1  0.17808746  0.58135817  0.65728070  1  -0.002484  0  -0.028852  0.103432  0  3.01453  0
S  S192  1  0.01235063  0.12255679  0.15289225  1  -0.013899  0  -0.032489  0.083821  0  3.178923  0
S  S193  1  0.37743881  0.48764526  0.34710968  1  -0.013795  0  -0.032454  0.083809  0  3.178952  0
S  S194  1  0.98764952  0.87744221  0.84710971  1  -0.013859  0  -0.032494  0.083779  0  3.17901  0
S  S195  1  0.62256473  0.51235505  0.65289379  1  -0.013944  0  -0.0325  0.083856  0  3.178911  0
I  I196  1  0.83261042  0.37558566  0.17900894  1  -0.365893  0  -0.174559  -0.236562  0  2.001711  0
I  I197  1  0.12441067  0.66739052  0.32098803  1  -0.365816  0  -0.174573  -0.236546  0  2.001712  0
I  I198  1  0.16738800  0.62440557  0.82099396  1  -0.365967  0  -0.174592  -0.236565  0  2.001787  0
I  I199  1  0.87559481  0.33261008  0.67900828  1  -0.365985  0  -0.174575  -0.236554  0  2.001742  0
I  I200  1  0.23694211  0.43530416  0.18318706  1  -0.430462  0  -0.172933  -0.299243  0  1.885048  0
I  I201  1  0.06468740  0.26305201  0.31681329  1  -0.430531  0  -0.172967  -0.299294  0  1.885061  0
I  I202  1  0.76306539  0.56468927  0.81681572  1  -0.430387  0  -0.172931  -0.299244  0  1.885135  0
I  I203  1  0.93530026  0.73692772  0.68318438  1  -0.430502  0  -0.172931  -0.299276  0  1.885254  0
N  N204  1  0.28156640  0.97246115  0.18386973  1  -1.095902  0  -0.49757  -0.374714  0  3.402663  0
N  N205  1  0.52754748  0.21843974  0.31613448  1  -1.097122  0  -0.497551  -0.374684  0  3.402782  0
N  N206  1  0.71843268  0.02753188  0.81613294  1  -1.097194  0  -0.497613  -0.374753  0  3.402979  0
N  N207  1  0.47246223  0.78156361  0.68386511  1  -1.097125  0  -0.497572  -0.374638  0  3.403042  0
O  O208  1  0.82572125  0.86731998  0.05644749  1  -1.078252  0  -0.179508  -0.195784  0  2.589974  0
O  O209  1  0.63267049  0.67427468  0.44354939  1  -1.078397  0  -0.179573  -0.19593  0  2.589965  0
O  O210  1  0.17427697  0.13267462  0.94354617  1  -1.078583  0  -0.179489  -0.195767  0  2.590325  0
O  O211  1  0.36733774  0.32573430  0.55645425  1  -1.078482  0  -0.179599  -0.195807  0  2.590355  0
O  O212  1  0.96824272  0.72473033  0.02014251  1  -1.072985  0  -0.178076  -0.188299  0  2.553561  0
O  O213  1  0.77525888  0.53175764  0.47985303  1  -1.072851  0  -0.177963  -0.188169  0  2.553624  0
O  O214  1  0.03174171  0.27524577  0.97984742  1  -1.072897  0  -0.178092  -0.188118  0  2.553875  0
O  O215  1  0.22474118  0.46826697  0.52015632  1  -1.072868  0  -0.178062  -0.188126  0  2.553089  0
