# generated using pymatgen
data_Zn4H55C86N16Cl
_symmetry_space_group_name_H-M   'P 1'
_cell_length_a   18.96576604
_cell_length_b   18.81735095
_cell_length_c   20.27803675
_cell_angle_alpha   107.45621613
_cell_angle_beta   105.56600269
_cell_angle_gamma   111.42638531
_symmetry_Int_Tables_number   1
_chemical_formula_structural   Zn4H55C86N16Cl
_chemical_formula_sum   'Zn4 H55 C86 N16 Cl1'
_cell_volume   5815.46307399
_cell_formula_units_Z   1
loop_
 _symmetry_equiv_pos_site_id
 _symmetry_equiv_pos_as_xyz
  1  'x, y, z'
loop_
 _atom_site_type_symbol
 _atom_site_label
 _atom_site_symmetry_multiplicity
 _atom_site_fract_x
 _atom_site_fract_y
 _atom_site_fract_z
 _atom_site_occupancy
 _atom_site_pbe_bader_charge
 _atom_site_pbe_bader_spin_density
 _atom_site_pbe_cm5_charge
 _atom_site_pbe_ddec_charge
 _atom_site_pbe_ddec_spin_density
 _atom_site_pbe_ddec_sum_bond_order
 _atom_site_pbe_magmom
Zn  Zn0  1  0.10231184  0.10846500  0.49206054  1  1.18858  0  0.740348  0.604102  0  2.456518  0
Zn  Zn1  1  0.89102206  0.89182407  0.49781913  1  1.187258  0  0.740991  0.602984  0  2.457905  0
Zn  Zn2  1  0.00801317  0.90246594  0.40535211  1  1.192315  0  0.741574  0.614481  0  2.419494  0
Zn  Zn3  1  0.00422131  0.10108824  0.60243401  1  1.187917  0  0.743719  0.603079  0  2.472601  0
H  H4  1  0.97834260  0.14573978  0.37284283  1  0.09292  0  0.117959  0.104887  0  1.00043  0
H  H5  1  0.02857804  0.76309758  0.66652411  1  0.034651  0  0.097028  0.099278  0  1.015442  0
H  H6  1  0.00388163  0.66000375  0.72017954  1  0.037031  0  0.098725  0.100273  0  0.999391  0
H  H7  1  0.74429424  0.88155025  0.37021447  1  0.053069  0  0.115996  0.101632  0  1.010729  0
H  H8  1  0.01443601  0.53463806  0.72625519  1  0.049537  0  0.09775  0.098451  0  0.998865  0
H  H9  1  0.05666562  0.42624641  0.68155075  1  0.020027  0  0.09495  0.094866  0  1.023825  0
H  H10  1  0.30891205  0.61244354  0.58658122  1  0.047557  0  0.097582  0.09701  0  1.019974  0
H  H11  1  0.29384381  0.73234660  0.57591369  1  0.052065  0  0.09965  0.101178  0  0.995921  0
H  H12  1  0.26587322  0.88188682  0.32493643  1  0.02344  0  0.096364  0.098051  0  1.014855  0
H  H13  1  0.40097275  0.15431352  0.46317111  1  0.051219  0  0.095699  0.097203  0  1.016992  0
H  H14  1  0.55022006  0.23704314  0.49177585  1  0.046664  0  0.097911  0.099229  0  1.00008  0
H  H15  1  0.98412378  0.84491697  0.62442109  1  0.089439  0  0.115231  0.102129  0  1.003099  0
H  H16  1  0.68128729  0.23951610  0.49166852  1  0.066599  0  0.099456  0.101218  0  0.997888  0
H  H17  1  0.75827510  0.16053856  0.46699609  1  0.053512  0  0.098036  0.100501  0  1.011357  0
H  H18  1  0.88626478  0.71325220  0.25559955  1  0.094567  0  0.117378  0.105083  0  1.001132  0
H  H19  1  0.62333977  0.88784006  0.33054442  1  0.047545  0  0.098306  0.10121  0  1.014268  0
H  H20  1  0.46914025  0.80961760  0.27689499  1  0.056407  0  0.100901  0.102567  0  0.996208  0
H  H21  1  0.33793505  0.80702313  0.27699100  1  0.046785  0  0.098962  0.099821  0  0.997956  0
H  H22  1  0.24890804  0.09050965  0.82648997  1  0.061808  0  0.099119  0.099637  0  1.001179  0
H  H23  1  0.67518109  0.53253072  0.29328829  1  0.058261  0  0.095669  0.094996  0  1.008187  0
H  H24  1  0.47710101  0.29971337  0.04834024  1  0.048084  0  0.097429  0.09628  0  1.005712  0
H  H25  1  0.51587225  0.26968151  0.82609845  1  0.053616  0  0.097109  0.094057  0  1.003051  0
H  H26  1  0.15752927  0.87557835  0.36053378  1  0.041208  0  0.115915  0.103358  0  1.00003  0
H  H27  1  0.62608583  0.47497719  0.02616031  1  0.027131  0  0.096158  0.097156  0  1.021098  0
H  H28  1  0.38791392  0.18214602  0.70580341  1  0.033096  0  0.097242  0.097947  0  1.007454  0
H  H29  1  0.07013794  0.31427700  0.69332044  1  0.07674  0  0.116421  0.103912  0  0.999808  0
H  H30  1  0.57946613  0.34324659  0.95773822  1  0.036526  0  0.095239  0.09081  0  1.014617  0
H  H31  1  0.37649741  0.17844015  0.94654504  1  0.031961  0  0.099997  0.099073  0  1.002138  0
H  H32  1  0.56838579  0.38960535  0.18898144  1  0.048058  0  0.097859  0.099627  0  0.999129  0
H  H33  1  0.84937133  0.11459591  0.80355770  1  0.069565  0  0.097687  0.095935  0  1.005753  0
H  H34  1  0.73626998  0.84067854  0.69576524  1  0.065607  0  0.096646  0.0955  0  1.007326  0
H  H35  1  0.70732340  0.90089994  0.92333695  1  0.004997  0  0.098129  0.097243  0  1.00484  0
H  H36  1  0.89047370  0.15808385  0.13958320  1  0.06143  0  0.100353  0.100384  0  0.99907  0
H  H37  1  0.93637753  0.12049797  0.73923519  1  0.091584  0  0.11661  0.10379  0  1.001993  0
H  H38  1  0.80698895  0.10945501  0.90641506  1  0.046092  0  0.100887  0.099491  0  1.004584  0
H  H39  1  0.94271722  0.14603736  0.25785806  1  0.047702  0  0.10041  0.099906  0  1.006603  0
H  H40  1  0.72040434  0.69624509  0.36758711  1  0.090678  0  0.115736  0.104721  0  1.000991  0
H  H41  1  0.81753642  0.09585493  0.00842258  1  0.04984  0  0.097146  0.09222  0  1.015166  0
H  H42  1  0.70098110  0.89378227  0.02996118  1  0.070376  0  0.102991  0.116273  0  1.003136  0
H  H43  1  0.69269785  0.83544667  0.79872912  1  0.044285  0  0.098362  0.095767  0  1.001554  0
H  H44  1  0.16828045  0.30880463  0.52348885  1  0.080818  0  0.11667  0.104495  0  1.010507  0
H  H45  1  0.88082060  0.15443275  0.51338915  1  0.077258  0  0.115714  0.103371  0  1.004033  0
H  H46  1  0.86370482  0.87074634  0.25211414  1  0.099674  0  0.105941  0.095689  0  1.047885  0
H  H47  1  0.26133035  0.10283323  0.59200919  1  0.081505  0  0.115563  0.102502  0  1.017414  0
H  H48  1  0.77930038  0.84891575  0.59746496  1  0.047355  0  0.117087  0.104141  0  1.001357  0
H  H49  1  0.28425497  0.43045336  0.62513589  1  0.033037  0  0.090229  0.125058  0  1.016816  0
H  H50  1  0.25740413  0.44753975  0.54254456  1  -0.002817  0  0.088972  0.119341  0  0.996089  0
H  H51  1  0.33690211  0.53311442  0.63094769  1  0.019895  0  0.092453  0.127829  0  0.999757  0
H  H52  1  0.70412123  0.61882218  0.06137428  1  0.039001  0  0.090547  0.126967  0  0.996569  0
H  H53  1  0.75170524  0.69803875  0.15747674  1  0.055871  0  0.081872  0.116081  0  1.040089  0
H  H54  1  0.80323201  0.64310935  0.12519065  1  0.020159  0  0.088193  0.12019  0  0.999573  0
H  H55  1  0.27611828  0.15072789  0.45889293  1  0.086131  0  0.115775  0.103426  0  1.001902  0
H  H56  1  0.13076713  0.08692584  0.73733751  1  0.089037  0  0.118146  0.104638  0  1.000132  0
H  H57  1  0.14605566  0.86884632  0.50735719  1  0.087627  0  0.115851  0.10184  0  1.00974  0
H  H58  1  0.21180787  0.80972069  0.57396284  1  0.057097  0  0.099122  0.103716  0  1.00806  0
C  C59  1  0.95940445  0.07842136  0.35274698  1  0.450697  0  0.009698  -0.046481  0  3.960519  0
C  C60  1  0.23561669  0.08276638  0.43664338  1  0.404354  0  0.002166  -0.063733  0  4.008352  0
C  C61  1  0.15124275  0.08797589  0.69234961  1  0.395947  0  0.010451  -0.042818  0  3.960943  0
C  C62  1  0.78884063  0.94755760  0.41059990  1  0.446497  0  0.008982  -0.043974  0  3.955616  0
C  C63  1  0.09997799  0.86812172  0.52974770  1  0.420768  0  0.009094  -0.044978  0  3.958945  0
C  C64  1  0.22928975  0.10216922  0.69174339  1  0.043481  0  -0.034955  -0.041685  0  4.067702  0
C  C65  1  0.08339272  0.84024979  0.58378020  1  -0.016086  0  -0.037307  -0.042151  0  4.067286  0
C  C66  1  0.24959956  0.01456175  0.40480466  1  -0.004708  0  -0.039981  -0.0405  0  4.093566  0
C  C67  1  0.83832101  0.98284953  0.69009164  1  0.026586  0  -0.039285  -0.043071  0  4.098068  0
C  C68  1  0.17833287  0.77673260  0.60096916  1  -0.019234  0  -0.09393  -0.192064  0  3.93325  0
C  C69  1  0.11543659  0.79197182  0.61526613  1  -0.00272  0  -0.0095  0.096536  0  4.078872  0
C  C70  1  0.77914354  0.02063708  0.42631606  1  0.023662  0  -0.035331  -0.0365  0  4.059649  0
C  C71  1  0.07631589  0.75096442  0.65312726  1  -0.037698  0  -0.095183  -0.19243  0  3.942734  0
C  C72  1  0.09159632  0.68920328  0.66903125  1  -0.038656  0  -0.011657  0.082207  0  4.061627  0
C  C73  1  0.14983489  0.66814282  0.64747235  1  0.046486  0  -0.002344  -0.004197  0  3.920335  0
C  C74  1  0.85541440  0.72254079  0.29287471  1  0.387585  0  0.006151  -0.055004  0  4.001087  0
C  C75  1  0.19629934  0.71576733  0.61635595  1  -0.023034  0  -0.011416  0.08089  0  4.059849  0
C  C76  1  0.04581034  0.64152443  0.70098444  1  -0.060891  0  -0.097256  -0.141487  0  4.034352  0
C  C77  1  0.05170866  0.57244942  0.70439787  1  -0.008949  0  -0.096055  -0.13596  0  4.033506  0
C  C78  1  0.10469499  0.54601318  0.67722446  1  0.049039  0  -0.01649  0.071295  0  4.082442  0
C  C79  1  0.15717956  0.59716648  0.65222695  1  -0.059272  0  -0.001302  0.003644  0  3.938259  0
C  C80  1  0.21288208  0.57347261  0.62808538  1  0.006257  0  -0.013091  0.015324  0  4.000325  0
C  C81  1  0.77523086  0.66870428  0.28334648  1  0.02776  0  -0.03688  -0.031039  0  4.091427  0
C  C82  1  0.26432752  0.62743705  0.60364623  1  -0.106529  0  -0.099702  -0.138059  0  4.036013  0
C  C83  1  0.25597043  0.69468078  0.59748538  1  -0.021323  0  -0.093703  -0.135876  0  4.025805  0
C  C84  1  0.10215373  0.46856913  0.66868807  1  -0.048872  0  -0.097115  -0.189844  0  3.990636  0
C  C85  1  0.15166482  0.44103729  0.63935683  1  0.008555  0  -0.015449  0.022143  0  4.039451  0
C  C86  1  0.08994053  0.29878570  0.64788975  1  0.40425  0  0.004768  -0.05974  0  3.998441  0
C  C87  1  0.21243643  0.49681790  0.62459885  1  -0.005796  0  -0.00898  0.073515  0  3.885084  0
C  C88  1  0.32363214  0.94274820  0.35345056  1  -0.001145  0  -0.096791  -0.193321  0  3.949336  0
C  C89  1  0.32434464  0.01766827  0.39550628  1  -0.073041  0  -0.015023  0.087463  0  4.09664  0
C  C90  1  0.39903711  0.09536983  0.43011310  1  -0.021304  0  -0.096873  -0.194658  0  3.951329  0
C  C91  1  0.47280258  0.09946165  0.42566587  1  -0.056892  0  -0.01328  0.080853  0  4.062474  0
C  C92  1  0.13286668  0.35246541  0.62012061  1  0.007757  0  -0.037371  -0.029653  0  4.074275  0
C  C93  1  0.47216772  0.02242668  0.38525402  1  0.041429  0  -0.000503  -0.003096  0  3.919702  0
C  C94  1  0.39584099  0.94339817  0.34770398  1  -0.012618  0  -0.012078  0.080622  0  4.064114  0
C  C95  1  0.55018562  0.17798936  0.46238320  1  0.018211  0  -0.096091  -0.140397  0  4.030658  0
C  C96  1  0.62269347  0.17938717  0.46226575  1  -0.092161  0  -0.095013  -0.138189  0  4.029392  0
C  C97  1  0.62458586  0.10230330  0.42584994  1  -0.040486  0  -0.012258  0.078484  0  4.059504  0
C  C98  1  0.77153931  0.71349001  0.35060205  1  0.380671  0  0.000532  -0.068808  0  4.007126  0
C  C99  1  0.54745493  0.02390115  0.38518813  1  0.043584  0  -0.000411  0.001312  0  3.917731  0
C  C100  1  0.54752039  0.94637375  0.34782066  1  -0.007974  0  -0.01143  0.079682  0  4.059229  0
C  C101  1  0.46921587  0.86848608  0.30689434  1  -0.069469  0  -0.094707  -0.137226  0  4.028527  0
C  C102  1  0.39671578  0.86703717  0.30700601  1  -0.042002  0  -0.095336  -0.137966  0  4.031333  0
C  C103  1  0.21840025  0.09745553  0.61877771  1  0.378798  0  0.006311  -0.04566  0  3.959263  0
C  C104  1  0.69949431  0.10066115  0.43301058  1  -0.101204  0  -0.093677  -0.189148  0  3.939583  0
C  C105  1  0.70080882  0.02378947  0.40228187  1  0.033916  0  -0.010912  0.093039  0  4.079637  0
C  C106  1  0.62403276  0.94808384  0.35662150  1  -0.049771  0  -0.091436  -0.187496  0  3.93748  0
C  C107  1  0.30707426  0.13369936  0.75740711  1  -0.003332  0  -0.010097  0.088175  0  4.040299  0
C  C108  1  0.30731999  0.13030194  0.82607731  1  -0.017512  0  -0.09507  -0.137293  0  4.001969  0
C  C109  1  0.37950807  0.18003566  0.89401252  1  -0.057694  0  -0.09276  -0.124364  0  3.983585  0
C  C110  1  0.14109989  0.29668796  0.56230906  1  0.403427  0  0.00343  -0.061447  0  4.004655  0
C  C111  1  0.45526852  0.23575625  0.89662121  1  -0.008007  0  -0.020267  0.100319  0  4.061558  0
C  C112  1  0.45724504  0.22968176  0.82619037  1  -0.039452  0  -0.094983  -0.131518  0  4.00365  0
C  C113  1  0.38495867  0.18012019  0.75822197  1  -0.047705  0  -0.097889  -0.138297  0  4.010945  0
C  C114  1  0.01736422  0.85559640  0.58930677  1  0.421282  0  0.008454  -0.048129  0  3.969259  0
C  C115  1  0.63893851  0.48636043  0.08521606  1  -0.046273  0  -0.098417  -0.197135  0  3.94323  0
C  C116  1  0.69811273  0.56788485  0.14285521  1  -0.035332  0  -0.013124  0.126129  0  3.953821  0
C  C117  1  0.66423297  0.51959036  0.23425128  1  -0.053989  0  -0.100533  -0.136219  0  4.047256  0
C  C118  1  0.60471851  0.43900943  0.17574150  1  -0.025945  0  -0.1016  -0.148557  0  4.020028  0
C  C119  1  0.59191367  0.41988943  0.09945436  1  -0.026666  0  -0.018242  0.112419  0  4.079294  0
C  C120  1  0.52590578  0.30620087  0.96634226  1  -0.105806  0  -0.097579  -0.138204  0  4.024269  0
C  C121  1  0.52816752  0.33656656  0.03694034  1  0.025695  0  -0.098268  -0.139434  0  4.005163  0
C  C122  1  0.85845232  0.08659399  0.48345251  1  0.41817  0  0.007564  -0.049558  0  3.965193  0
C  C123  1  0.71249900  0.58508738  0.21974087  1  0.008633  0  -0.015416  0.019389  0  4.000426  0
C  C124  1  0.85394809  0.01347138  0.21375028  1  0.058886  0  -0.011815  0.0283  0  4.008386  0
C  C125  1  0.17515567  0.94267667  0.38619883  1  0.451461  0  0.003175  -0.06066  0  4.000782  0
C  C126  1  0.78241788  0.94495111  0.14773186  1  -0.010979  0  0.012368  0.106347  0  4.011028  0
C  C127  1  0.75418721  0.95023572  0.07945810  1  0.051225  0  -0.098493  -0.198962  0  3.956185  0
C  C128  1  0.79468300  0.02581574  0.07352707  1  -0.043969  0  -0.01551  0.120927  0  4.066242  0
C  C129  1  0.85942493  0.09752442  0.14131088  1  -0.01744  0  -0.096672  -0.14188  0  4.008003  0
C  C130  1  0.88834188  0.09074160  0.20830659  1  -0.052656  0  -0.093533  -0.119371  0  4.01157  0
C  C131  1  0.79150570  0.04997260  0.86073894  1  -0.039017  0  -0.092319  -0.124253  0  3.984264  0
C  C132  1  0.81581983  0.05293075  0.80253250  1  -0.051959  0  -0.097458  -0.137148  0  4.007209  0
C  C133  1  0.75172859  0.90002841  0.74165229  1  -0.062282  0  -0.099729  -0.139365  0  4.010203  0
C  C134  1  0.90033600  0.93795678  0.29132511  1  0.441703  0  0.004882  -0.045895  0  3.966015  0
C  C135  1  0.72701997  0.89702368  0.79982616  1  -0.028967  0  -0.092807  -0.130165  0  4.000557  0
C  C136  1  0.90394489  0.05471955  0.69623299  1  0.379716  0  0.005615  -0.058408  0  3.998597  0
C  C137  1  0.75028797  0.97196027  0.86319230  1  -0.054981  0  -0.018634  0.101326  0  4.057321  0
C  C138  1  0.78143874  0.03156285  0.00171198  1  -0.013979  0  -0.096188  -0.134921  0  4.00665  0
C  C139  1  0.74117716  0.96593225  0.93063078  1  -0.025895  0  -0.095099  -0.134316  0  4.003948  0
C  C140  1  0.80033045  0.97834829  0.74348888  1  0.017194  0  -0.011626  0.084095  0  4.04934  0
C  C141  1  0.89754362  0.00851321  0.28221787  1  -0.031063  0  -0.037166  -0.033839  0  4.061189  0
C  C142  1  0.27567131  0.47568664  0.60460817  1  -0.011295  0  -0.240012  -0.404277  0  4.002934  0
C  C143  1  0.74152554  0.63555278  0.12079393  1  -0.079854  0  -0.24055  -0.406614  0  3.997042  0
C  C144  1  0.82446787  0.91629001  0.62446808  1  0.445167  0  0.005443  -0.058049  0  3.996964  0
N  N145  1  0.99597303  0.05102721  0.39830143  1  -0.788818  0  -0.28091  -0.171659  0  3.647957  0
N  N146  1  0.89582141  0.79272658  0.35989562  1  -0.792868  0  -0.272702  -0.176415  0  3.550812  0
N  N147  1  0.07431211  0.21861358  0.60998220  1  -0.788839  0  -0.26899  -0.170526  0  3.543423  0
N  N148  1  0.84353768  0.78762293  0.39590597  1  -0.791777  0  -0.2702  -0.175528  0  3.548448  0
N  N149  1  0.10628930  0.21740656  0.55661255  1  -0.797884  0  -0.274218  -0.176563  0  3.563039  0
N  N150  1  0.90966482  0.05430353  0.50088709  1  -0.804465  0  -0.285729  -0.187859  0  3.642315  0
N  N151  1  0.95983734  0.96492952  0.36054521  1  -0.797797  0  -0.281062  -0.176791  0  3.637147  0
N  N152  1  0.14088428  0.08336638  0.58055816  1  -0.780499  0  -0.284118  -0.188615  0  3.644473  0
N  N153  1  0.99632736  0.88833596  0.54147501  1  -0.785715  0  -0.283941  -0.180316  0  3.652137  0
N  N154  1  0.12183035  0.96645645  0.40534075  1  -0.766465  0  -0.269875  -0.174184  0  3.550613  0
N  N155  1  0.92698928  0.03258806  0.63936449  1  -0.798878  0  -0.271551  -0.171632  0  3.54812  0
N  N156  1  0.87723059  0.94619983  0.59441846  1  -0.786651  0  -0.267956  -0.168962  0  3.533724  0
N  N157  1  0.15938210  0.05375345  0.43661371  1  -0.812706  0  -0.269911  -0.174356  0  3.539391  0
N  N158  1  0.09969154  0.07767264  0.62579509  1  -0.793103  0  -0.284783  -0.181203  0  3.651045  0
N  N159  1  0.04691972  0.89589375  0.50469983  1  -0.801809  0  -0.279285  -0.175982  0  3.625792  0
N  N160  1  0.86679238  0.96869942  0.45621821  1  -0.775166  0  -0.283304  -0.183732  0  3.626654  0
Cl  Cl161  1  0.72578853  0.84859127  0.14829861  1  -0.240922  0  -0.018361  -0.101223  0  1.487992  0
