# generated using pymatgen
data_CdH24C36(NF2)4
_symmetry_space_group_name_H-M   'P 1'
_cell_length_a   12.72097416
_cell_length_b   12.70028826
_cell_length_c   15.30295092
_cell_angle_alpha   108.58632147
_cell_angle_beta   108.60386837
_cell_angle_gamma   103.63824537
_symmetry_Int_Tables_number   1
_chemical_formula_structural   CdH24C36(NF2)4
_chemical_formula_sum   'Cd2 H48 C72 N8 F16'
_cell_volume   2058.26884494
_cell_formula_units_Z   2
loop_
 _symmetry_equiv_pos_site_id
 _symmetry_equiv_pos_as_xyz
  1  'x, y, z'
loop_
 _atom_site_type_symbol
 _atom_site_label
 _atom_site_symmetry_multiplicity
 _atom_site_fract_x
 _atom_site_fract_y
 _atom_site_fract_z
 _atom_site_occupancy
 _atom_site_pbe_bader_charge
 _atom_site_pbe_bader_spin_density
 _atom_site_pbe_cm5_charge
 _atom_site_pbe_ddec_charge
 _atom_site_pbe_ddec_spin_density
 _atom_site_pbe_ddec_sum_bond_order
 _atom_site_pbe_magmom
Cd  Cd0  1  0.00077361  0.73410413  0.70514735  1  0.143694  0  0.125848  0.005397  0  1.031806  0
Cd  Cd1  1  0.73326815  0.00024753  0.20453661  1  0.144537  0  0.126239  0.005939  0  1.032801  0
H  H2  1  0.03952351  0.01368417  0.67299093  1  0.065968  0  0.109423  0.078655  0  0.977926  0
H  H3  1  0.79113596  0.70131889  0.42216298  1  0.068039  0  0.101971  0.065311  0  0.989524  0
H  H4  1  0.92260894  0.13425651  0.62223191  1  0.087822  0  0.104436  0.11451  0  0.993816  0
H  H5  1  0.66482334  0.80838238  0.35974992  1  0.065695  0  0.096981  0.106664  0  1.018813  0
H  H6  1  0.20866146  0.63146557  0.76188358  1  0.056  0  0.09925  0.063108  0  1.008694  0
H  H7  1  0.32693245  0.97294549  0.98710187  1  0.123488  0  0.106889  0.077323  0  1.015161  0
H  H8  1  0.30811778  0.55877920  0.88561964  1  0.066522  0  0.096388  0.105166  0  1.02173  0
H  H9  1  0.43488621  0.91580586  0.12290640  1  0.103143  0  0.094252  0.099197  0  1.033017  0
H  H10  1  0.38581259  0.66956028  0.13110022  1  0.096776  0  0.101242  0.121129  0  0.978005  0
H  H11  1  0.52453607  0.77291917  0.15618845  1  0.098174  0  0.087589  0.091225  0  1.047076  0
H  H12  1  0.67775172  0.01947337  0.36962873  1  0.083212  0  0.077211  0.075482  0  1.081935  0
H  H13  1  0.76213988  0.14450302  0.49018416  1  0.076003  0  0.097335  0.110398  0  1.01326  0
H  H14  1  0.99258639  0.94080439  0.84662884  1  0.085796  0  0.087293  0.048387  0  1.060449  0
H  H15  1  0.31404071  0.19796117  0.08025048  1  0.033547  0  0.101685  0.064975  0  0.988594  0
H  H16  1  0.87989331  0.06925099  0.89387647  1  0.06647  0  0.103297  0.112452  0  0.99796  0
H  H17  1  0.21552494  0.33634324  0.13834685  1  0.050393  0  0.096623  0.106665  0  1.013805  0
H  H18  1  0.31971626  0.81279385  0.72830175  1  0.081793  0  0.108383  0.075929  0  1.020534  0
H  H19  1  0.99659572  0.68760764  0.48007992  1  0.086152  0  0.106787  0.073648  0  1.026805  0
H  H20  1  0.41152130  0.71375057  0.62008807  1  0.062342  0  0.09876  0.107853  0  1.01474  0
H  H21  1  0.07342493  0.58383647  0.35932638  1  0.061902  0  0.104565  0.115947  0  0.992188  0
H  H22  1  0.32740583  0.63758533  0.37543642  1  0.092622  0  0.103127  0.121153  0  0.982313  0
H  H23  1  0.22414570  0.49712293  0.34504355  1  0.049094  0  0.102554  0.117035  0  0.984058  0
H  H24  1  0.00184024  0.32684898  0.13558073  1  0.049599  0  0.103447  0.117171  0  0.966877  0
H  H25  1  0.87729055  0.24049230  0.01569741  1  0.106027  0  0.097388  0.103187  0  1.039611  0
H  H26  1  0.94145386  0.99243322  0.34569518  1  0.079781  0  0.087719  0.048863  0  1.059085  0
H  H27  1  0.19702293  0.31391860  0.58105993  1  0.036289  0  0.101879  0.06523  0  0.988203  0
H  H28  1  0.06938159  0.87924514  0.39276621  1  0.059162  0  0.1036  0.113666  0  0.996147  0
H  H29  1  0.33487250  0.21488577  0.63902977  1  0.052461  0  0.09662  0.106628  0  1.01363  0
H  H30  1  0.81210595  0.31901445  0.22768509  1  0.083793  0  0.108415  0.077011  0  1.020336  0
H  H31  1  0.68795809  0.99607001  0.97872279  1  0.083105  0  0.106952  0.073931  0  1.026913  0
H  H32  1  0.71294660  0.41139648  0.11996556  1  0.063277  0  0.098582  0.107988  0  1.013574  0
H  H33  1  0.58428541  0.07360542  0.85842019  1  0.087524  0  0.104804  0.116201  0  0.990708  0
H  H34  1  0.63704483  0.32727639  0.87476734  1  0.100283  0  0.103209  0.121929  0  0.981392  0
H  H35  1  0.49694694  0.22381073  0.84457609  1  0.064978  0  0.102605  0.11686  0  0.985052  0
H  H36  1  0.32646303  0.00169793  0.63545225  1  0.068505  0  0.103347  0.117013  0  0.966982  0
H  H37  1  0.24052354  0.87670286  0.51568971  1  0.101881  0  0.097475  0.103349  0  1.039818  0
H  H38  1  0.01334169  0.03935924  0.17402398  1  0.056679  0  0.10956  0.078863  0  0.977848  0
H  H39  1  0.70177192  0.79149179  0.92244926  1  0.038152  0  0.101622  0.064689  0  0.990266  0
H  H40  1  0.13359194  0.92241525  0.12269471  1  0.093235  0  0.104519  0.114197  0  0.994231  0
H  H41  1  0.80856054  0.66525843  0.85947239  1  0.069056  0  0.096948  0.106473  0  1.018186  0
H  H42  1  0.63140701  0.20880764  0.26167057  1  0.060342  0  0.099514  0.063154  0  1.00915  0
H  H43  1  0.97239387  0.32711381  0.48650589  1  0.087036  0  0.107473  0.077953  0  1.015299  0
H  H44  1  0.55900466  0.30768456  0.38578512  1  0.069098  0  0.096723  0.105286  0  1.021957  0
H  H45  1  0.91554079  0.43445554  0.62260947  1  0.104561  0  0.0945  0.09932  0  1.033138  0
H  H46  1  0.66912416  0.38440769  0.63067960  1  0.094245  0  0.1009  0.120922  0  0.977657  0
H  H47  1  0.77222009  0.52365273  0.65623051  1  0.103571  0  0.088136  0.091682  0  1.044929  0
H  H48  1  0.01962885  0.67827497  0.86975983  1  0.084791  0  0.077302  0.075658  0  1.082744  0
H  H49  1  0.14428126  0.76306691  0.99041628  1  0.055403  0  0.09731  0.11062  0  1.013048  0
C  C50  1  0.26066917  0.69286131  0.84293977  1  0.526095  0  0.030201  0.080929  0  4.035966  0
C  C51  1  0.32729073  0.88244753  0.96796643  1  0.461206  0  0.039644  0.091909  0  3.995608  0
C  C52  1  0.31576773  0.65200961  0.91248086  1  -0.036284  0  -0.102103  -0.201918  0  3.970577  0
C  C53  1  0.38547571  0.84985847  0.04338614  1  -0.065245  0  -0.096393  -0.201989  0  3.971556  0
C  C54  1  0.38100094  0.73203115  0.01571690  1  -0.078677  0  0.004319  0.167365  0  3.929448  0
C  C55  1  0.44464660  0.69469858  0.09577414  1  -0.032807  0  -0.15332  -0.213785  0  3.930602  0
C  C56  1  0.48099775  0.59246740  0.05291154  1  0.082989  0  -0.023846  -0.058783  0  4.048551  0
C  C57  1  0.58882090  0.61227165  0.04350330  1  0.524265  0  0.084945  0.126745  0  4.094781  0
C  C58  1  0.61960343  0.51817050  0.99749992  1  0.517315  0  0.081393  0.115537  0  4.108175  0
C  C59  1  0.95535808  0.97076243  0.60386161  1  0.57123  0  0.037807  0.090976  0  4.002977  0
C  C60  1  0.81836133  0.79807111  0.46466099  1  0.486895  0  0.030762  0.082486  0  4.043652  0
C  C61  1  0.88992367  0.03801773  0.57571636  1  -0.113994  0  -0.089385  -0.186277  0  3.949344  0
C  C62  1  0.74727043  0.85747034  0.42997820  1  0.006993  0  -0.097257  -0.201123  0  3.984425  0
C  C63  1  0.78272224  0.98073685  0.48684538  1  -0.0554  0  0.005419  0.167581  0  3.930299  0
C  C64  1  0.70741597  0.04840936  0.45249383  1  -0.004744  0  -0.155918  -0.206259  0  3.91786  0
C  C65  1  0.60013512  0.02918499  0.47630174  1  0.131089  0  -0.02029  -0.051663  0  4.027317  0
C  C66  1  0.60845650  0.10041505  0.57093878  1  0.480263  0  0.084207  0.121619  0  4.095243  0
C  C67  1  0.51100111  0.08327361  0.59501094  1  0.461003  0  0.081406  0.116262  0  4.101426  0
C  C68  1  0.26835764  0.76089572  0.64582602  1  0.501011  0  0.037623  0.086499  0  4.004449  0
C  C69  1  0.08819547  0.69050984  0.50752724  1  0.511632  0  0.037622  0.083277  0  4.008571  0
C  C70  1  0.31888252  0.70547240  0.58512694  1  -0.019889  0  -0.097838  -0.202244  0  3.968258  0
C  C71  1  0.13124164  0.63319061  0.44096850  1  -0.042628  0  -0.090886  -0.194198  0  3.96097  0
C  C72  1  0.24935063  0.63926597  0.48007011  1  -0.042328  0  0.005428  0.16485  0  3.943011  0
C  C73  1  0.29757296  0.57785047  0.40862233  1  0.02815  0  -0.150551  -0.221378  0  3.957885  0
C  C74  1  0.39885942  0.54431255  0.45795182  1  0.059758  0  -0.027068  -0.069226  0  4.074929  0
C  C75  1  0.37854083  0.43693411  0.46842634  1  0.508776  0  0.084335  0.119273  0  4.103395  0
C  C76  1  0.47246379  0.40589968  0.51468139  1  0.501674  0  0.082102  0.111371  0  4.108295  0
C  C77  1  0.03967086  0.02998320  0.91081739  1  0.483761  0  0.03651  0.102624  0  4.007151  0
C  C78  1  0.21717575  0.17154804  0.04055973  1  0.51067  0  0.030852  0.081174  0  4.063191  0
C  C79  1  0.97660046  0.10152714  0.93715558  1  0.001735  0  -0.090749  -0.185712  0  3.942905  0
C  C80  1  0.16225959  0.24919733  0.07315153  1  -0.009094  0  -0.099551  -0.202271  0  3.984653  0
C  C81  1  0.03847259  0.21398165  0.02045521  1  -0.029994  0  0.003683  0.163448  0  3.939358  0
C  C82  1  0.97345831  0.29368823  0.05289630  1  -0.021303  0  -0.14997  -0.212821  0  3.943181  0
C  C83  1  0.99400720  0.39922667  0.02652212  1  0.136482  0  -0.024085  -0.063147  0  4.047365  0
C  C84  1  0.92305544  0.39064960  0.93169356  1  0.501483  0  0.084097  0.122024  0  4.089153  0
C  C85  1  0.94024774  0.48837981  0.90753412  1  0.50542  0  0.084316  0.120532  0  4.084971  0
C  C86  1  0.76037904  0.26783904  0.14514113  1  0.518449  0  0.03802  0.085527  0  4.002171  0
C  C87  1  0.69064870  0.08775244  0.00647230  1  0.514305  0  0.037008  0.081761  0  4.011024  0
C  C88  1  0.70493248  0.31869515  0.08468606  1  -0.027688  0  -0.097754  -0.202254  0  3.965243  0
C  C89  1  0.63337085  0.13112499  0.94014913  1  -0.065308  0  -0.091542  -0.194507  0  3.960891  0
C  C90  1  0.63909616  0.24925994  0.97954841  1  -0.044757  0  0.00559  0.165513  0  3.943093  0
C  C91  1  0.57757032  0.29738353  0.90805597  1  0.003817  0  -0.150849  -0.222484  0  3.961076  0
C  C92  1  0.54418657  0.39874556  0.95746875  1  0.05069  0  -0.027396  -0.069197  0  4.076838  0
C  C93  1  0.43666726  0.37845985  0.96735560  1  0.514158  0  0.084066  0.119324  0  4.102648  0
C  C94  1  0.40617331  0.47273812  0.01392011  1  0.504399  0  0.080664  0.109592  0  4.111075  0
C  C95  1  0.03021212  0.03942978  0.41027239  1  0.524581  0  0.036492  0.102337  0  4.00559  0
C  C96  1  0.17086416  0.21696934  0.54094932  1  0.549271  0  0.031226  0.081316  0  4.062247  0
C  C97  1  0.10153054  0.97606175  0.43650348  1  -0.029914  0  -0.090902  -0.187066  0  3.940858  0
C  C98  1  0.24821746  0.16175945  0.57342662  1  -0.040338  0  -0.099508  -0.202083  0  3.985133  0
C  C99  1  0.21351842  0.03792994  0.52018564  1  -0.034251  0  0.00432  0.164575  0  3.939158  0
C  C100  1  0.29346356  0.97311212  0.55274062  1  -0.036202  0  -0.15034  -0.213428  0  3.941907  0
C  C101  1  0.39897584  0.99389840  0.52649550  1  0.128413  0  -0.023996  -0.063721  0  4.046995  0
C  C102  1  0.39040323  0.92298271  0.43162278  1  0.494355  0  0.084187  0.122192  0  4.088841  0
C  C103  1  0.48788800  0.94002417  0.40733696  1  0.507872  0  0.084364  0.120713  0  4.084828  0
C  C104  1  0.69273952  0.26064103  0.34270049  1  0.514225  0  0.029574  0.080146  0  4.038945  0
C  C105  1  0.88202255  0.32728467  0.46753091  1  0.495897  0  0.038869  0.090733  0  3.996905  0
C  C106  1  0.65204627  0.31539042  0.41241900  1  -0.057893  0  -0.101882  -0.200881  0  3.972389  0
C  C107  1  0.84956475  0.38516928  0.54313553  1  -0.062799  0  -0.095932  -0.201083  0  3.970519  0
C  C108  1  0.73188102  0.38048851  0.51564167  1  -0.052345  0  0.003582  0.166415  0  3.929236  0
C  C109  1  0.69421711  0.44367876  0.59560521  1  -0.039302  0  -0.152444  -0.213124  0  3.926469  0
C  C110  1  0.59208086  0.48014789  0.55278148  1  0.12349  0  -0.02518  -0.061168  0  4.04783  0
C  C111  1  0.61193754  0.58773493  0.54263403  1  0.484798  0  0.083975  0.125011  0  4.098036  0
C  C112  1  0.51820987  0.61910945  0.49702666  1  0.518764  0  0.082425  0.117549  0  4.106912  0
C  C113  1  0.97055697  0.95538491  0.10462747  1  0.563797  0  0.038851  0.091912  0  4.001795  0
C  C114  1  0.79832102  0.81863637  0.96500756  1  0.502828  0  0.03056  0.081773  0  4.043448  0
C  C115  1  0.03759944  0.88997497  0.07614551  1  -0.132308  0  -0.090236  -0.18659  0  3.948505  0
C  C116  1  0.85754630  0.74756286  0.92996600  1  0.011747  0  -0.097083  -0.200333  0  3.982593  0
C  C117  1  0.98057610  0.78302139  0.98693016  1  -0.026553  0  0.005596  0.167551  0  3.930236  0
C  C118  1  0.04844300  0.70804992  0.95260494  1  0.018123  0  -0.156037  -0.206911  0  3.92015  0
C  C119  1  0.02950246  0.60066822  0.97647030  1  0.122289  0  -0.020505  -0.051141  0  4.028012  0
C  C120  1  0.10082354  0.60894833  0.07102886  1  0.481712  0  0.084666  0.122403  0  4.093325  0
C  C121  1  0.08352055  0.51126291  0.09498565  1  0.45478  0  0.080834  0.115216  0  4.102013  0
N  N122  1  0.26634592  0.80600533  0.86880343  1  -1.212916  0  -0.327443  -0.259868  0  3.376912  0
N  N123  1  0.92089378  0.85234315  0.55008789  1  -1.210523  0  -0.326873  -0.264106  0  3.384561  0
N  N124  1  0.15474316  0.75329902  0.60856246  1  -1.228201  0  -0.325194  -0.226533  0  3.395039  0
N  N125  1  0.15836166  0.06326462  0.96099217  1  -1.214056  0  -0.327278  -0.277344  0  3.33134  0
N  N126  1  0.75309024  0.15413481  0.10758257  1  -1.237019  0  -0.3252  -0.226521  0  3.39469  0
N  N127  1  0.06314922  0.15821217  0.46088072  1  -1.216988  0  -0.327923  -0.278339  0  3.330463  0
N  N128  1  0.80571001  0.26649618  0.36837422  1  -1.214767  0  -0.326986  -0.259342  0  3.379117  0
N  N129  1  0.85237908  0.92096947  0.05073806  1  -1.206516  0  -0.326475  -0.2633  0  3.385588  0
F  F130  1  0.66577004  0.72584968  0.07867976  1  -0.640442  0  -0.087959  -0.111169  0  1.485724  0
F  F131  1  0.72631168  0.54398526  0.99142538  1  -0.626896  0  -0.090054  -0.110122  0  1.389777  0
F  F132  1  0.71452498  0.18963458  0.64200415  1  -0.62516  0  -0.087171  -0.111414  0  1.413881  0
F  F133  1  0.52687977  0.15625423  0.68948156  1  -0.635719  0  -0.087188  -0.121883  0  1.421608  0
F  F134  1  0.26425675  0.36018408  0.43162874  1  -0.62329  0  -0.086323  -0.103502  0  1.384884  0
F  F135  1  0.44631424  0.29888236  0.52058542  1  -0.626731  0  -0.08965  -0.112867  0  1.397622  0
F  F136  1  0.83341216  0.28443147  0.86107324  1  -0.624357  0  -0.088587  -0.111559  0  1.404364  0
F  F137  1  0.86681127  0.47277034  0.81355535  1  -0.632385  0  -0.086352  -0.110215  0  1.407339  0
F  F138  1  0.35939459  0.26404319  0.92974854  1  -0.620791  0  -0.086237  -0.10359  0  1.383058  0
F  F139  1  0.29903594  0.44694383  0.01928186  1  -0.62757  0  -0.088942  -0.112395  0  1.398708  0
F  F140  1  0.28428711  0.83335913  0.36099070  1  -0.624845  0  -0.088805  -0.111806  0  1.405305  0
F  F141  1  0.47203592  0.86654189  0.31324351  1  -0.631595  0  -0.086584  -0.1101  0  1.407567  0
F  F142  1  0.72539609  0.66392235  0.57672770  1  -0.638022  0  -0.086829  -0.109992  0  1.487951  0
F  F143  1  0.54442971  0.72568605  0.49041551  1  -0.623109  0  -0.090985  -0.111276  0  1.388716  0
F  F144  1  0.19014570  0.71506184  0.14205483  1  -0.626251  0  -0.087405  -0.111611  0  1.412422  0
F  F145  1  0.15645854  0.52683423  0.18931835  1  -0.63448  0  -0.086977  -0.121817  0  1.421599  0
