# generated using pymatgen
data_Nd3PH19C13NO24
_symmetry_space_group_name_H-M   'P 1'
_cell_length_a   10.89192023
_cell_length_b   10.77974084
_cell_length_c   11.76250000
_cell_angle_alpha   90.00000000
_cell_angle_beta   90.00000000
_cell_angle_gamma   106.31370804
_symmetry_Int_Tables_number   1
_chemical_formula_structural   Nd3PH19C13NO24
_chemical_formula_sum   'Nd6 P2 H38 C26 N2 O48'
_cell_volume   1325.45549790
_cell_formula_units_Z   2
loop_
 _symmetry_equiv_pos_site_id
 _symmetry_equiv_pos_as_xyz
  1  'x, y, z'
loop_
 _atom_site_type_symbol
 _atom_site_label
 _atom_site_symmetry_multiplicity
 _atom_site_fract_x
 _atom_site_fract_y
 _atom_site_fract_z
 _atom_site_occupancy
 _atom_site_hle17_bader_spin_density
 _atom_site_hle17_ddec_charge
 _atom_site_hle17_ddec_spin_density
 _atom_site_hle17_ddec_sum_bond_order
 _atom_site_hle17_magmom
 _atom_site_hse06_10hf_bader_spin_density
 _atom_site_hse06_10hf_ddec_charge
 _atom_site_hse06_10hf_ddec_spin_density
 _atom_site_hse06_10hf_ddec_sum_bond_order
 _atom_site_hse06_10hf_magmom
 _atom_site_hse06_bader_spin_density
 _atom_site_hse06_ddec_charge
 _atom_site_hse06_ddec_spin_density
 _atom_site_hse06_ddec_sum_bond_order
 _atom_site_hse06_magmom
 _atom_site_pbe_bader_charge
 _atom_site_pbe_bader_spin_density
 _atom_site_pbe_cm5_charge
 _atom_site_pbe_ddec_charge
 _atom_site_pbe_ddec_spin_density
 _atom_site_pbe_ddec_sum_bond_order
 _atom_site_pbe_magmom
Nd  Nd0  1  0.03173931  0.69420053  0.10489267  1  0  2.225346  0  1.667419  0  0  2.049238  0  2.153906  0  0  2.090954  0  2.112923  0  2.2335  0  1.487204  2.017774  0  2.185305  0
Nd  Nd1  1  0.96825491  0.30579868  0.60488417  1  0  2.225285  0  1.667399  0  0  2.049189  0  2.153879  0  0  2.090912  0  2.112888  0  2.23356  0  1.487184  2.017697  0  2.185332  0
Nd  Nd2  1  0.81035194  0.69292464  0.60640000  1  0  2.271845  0  1.658913  0  0  2.096776  0  2.136437  0  0  2.139649  0  2.093252  0  2.230789  0  1.509684  2.06355  0  2.169606  0
Nd  Nd3  1  0.18965017  0.30707650  0.10639065  1  0  2.271793  0  1.659084  0  0  2.096721  0  2.136626  0  0  2.139605  0  2.09343  0  2.230672  0  1.509548  2.063491  0  2.169806  0
Nd  Nd4  1  0.57817074  0.60976085  0.25718597  1  0  2.351142  0  1.549972  0  0  2.24772  0  1.899855  0  0  2.28548  0  1.85985  0  2.260882  0  1.477927  2.162488  0  2.035608  0
Nd  Nd5  1  0.42182969  0.39024416  0.75718682  1  0  2.351136  0  1.549968  0  0  2.247706  0  1.899851  0  0  2.285466  0  1.859845  0  2.260891  0  1.47787  2.162484  0  2.035586  0
P  P6  1  0.47935659  0.66964354  0.55853518  1  0  1.578154  0  4.874756  0  0  1.426045  0  5.389759  0  0  1.478233  0  5.344042  0  3.438569  0  0.351892  1.388965  0  5.416928  0
P  P7  1  0.52064789  0.33035954  0.05853262  1  0  1.578204  0  4.874511  0  0  1.42612  0  5.389509  0  0  1.478302  0  5.343802  0  3.438858  0  0.351929  1.389043  0  5.416677  0
H  H8  1  0.92424727  0.41295305  0.03360170  1  0  0.420249  0  0.886379  0  0  0.393919  0  0.943372  0  0  0.403554  0  0.929258  0  0.628697  0  0.303482  0.387088  0  0.953413  0
H  H9  1  0.07575353  0.58705003  0.53360000  1  0  0.420198  0  0.886436  0  0  0.39387  0  0.94343  0  0  0.403504  0  0.929315  0  0.628699  0  0.303461  0.38704  0  0.953468  0
H  H10  1  0.91044160  0.42341534  0.16053900  1  0  0.428633  0  0.859446  0  0  0.403215  0  0.91945  0  0  0.414428  0  0.902901  0  0.639336  0  0.307753  0.395219  0  0.931288  0
H  H11  1  0.08955851  0.57658194  0.66053985  1  0  0.428608  0  0.859382  0  0  0.403174  0  0.919478  0  0  0.414385  0  0.902932  0  0.639367  0  0.307764  0.395181  0  0.931313  0
H  H12  1  0.39502421  0.36399468  0.34440893  1  0  0.426307  0  0.878937  0  0  0.396172  0  0.941987  0  0  0.407032  0  0.926046  0  0.636739  0  0.306956  0.388882  0  0.952391  0
H  H13  1  0.60497974  0.63600647  0.84440808  1  0  0.426248  0  0.87902  0  0  0.396123  0  0.94206  0  0  0.406982  0  0.926121  0  0.636698  0  0.306923  0.388834  0  0.952464  0
H  H14  1  0.51331124  0.31067315  0.33863549  1  0  0.42965  0  0.856622  0  0  0.400633  0  0.920295  0  0  0.41075  0  0.905415  0  0.650612  0  0.313973  0.393394  0  0.93069  0
H  H15  1  0.48669523  0.68933379  0.83863549  1  0  0.42968  0  0.856538  0  0  0.400637  0  0.920287  0  0  0.410754  0  0.905408  0  0.650611  0  0.313969  0.393397  0  0.930683  0
H  H16  1  0.56415247  0.67043614  0.00651222  1  0  0.431712  0  0.862412  0  0  0.404998  0  0.919559  0  0  0.415558  0  0.90402  0  0.63761  0  0.302808  0.397258  0  0.930762  0
H  H17  1  0.43584769  0.32956791  0.50651392  1  0  0.431727  0  0.862392  0  0  0.404998  0  0.919557  0  0  0.415558  0  0.904019  0  0.637492  0  0.302826  0.397261  0  0.930756  0
H  H18  1  0.70793360  0.71772909  0.04005441  1  0  0.431282  0  0.870092  0  0  0.401915  0  0.930671  0  0  0.413547  0  0.913611  0  0.628768  0  0.301365  0.393941  0  0.942106  0
H  H19  1  0.29206840  0.28227496  0.54005611  1  0  0.431301  0  0.870049  0  0  0.401935  0  0.930627  0  0  0.413567  0  0.913569  0  0.628991  0  0.301379  0.393961  0  0.942064  0
H  H20  1  0.80136096  0.86400878  0.23362550  1  0  0.436923  0  0.838578  0  0  0.414147  0  0.893824  0  0  0.423505  0  0.880085  0  0.634039  0  0.312246  0.407346  0  0.903679  0
H  H21  1  0.19864298  0.13599236  0.73361955  1  0  0.436849  0  0.838656  0  0  0.414082  0  0.893911  0  0  0.42344  0  0.880172  0  0.634017  0  0.312218  0.407283  0  0.903763  0
H  H22  1  0.76376504  0.86658086  0.35960978  1  0  0.431816  0  0.869973  0  0  0.401466  0  0.932778  0  0  0.412928  0  0.915968  0  0.661185  0  0.298888  0.393288  0  0.94456  0
H  H23  1  0.23623426  0.13341352  0.85960128  1  0  0.431862  0  0.869919  0  0  0.401411  0  0.932892  0  0  0.412878  0  0.916072  0  0.660986  0  0.298802  0.393234  0  0.944673  0
H  H24  1  0.42878002  0.82849944  0.38662869  1  0  0.277245  0  0.873716  0  0  0.264752  0  0.928191  0  0  0.271468  0  0.924096  0  0.508433  0  0.324125  0.259902  0  0.931069  0
H  H25  1  0.57122576  0.17150170  0.88662784  1  0  0.277259  0  0.873732  0  0  0.264768  0  0.9282  0  0  0.271485  0  0.924107  0  0.508382  0  0.324147  0.259918  0  0.931078  0
H  H26  1  0.28358634  0.73165367  0.54359022  1  0  0.145088  0  0.928511  0  0  0.157718  0  0.984329  0  0  0.160751  0  0.982335  0  0.115893  0  0.127114  0.155231  0  0.986446  0
H  H27  1  0.71641592  0.26835134  0.04358767  1  0  0.145028  0  0.92853  0  0  0.157689  0  0.98433  0  0  0.160719  0  0.982341  0  0.116096  0  0.127088  0.155204  0  0.986443  0
H  H28  1  0.39196272  0.84170586  0.63613773  1  0  0.131872  0  0.927135  0  0  0.144308  0  0.984568  0  0  0.146514  0  0.983912  0  0.086069  0  0.122083  0.142627  0  0.985327  0
H  H29  1  0.60804440  0.15830012  0.13613773  1  0  0.131895  0  0.927118  0  0  0.144352  0  0.984543  0  0  0.146559  0  0.983887  0  0.086136  0  0.122085  0.14267  0  0.985308  0
H  H30  1  0.31682584  0.00704155  0.51567269  1  0  0.099891  0  0.901933  0  0  0.115915  0  0.958331  0  0  0.117494  0  0.957263  0  0.10692  0  0.122416  0.114525  0  0.959534  0
H  H31  1  0.68317945  0.99296442  0.01567949  1  0  0.099898  0  0.901874  0  0  0.115929  0  0.958285  0  0  0.117506  0  0.95722  0  0.106854  0  0.122437  0.11454  0  0.959488  0
H  H32  1  0.23362965  0.88407020  0.41745207  1  0  0.110623  0  0.905401  0  0  0.125345  0  0.962754  0  0  0.126842  0  0.962212  0  0.107091  0  0.126123  0.124085  0  0.963503  0
H  H33  1  0.76637564  0.11593577  0.91745717  1  0  0.110585  0  0.905317  0  0  0.125349  0  0.962649  0  0  0.126849  0  0.962105  0  0.107037  0  0.126112  0.124086  0  0.963404  0
H  H34  1  0.36817985  0.99307655  0.25869841  1  0  0.071522  0  0.951185  0  0  0.079502  0  1.022498  0  0  0.081398  0  1.020542  0  0.092753  0  0.104321  0.077933  0  1.0242  0
H  H35  1  0.63183052  0.00692460  0.75870436  1  0  0.071552  0  0.95118  0  0  0.079502  0  1.022508  0  0  0.081412  0  1.020535  0  0.092854  0  0.104319  0.077934  0  1.024206  0
H  H36  1  0.30370274  0.10762123  0.32847099  1  0  0.090585  0  0.917484  0  0  0.103114  0  0.97771  0  0  0.103675  0  0.977772  0  0.114838  0  0.121228  0.102601  0  0.977902  0
H  H37  1  0.69630396  0.89237991  0.82847949  1  0  0.090578  0  0.917507  0  0  0.103115  0  0.977694  0  0  0.103673  0  0.977759  0  0.114656  0  0.121234  0.102603  0  0.977883  0
H  H38  1  0.54289107  0.03126701  0.55588438  1  0  0.098149  0  0.914686  0  0  0.11207  0  0.976106  0  0  0.113157  0  0.975969  0  0.096824  0  0.119603  0.111124  0  0.976512  0
H  H39  1  0.45711039  0.96873510  0.05588523  1  0  0.098125  0  0.914685  0  0  0.112049  0  0.976103  0  0  0.11313  0  0.975965  0  0.096769  0  0.119581  0.111104  0  0.97651  0
H  H40  1  0.61967622  0.92135516  0.49451987  1  0  0.11498  0  0.941861  0  0  0.128634  0  0.999664  0  0  0.13012  0  0.999674  0  0.11525  0  0.130003  0.127438  0  0.999891  0
H  H41  1  0.38032708  0.07864695  0.99451902  1  0  0.115054  0  0.941891  0  0  0.128683  0  0.999704  0  0  0.130169  0  0.999711  0  0.115261  0  0.130033  0.127489  0  0.999929  0
H  H42  1  0.67952463  0.13544238  0.39247864  1  0  0.098485  0  0.904686  0  0  0.112042  0  0.9618  0  0  0.113009  0  0.960859  0  0.098541  0  0.123472  0.111322  0  0.962391  0
H  H43  1  0.32047866  0.86455974  0.89247694  1  0  0.098422  0  0.904598  0  0  0.111992  0  0.961711  0  0  0.112959  0  0.960767  0  0.098607  0  0.123459  0.111271  0  0.962302  0
H  H44  1  0.59624563  0.00693523  0.30084081  1  0  0.068376  0  0.93869  0  0  0.078356  0  1.009383  0  0  0.080101  0  1.006886  0  0.086199  0  0.104371  0.07685  0  1.011562  0
H  H45  1  0.40376226  0.99306688  0.80084081  1  0  0.06837  0  0.938639  0  0  0.078344  0  1.009346  0  0  0.080058  0  1.006879  0  0.086195  0  0.104349  0.076835  0  1.011526  0
C  C46  1  0.38381066  0.78699246  0.55649989  1  0  -0.328215  0  3.468731  0  0  -0.367967  0  3.717702  0  0  -0.37208  0  3.721784  0  -0.285378  0  -0.066136  -0.365265  0  3.7161  0
C  C47  1  0.61619145  0.21300869  0.05649649  1  0  -0.32815  0  3.468772  0  0  -0.368003  0  3.717842  0  0  -0.372104  0  3.721905  0  -0.285699  0  -0.066109  -0.365299  0  3.71623  0
C  C48  1  0.32540252  0.95491684  0.43714772  1  0  -0.03866  0  3.502107  0  0  -0.101891  0  3.763078  0  0  -0.099125  0  3.772206  0  0.185941  0  -0.056191  -0.103699  0  3.757204  0
C  C49  1  0.67460104  0.04508624  0.93715367  1  0  -0.038623  0  3.502014  0  0  -0.101919  0  3.763017  0  0  -0.099152  0  3.772138  0  0.185898  0  -0.056222  -0.103733  0  3.75715  0
C  C50  1  0.36947306  0.04766895  0.33795027  1  0  0.058926  0  3.60693  0  0  0.002966  0  3.877558  0  0  0.009077  0  3.882973  0  0.379254  0  -0.066987  -0.001236  0  3.874301  0
C  C51  1  0.63053482  0.95233316  0.83795707  1  0  0.058975  0  3.607008  0  0  0.003062  0  3.877576  0  0  0.009172  0  3.882975  0  0.379686  0  -0.066937  -0.001133  0  3.87431  0
C  C52  1  0.55078674  0.97644166  0.47892285  1  0  -0.045442  0  3.511525  0  0  -0.106288  0  3.768041  0  0  -0.10396  0  3.777981  0  0.198387  0  -0.060426  -0.107697  0  3.761351  0
C  C53  1  0.44921617  0.02356238  0.97892285  1  0  -0.045497  0  3.511645  0  0  -0.106292  0  3.768058  0  0  -0.103978  0  3.778035  0  0.19856  0  -0.060369  -0.107702  0  3.761369  0
C  C54  1  0.58716242  0.06429224  0.37642678  1  0  0.057057  0  3.621036  0  0  -0.001936  0  3.894318  0  0  0.00445  0  3.89927  0  0.413328  0  -0.067133  -0.00617  0  3.891046  0
C  C55  1  0.41284233  0.93571181  0.87642763  1  0  0.057199  0  3.620755  0  0  -0.001809  0  3.894055  0  0  0.004601  0  3.899001  0  0.412839  0  -0.067112  -0.006039  0  3.890784  0
C  C56  1  0.98448753  0.66794139  0.37974835  1  0  0.58811  0  3.918477  0  0  0.542723  0  4.217993  0  0  0.573204  0  4.206463  0  1.639273  0  0.229439  0.521599  0  4.226344  0
C  C57  1  0.01549153  0.33204623  0.87973050  1  0  0.588241  0  3.918382  0  0  0.542899  0  4.217803  0  0  0.57337  0  4.206289  0  1.639644  0  0.229478  0.521791  0  4.226101  0
C  C58  1  0.84640404  0.63358711  0.33540234  1  0  0.552795  0  3.938378  0  0  0.50773  0  4.235504  0  0  0.538914  0  4.223007  0  1.541975  0  0.218868  0.487465  0  4.237264  0
C  C59  1  0.15358004  0.36640534  0.83538789  1  0  0.552918  0  3.9383  0  0  0.507873  0  4.235369  0  0  0.53906  0  4.222865  0  1.541734  0  0.218899  0.487642  0  4.237081  0
C  C60  1  0.11194281  0.99951205  0.02938151  1  0  0.567647  0  3.909904  0  0  0.524309  0  4.204272  0  0  0.554896  0  4.193894  0  1.595433  0  0.224707  0.503713  0  4.210494  0
C  C61  1  0.88804798  0.00046493  0.52938746  1  0  0.567399  0  3.909392  0  0  0.524068  0  4.203809  0  0  0.554654  0  4.193439  0  1.595686  0  0.224691  0.503471  0  4.210026  0
C  C62  1  0.04873617  0.99843818  0.14807566  1  0  0.565906  0  3.934048  0  0  0.526051  0  4.227187  0  0  0.556156  0  4.216719  0  1.598789  0  0.22135  0.505777  0  4.233345  0
C  C63  1  0.95125359  0.00154170  0.64808672  1  0  0.566413  0  3.934375  0  0  0.526589  0  4.227411  0  0  0.556693  0  4.216944  0  1.598447  0  0.221617  0.506313  0  4.233571  0
C  C64  1  0.29103175  0.59518189  0.14402550  1  0  0.568616  0  3.905837  0  0  0.52845  0  4.19206  0  0  0.559381  0  4.179803  0  1.5772  0  0.223496  0.507948  0  4.196621  0
C  C65  1  0.70896798  0.40481733  0.64402040  1  0  0.568796  0  3.905748  0  0  0.528674  0  4.191893  0  0  0.559606  0  4.179629  0  1.577204  0  0.223632  0.508169  0  4.196458  0
C  C66  1  0.33546841  0.73773541  0.18081785  1  0  0.574465  0  3.924204  0  0  0.53274  0  4.220388  0  0  0.562732  0  4.209622  0  1.619396  0  0.224137  0.512604  0  4.224753  0
C  C67  1  0.66452845  0.26226670  0.68081360  1  0  0.574288  0  3.924571  0  0  0.532593  0  4.220672  0  0  0.562585  0  4.209909  0  1.619197  0  0.224098  0.51246  0  4.225032  0
C  C68  1  0.85264050  0.68484788  0.88302912  1  0  0.591693  0  3.858425  0  0  0.544578  0  4.149556  0  0  0.575393  0  4.138936  0  1.59681  0  0.242133  0.523554  0  4.156558  0
C  C69  1  0.14735697  0.31514650  0.38302912  1  0  0.591319  0  3.858352  0  0  0.544407  0  4.149373  0  0  0.575245  0  4.138711  0  1.597113  0  0.241975  0.523383  0  4.156374  0
C  C70  1  0.97416512  0.65371716  0.83683231  1  0  0.581326  0  3.915274  0  0  0.535374  0  4.213891  0  0  0.56598  0  4.203635  0  1.629339  0  0.228768  0.514648  0  4.220099  0
C  C71  1  0.02583094  0.34628205  0.33683826  1  0  0.581351  0  3.914893  0  0  0.534998  0  4.214124  0  0  0.565597  0  4.203878  0  1.628582  0  0.228544  0.514272  0  4.220326  0
N  N72  1  0.42182881  0.88131931  0.46008842  1  0  -0.051947  0  3.371838  0  0  0.030288  0  3.582035  0  0  0.01851  0  3.601676  0  -1.01753  0  -0.339923  0.038273  0  3.568926  0
N  N73  1  0.57817356  0.11868280  0.96009012  1  0  -0.051963  0  3.372121  0  0  0.030292  0  3.582286  0  0  0.018513  0  3.601922  0  -1.017539  0  -0.339948  0.038279  0  3.569177  0
O  O74  1  0.40487804  0.55970444  0.63419001  1  0  -0.951876  0  1.952515  0  0  -0.885615  0  2.219332  0  0  -0.910384  0  2.197389  0  -1.466107  0  -0.469861  -0.859576  0  2.236221  0
O  O75  1  0.59512196  0.44029574  0.13418916  1  0  -0.951911  0  1.952494  0  0  -0.885651  0  2.21931  0  0  -0.910418  0  2.197367  0  -1.466128  0  -0.469879  -0.859609  0  2.236199  0
O  O76  1  0.61296751  0.73917465  0.60587630  1  0  -0.976772  0  1.94134  0  0  -0.905199  0  2.221867  0  0  -0.92975  0  2.200539  0  -1.47596  0  -0.493456  -0.88742  0  2.236017  0
O  O77  1  0.38703039  0.26082456  0.10587460  1  0  -0.976764  0  1.94114  0  0  -0.905183  0  2.221634  0  0  -0.929741  0  2.200327  0  -1.476113  0  -0.493498  -0.887407  0  2.235786  0
O  O78  1  0.48460845  0.63780818  0.43173730  1  0  -0.983457  0  1.950299  0  0  -0.915176  0  2.224146  0  0  -0.940017  0  2.201776  0  -1.468841  0  -0.488286  -0.888487  0  2.241081  0
O  O79  1  0.51538987  0.36219587  0.93173985  1  0  -0.983511  0  1.950417  0  0  -0.915238  0  2.224267  0  0  -0.940083  0  2.201908  0  -1.468867  0  -0.488264  -0.888558  0  2.241217  0
O  O80  1  0.49471201  0.13427184  0.35662657  1  0  -0.318997  0  2.244802  0  0  -0.247175  0  2.488113  0  0  -0.262693  0  2.487348  0  -1.06436  0  -0.226495  -0.236473  0  2.488726  0
O  O81  1  0.50529457  0.86573220  0.85663167  1  0  -0.31913  0  2.244802  0  0  -0.247307  0  2.488124  0  0  -0.262823  0  2.487347  0  -1.064211  0  -0.226558  -0.236607  0  2.488735  0
O  O82  1  0.99998865  0.69785132  0.48424570  1  0  -0.666013  0  2.062903  0  0  -0.613979  0  2.301288  0  0  -0.636279  0  2.290196  0  -1.193461  0  -0.35632  -0.598526  0  2.309405  0
O  O83  1  0.00000493  0.30214886  0.98424825  1  0  -0.666192  0  2.062285  0  0  -0.61417  0  2.300622  0  0  -0.636474  0  2.289535  0  -1.193215  0  -0.356372  -0.598721  0  2.308726  0
O  O84  1  0.07116183  0.66438436  0.31008799  1  0  -0.64378  0  2.003948  0  0  -0.600412  0  2.245009  0  0  -0.622695  0  2.236546  0  -1.185335  0  -0.363429  -0.585044  0  2.250468  0
O  O85  1  0.92883020  0.33560035  0.81008884  1  0  -0.643586  0  2.004671  0  0  -0.600233  0  2.245702  0  0  -0.622507  0  2.237242  0  -1.185621  0  -0.363314  -0.584872  0  2.251142  0
O  O86  1  0.75474709  0.61096811  0.40707503  1  0  -0.72699  0  2.102996  0  0  -0.677736  0  2.35219  0  0  -0.70015  0  2.341254  0  -1.191954  0  -0.392413  -0.656026  0  2.357924  0
O  O87  1  0.24524433  0.38902433  0.90706397  1  0  -0.727326  0  2.103121  0  0  -0.678088  0  2.352298  0  0  -0.7005  0  2.341349  0  -1.191747  0  -0.392573  -0.656393  0  2.358024  0
O  O88  1  0.82876303  0.63297140  0.22929394  1  0  -0.666398  0  2.126941  0  0  -0.61336  0  2.371541  0  0  -0.635918  0  2.36308  0  -1.145101  0  -0.352072  -0.592643  0  2.375643  0
O  O89  1  0.17121943  0.36701525  0.72928884  1  0  -0.666334  0  2.126999  0  0  -0.613307  0  2.371611  0  0  -0.635867  0  2.363152  0  -1.145464  0  -0.352018  -0.592606  0  2.375698  0
O  O90  1  0.11296228  0.89327787  0.98647481  1  0  -0.627723  0  2.043227  0  0  -0.582839  0  2.282789  0  0  -0.604849  0  2.274168  0  -1.167801  0  -0.352449  -0.567608  0  2.288217  0
O  O91  1  0.88703657  0.10672811  0.48647226  1  0  -0.627764  0  2.042031  0  0  -0.582891  0  2.281607  0  0  -0.604912  0  2.272995  0  -1.168093  0  -0.352488  -0.567648  0  2.287031  0
O  O92  1  0.16065538  0.11112509  0.98593921  1  0  -0.680854  0  2.113723  0  0  -0.620989  0  2.350052  0  0  -0.64629  0  2.340506  0  -1.19489  0  -0.36002  -0.603507  0  2.356338  0
O  O93  1  0.83934041  0.88887315  0.48595112  1  0  -0.680647  0  2.114518  0  0  -0.620803  0  2.350827  0  0  -0.646097  0  2.341285  0  -1.195109  0  -0.360002  -0.603325  0  2.357113  0
O  O94  1  0.98694461  0.88877843  0.18731307  1  0  -0.677234  0  2.039585  0  0  -0.624319  0  2.273175  0  0  -0.647286  0  2.262743  0  -1.194358  0  -0.371557  -0.608338  0  2.27995  0
O  O95  1  0.01304420  0.11123432  0.68732497  1  0  -0.677579  0  2.039053  0  0  -0.624686  0  2.27263  0  0  -0.647657  0  2.262185  0  -1.193312  0  -0.371693  -0.608699  0  2.279406  0
O  O96  1  0.06464993  0.10591908  0.19675494  1  0  -0.640256  0  2.028395  0  0  -0.595213  0  2.264732  0  0  -0.617111  0  2.254999  0  -1.175308  0  -0.369505  -0.579848  0  2.27093  0
O  O97  1  0.93534741  0.89409463  0.69675919  1  0  -0.640274  0  2.029514  0  0  -0.595241  0  2.265822  0  0  -0.617129  0  2.256081  0  -1.17576  0  -0.369571  -0.579884  0  2.272026  0
O  O98  1  0.36496179  0.52433622  0.16058916  1  0  -0.723879  0  2.139588  0  0  -0.672977  0  2.385382  0  0  -0.695479  0  2.375288  0  -1.200279  0  -0.379431  -0.650678  0  2.392215  0
O  O99  1  0.63503794  0.47566299  0.66058831  1  0  -0.723955  0  2.13942  0  0  -0.673063  0  2.385184  0  0  -0.695565  0  2.375089  0  -1.200276  0  -0.379486  -0.650766  0  2.392021  0
O  O100  1  0.18046967  0.55162381  0.10115707  1  0  -0.70608  0  2.13848  0  0  -0.650074  0  2.385055  0  0  -0.673085  0  2.376689  0  -1.189358  0  -0.375113  -0.634416  0  2.39059  0
O  O101  1  0.81952942  0.44837637  0.60115452  1  0  -0.706199  0  2.138541  0  0  -0.650215  0  2.385104  0  0  -0.673225  0  2.376733  0  -1.189445  0  -0.375172  -0.634553  0  2.390641  0
O  O102  1  0.44002838  0.77187317  0.23507163  1  0  -0.642656  0  2.038931  0  0  -0.603793  0  2.280796  0  0  -0.625861  0  2.271467  0  -1.176868  0  -0.336137  -0.58257  0  2.287124  0
O  O103  1  0.55997729  0.22813087  0.73507333  1  0  -0.642554  0  2.039124  0  0  -0.603712  0  2.280971  0  0  -0.625775  0  2.271636  0  -1.176824  0  -0.336091  -0.582494  0  2.287298  0
O  O104  1  0.26250845  0.80608633  0.15500276  1  0  -0.650244  0  2.018338  0  0  -0.605151  0  2.259644  0  0  -0.628281  0  2.252454  0  -1.185566  0  -0.354906  -0.589304  0  2.264168  0
O  O105  1  0.73748459  0.19391192  0.65499001  1  0  -0.650212  0  2.018376  0  0  -0.605136  0  2.259659  0  0  -0.628276  0  2.252481  0  -1.185346  0  -0.35494  -0.589284  0  2.264178  0
O  O106  1  0.76258296  0.67841141  0.81290202  1  0  -0.667098  0  2.122606  0  0  -0.609152  0  2.363159  0  0  -0.633089  0  2.352854  0  -1.19072  0  -0.353553  -0.592567  0  2.369671  0
O  O107  1  0.23742277  0.32158297  0.31289267  1  0  -0.667  0  2.122247  0  0  -0.609038  0  2.362649  0  0  -0.632993  0  2.352342  0  -1.190536  0  -0.353448  -0.592452  0  2.369158  0
O  O108  1  0.85019926  0.71244381  0.98725356  1  0  -0.637431  0  2.100277  0  0  -0.576283  0  2.330378  0  0  -0.600548  0  2.320943  0  -1.17674  0  -0.343651  -0.559602  0  2.336561  0
O  O109  1  0.14980036  0.28755830  0.48724421  1  0  -0.6373  0  2.100628  0  0  -0.576216  0  2.330685  0  0  -0.600486  0  2.321235  0  -1.176909  0  -0.343594  -0.559538  0  2.336874  0
O  O110  1  0.98372570  0.65062699  0.72993836  1  0  -0.657865  0  2.117804  0  0  -0.602698  0  2.354829  0  0  -0.626449  0  2.344529  0  -1.177359  0  -0.341632  -0.585902  0  2.361252  0
O  O111  1  0.01627992  0.34937029  0.22992051  1  0  -0.657941  0  2.117045  0  0  -0.602636  0  2.354219  0  0  -0.626397  0  2.343932  0  -1.176833  0  -0.341619  -0.585834  0  2.360637  0
O  O112  1  0.05172921  0.63098314  0.90806121  1  0  -0.638893  0  2.009337  0  0  -0.592662  0  2.248569  0  0  -0.615221  0  2.238942  0  -1.178805  0  -0.373571  -0.576787  0  2.254342  0
O  O113  1  0.94827970  0.36901608  0.40804166  1  0  -0.638613  0  2.009888  0  0  -0.592241  0  2.249292  0  0  -0.614794  0  2.239678  0  -1.178816  0  -0.373332  -0.57637  0  2.255066  0
O  O114  1  0.89447483  0.46640796  0.08960340  1  0  -0.863275  0  1.874063  0  0  -0.818974  0  2.059574  0  0  -0.837422  0  2.030313  0  -1.25405  0  -0.63515  -0.805939  0  2.08006  0
O  O115  1  0.10552647  0.53359028  0.58960000  1  0  -0.863155  0  1.873999  0  0  -0.81883  0  2.05958  0  0  -0.837275  0  2.030327  0  -1.254058  0  -0.635088  -0.805795  0  2.080063  0
O  O116  1  0.48839114  0.38789343  0.36283443  1  0  -0.874623  0  1.876827  0  0  -0.829335  0  2.055148  0  0  -0.84765  0  2.023369  0  -1.271289  0  -0.596161  -0.809631  0  2.079038  0
O  O117  1  0.51160902  0.61211061  0.86283443  1  0  -0.874589  0  1.87677  0  0  -0.829288  0  2.055109  0  0  -0.847604  0  2.023334  0  -1.271251  0  -0.596109  -0.809582  0  2.078996  0
O  O118  1  0.62103511  0.71667841  0.06813773  1  0  -0.903357  0  1.830407  0  0  -0.865498  0  2.013302  0  0  -0.883373  0  1.980791  0  -1.267498  0  -0.649781  -0.845845  0  2.039588  0
O  O119  1  0.37896597  0.28332564  0.56813773  1  0  -0.903398  0  1.830413  0  0  -0.865529  0  2.013327  0  0  -0.883404  0  1.980815  0  -1.267575  0  -0.649812  -0.845871  0  2.039587  0
O  O120  1  0.72520322  0.84232641  0.28259129  1  0  -0.886401  0  1.810133  0  0  -0.846534  0  1.989421  0  0  -0.863799  0  1.957863  0  -1.289749  0  -0.620144  -0.827633  0  2.014836  0
O  O121  1  0.27479857  0.15766701  0.78258704  1  0  -0.886386  0  1.810176  0  0  -0.84645  0  1.989533  0  0  -0.863723  0  1.95798  0  -1.28953  0  -0.620081  -0.82754  0  2.014914  0
