# generated using pymatgen
data_CdH12C18NO4
_symmetry_space_group_name_H-M   'P 1'
_cell_length_a   11.29612985
_cell_length_b   11.29591084
_cell_length_c   13.47600000
_cell_angle_alpha   108.03516899
_cell_angle_beta   108.03480729
_cell_angle_gamma   91.48182212
_symmetry_Int_Tables_number   1
_chemical_formula_structural   CdH12C18NO4
_chemical_formula_sum   'Cd4 H48 C72 N4 O16'
_cell_volume   1540.56883219
_cell_formula_units_Z   4
loop_
 _symmetry_equiv_pos_site_id
 _symmetry_equiv_pos_as_xyz
  1  'x, y, z'
loop_
 _atom_site_type_symbol
 _atom_site_label
 _atom_site_symmetry_multiplicity
 _atom_site_fract_x
 _atom_site_fract_y
 _atom_site_fract_z
 _atom_site_occupancy
 _atom_site_pbe_bader_charge
 _atom_site_pbe_bader_spin_density
 _atom_site_pbe_cm5_charge
 _atom_site_pbe_ddec_charge
 _atom_site_pbe_ddec_spin_density
 _atom_site_pbe_ddec_sum_bond_order
 _atom_site_pbe_magmom
Cd  Cd0  1  0.57035713  0.52213803  0.89493975  1  1.32454  0  0.784536  0.991784  0  2.107864  0
Cd  Cd1  1  0.47786258  0.42964938  0.60506462  1  1.324563  0  0.784551  0.991807  0  2.107894  0
Cd  Cd2  1  0.42964409  0.47786164  0.10506077  1  1.324536  0  0.78452  0.991739  0  2.107912  0
Cd  Cd3  1  0.52213770  0.57035029  0.39493567  1  1.324552  0  0.784586  0.991872  0  2.107816  0
H  H4  1  0.19764886  0.64057203  0.95639021  1  0.102783  0  0.105381  0.11006  0  1.021594  0
H  H5  1  0.35941721  0.80235412  0.54359990  1  0.102639  0  0.105423  0.110098  0  1.021707  0
H  H6  1  0.80235155  0.35942858  0.04361035  1  0.102793  0  0.105419  0.110113  0  1.021603  0
H  H7  1  0.64058215  0.19764555  0.45639940  1  0.102669  0  0.105415  0.110106  0  1.021676  0
H  H8  1  0.96826567  0.63544666  0.93260374  1  0.071981  0  0.101994  0.104381  0  1.012276  0
H  H9  1  0.36454176  0.03172653  0.56738633  1  0.071599  0  0.101954  0.104318  0  1.012327  0
H  H10  1  0.03173382  0.36455395  0.06739658  1  0.071918  0  0.101957  0.104356  0  1.012335  0
H  H11  1  0.63545852  0.96827314  0.43261396  1  0.071595  0  0.101947  0.104305  0  1.01234  0
H  H12  1  0.22179939  0.28092264  0.66311595  1  0.108094  0  0.103235  0.118829  0  1.022149  0
H  H13  1  0.71908071  0.77819866  0.83688842  1  0.108038  0  0.103232  0.118796  0  1.022158  0
H  H14  1  0.77819996  0.71907703  0.33688335  1  0.108089  0  0.103235  0.118813  0  1.022159  0
H  H15  1  0.28091852  0.22180007  0.16311135  1  0.108092  0  0.103251  0.118838  0  1.022133  0
H  H16  1  0.07063237  0.09806689  0.52668958  1  0.025268  0  0.092594  0.082538  0  1.050355  0
H  H17  1  0.90194259  0.92937016  0.97331606  1  0.025124  0  0.092601  0.082623  0  1.050358  0
H  H18  1  0.92936711  0.90193372  0.47331000  1  0.025233  0  0.09259  0.082539  0  1.050364  0
H  H19  1  0.09805757  0.07062857  0.02668395  1  0.025122  0  0.09261  0.082618  0  1.05038  0
H  H20  1  0.84462624  0.08391130  0.51400652  1  0.025288  0  0.095276  0.087838  0  1.033839  0
H  H21  1  0.91609707  0.15536857  0.98599831  1  0.025205  0  0.095282  0.087816  0  1.033852  0
H  H22  1  0.15537417  0.91608931  0.48599404  1  0.025279  0  0.095281  0.087843  0  1.033836  0
H  H23  1  0.08390322  0.84463110  0.01400198  1  0.025216  0  0.095285  0.087827  0  1.033817  0
H  H24  1  0.77022844  0.25729710  0.63392809  1  0.079925  0  0.103027  0.115304  0  1.026492  0
H  H25  1  0.74270266  0.22976483  0.86607337  1  0.080032  0  0.103006  0.115193  0  1.026507  0
H  H26  1  0.22977278  0.74270257  0.36607244  1  0.079915  0  0.103021  0.115297  0  1.026484  0
H  H27  1  0.25729762  0.77023485  0.13392692  1  0.080026  0  0.103  0.115191  0  1.02651  0
H  H28  1  0.48462244  0.79828483  0.00295796  1  0.097013  0  0.119619  0.092797  0  0.975602  0
H  H29  1  0.20171493  0.51537687  0.49704283  1  0.097077  0  0.119591  0.092802  0  0.97559  0
H  H30  1  0.51537772  0.20171390  0.99704205  1  0.097035  0  0.119621  0.092799  0  0.975629  0
H  H31  1  0.79828468  0.48462468  0.50295628  1  0.097059  0  0.119598  0.092804  0  0.9756  0
H  H32  1  0.58003221  0.01024603  0.14202464  1  0.086515  0  0.105531  0.114662  0  1.017999  0
H  H33  1  0.98974874  0.41995863  0.35796895  1  0.086512  0  0.105533  0.114621  0  1.018092  0
H  H34  1  0.41996647  0.98975552  0.85797497  1  0.086552  0  0.105541  0.114637  0  1.01801  0
H  H35  1  0.01025155  0.58004104  0.64202985  1  0.086525  0  0.10553  0.114612  0  1.018104  0
H  H36  1  0.94173505  0.87645816  0.18864613  1  0.036256  0  0.104031  0.11164  0  1.0072  0
H  H37  1  0.12354509  0.05826568  0.31135520  1  0.036334  0  0.104021  0.111574  0  1.007297  0
H  H38  1  0.05826443  0.12354245  0.81135419  1  0.036257  0  0.104034  0.111642  0  1.007158  0
H  H39  1  0.87645452  0.94173587  0.68864540  1  0.036326  0  0.104027  0.111592  0  1.007281  0
H  H40  1  0.83155906  0.67277774  0.04420301  1  0.12607  0  0.114637  0.088927  0  1.024959  0
H  H41  1  0.32723409  0.16844929  0.45580401  1  0.126088  0  0.114611  0.088902  0  1.025023  0
H  H42  1  0.16844135  0.32722287  0.95579681  1  0.126068  0  0.114634  0.088914  0  1.024966  0
H  H43  1  0.67276713  0.83155038  0.54419652  1  0.126074  0  0.114612  0.088919  0  1.025051  0
H  H44  1  0.89622925  0.06089742  0.33839971  1  0.047173  0  0.095073  0.095643  0  1.011126  0
H  H45  1  0.93910203  0.10377291  0.16159582  1  0.047073  0  0.095115  0.095741  0  1.011057  0
H  H46  1  0.10377010  0.93910225  0.66159959  1  0.047168  0  0.095093  0.095646  0  1.011122  0
H  H47  1  0.06089745  0.89622770  0.83840451  1  0.047065  0  0.095125  0.095771  0  1.011007  0
H  H48  1  0.76573587  0.13849292  0.29712072  1  0.088522  0  0.096024  0.10186  0  0.987607  0
H  H49  1  0.86148869  0.23425128  0.20287073  1  0.088639  0  0.096081  0.101906  0  0.987663  0
H  H50  1  0.23426349  0.86150675  0.70288007  1  0.088532  0  0.096018  0.10183  0  0.987648  0
H  H51  1  0.13851079  0.76574933  0.79712959  1  0.088644  0  0.096081  0.101904  0  0.987661  0
C  C52  1  0.17070072  0.47742192  0.81520917  1  0.01323  0  -0.014915  -0.080802  0  3.957365  0
C  C53  1  0.52257250  0.82930198  0.68478741  1  0.013598  0  -0.014965  -0.080879  0  3.957434  0
C  C54  1  0.82929877  0.52257869  0.18479041  1  0.013177  0  -0.014936  -0.080812  0  3.957411  0
C  C55  1  0.47742791  0.17069863  0.31521241  1  0.013637  0  -0.014959  -0.080874  0  3.957474  0
C  C56  1  0.12890712  0.56680717  0.88874349  1  -0.096918  0  -0.08544  -0.099185  0  4.009519  0
C  C57  1  0.43318429  0.87108945  0.61125073  1  -0.096866  0  -0.085399  -0.099128  0  4.009586  0
C  C58  1  0.87109223  0.43319251  0.11125581  1  -0.096946  0  -0.085466  -0.099225  0  4.009612  0
C  C59  1  0.56681506  0.12891022  0.38874932  1  -0.096927  0  -0.085395  -0.099135  0  4.009528  0
C  C60  1  0.00067208  0.56330068  0.87579459  1  -0.01848  0  -0.087256  -0.098855  0  4.003314  0
C  C61  1  0.43669099  0.99932788  0.62420056  1  -0.018274  0  -0.087207  -0.098752  0  4.003313  0
C  C62  1  0.99932833  0.43669993  0.12420523  1  -0.018418  0  -0.087219  -0.09884  0  4.003362  0
C  C63  1  0.56330929  0.00067179  0.37579898  1  -0.018266  0  -0.087199  -0.098725  0  4.003309  0
C  C64  1  0.91287265  0.46885208  0.79102613  1  -0.018028  0  -0.008661  -0.061137  0  3.924414  0
C  C65  1  0.53114268  0.08712088  0.70897038  1  -0.018008  0  -0.008702  -0.061275  0  3.924615  0
C  C66  1  0.08712764  0.53114759  0.20897341  1  -0.018038  0  -0.008683  -0.061133  0  3.924483  0
C  C67  1  0.46885668  0.91287880  0.29103040  1  -0.01801  0  -0.008724  -0.061336  0  3.924674  0
C  C68  1  0.95310551  0.36955999  0.71855631  1  -0.062759  0  -0.003119  0.051814  0  3.955126  0
C  C69  1  0.63043602  0.04689122  0.78144284  1  -0.062423  0  -0.003189  0.051713  0  3.95519  0
C  C70  1  0.04689384  0.63043968  0.28144299  1  -0.062754  0  -0.003121  0.051779  0  3.955176  0
C  C71  1  0.36956414  0.95310751  0.21855791  1  -0.06244  0  -0.003143  0.051776  0  3.95521  0
C  C72  1  0.08406430  0.37533554  0.72871425  1  -0.012231  0  -0.00308  0.048881  0  3.956277  0
C  C73  1  0.62466564  0.91593240  0.77128401  1  -0.012327  0  -0.003077  0.048854  0  3.956445  0
C  C74  1  0.91593599  0.62466413  0.27128530  1  -0.01218  0  -0.003073  0.04885  0  3.95636  0
C  C75  1  0.37533477  0.08406821  0.22871655  1  -0.012312  0  -0.00308  0.048876  0  3.956437  0
C  C76  1  0.12329080  0.27544212  0.65684458  1  -0.063046  0  -0.092564  -0.124977  0  3.96236  0
C  C77  1  0.72455968  0.87670715  0.84315640  1  -0.063274  0  -0.092582  -0.124911  0  3.962355  0
C  C78  1  0.87670855  0.72455755  0.34315398  1  -0.063051  0  -0.092584  -0.124923  0  3.962367  0
C  C79  1  0.27543955  0.12329158  0.15684337  1  -0.063297  0  -0.092633  -0.125035  0  3.962358  0
C  C80  1  0.03845736  0.17340835  0.58101228  1  -0.026875  0  -0.101153  -0.094035  0  4.055416  0
C  C81  1  0.82659390  0.96153735  0.91899391  1  -0.02662  0  -0.101146  -0.094129  0  4.055457  0
C  C82  1  0.96154199  0.82659132  0.41898777  1  -0.026857  0  -0.101164  -0.094082  0  4.055467  0
C  C83  1  0.17340626  0.03846138  0.08100536  1  -0.026673  0  -0.101158  -0.094107  0  4.055539  0
C  C84  1  0.91073987  0.16585889  0.57337303  1  -0.057609  0  -0.102277  -0.1006  0  4.062672  0
C  C85  1  0.83414528  0.08925934  0.92663186  1  -0.057847  0  -0.102249  -0.100591  0  4.06261  0
C  C86  1  0.08926054  0.83414172  0.42662754  1  -0.057594  0  -0.102274  -0.100602  0  4.062678  0
C  C87  1  0.16585526  0.91074221  0.07336898  1  -0.057849  0  -0.102228  -0.100567  0  4.062627  0
C  C88  1  0.86872664  0.26199496  0.64008122  1  0.015433  0  -0.09411  -0.133047  0  3.9773  0
C  C89  1  0.73800594  0.13126479  0.85992080  1  0.015623  0  -0.09406  -0.132842  0  3.977108  0
C  C90  1  0.13127365  0.73800471  0.35991907  1  0.015451  0  -0.09408  -0.133002  0  3.977273  0
C  C91  1  0.26199435  0.86873488  0.14007948  1  0.015636  0  -0.094062  -0.132852  0  3.977081  0
C  C92  1  0.30795485  0.49192891  0.83164374  1  1.505732  0  0.202593  0.588149  0  4.183254  0
C  C93  1  0.50806943  0.69204930  0.66835794  1  1.505608  0  0.202607  0.588233  0  4.183371  0
C  C94  1  0.69204370  0.50807170  0.16835485  1  1.505756  0  0.202569  0.588117  0  4.183236  0
C  C95  1  0.49193005  0.30795131  0.33164238  1  1.505601  0  0.202592  0.588186  0  4.183416  0
C  C96  1  0.77650417  0.47641000  0.77912504  1  1.606223  0  0.210302  0.591724  0  4.207202  0
C  C97  1  0.52359329  0.22348942  0.72087297  1  1.606235  0  0.210428  0.59209  0  4.206776  0
C  C98  1  0.22349518  0.52358967  0.22087501  1  1.606218  0  0.210369  0.591847  0  4.20706  0
C  C99  1  0.47640805  0.77651119  0.27912784  1  1.606229  0  0.210376  0.592036  0  4.206812  0
C  C100  1  0.58598598  0.82056866  0.04464558  1  0.528001  0  0.053653  0.117098  0  3.945109  0
C  C101  1  0.17943049  0.41401208  0.45535325  1  0.52794  0  0.053639  0.117062  0  3.945262  0
C  C102  1  0.41401456  0.17943289  0.95535526  1  0.52804  0  0.053642  0.117094  0  3.945206  0
C  C103  1  0.82057166  0.58598759  0.54464678  1  0.52796  0  0.053644  0.11708  0  3.945236  0
C  C104  1  0.64000753  0.93848589  0.12279623  1  -0.01359  0  -0.085283  -0.186051  0  3.925943  0
C  C105  1  0.06151482  0.35999045  0.37720373  1  -0.013825  0  -0.085238  -0.185951  0  3.925962  0
C  C106  1  0.35999114  0.06151566  0.87720561  1  -0.013535  0  -0.085268  -0.186002  0  3.925963  0
C  C107  1  0.93848746  0.64001016  0.62279583  1  -0.013874  0  -0.085238  -0.185933  0  3.925976  0
C  C108  1  0.76986643  0.96205787  0.17793958  1  -0.01804  0  0.012021  0.165793  0  3.939262  0
C  C109  1  0.03794331  0.23012750  0.32205722  1  -0.017795  0  0.012057  0.165869  0  3.939179  0
C  C110  1  0.23013305  0.03794274  0.82206074  1  -0.018138  0  0.012043  0.165778  0  3.939259  0
C  C111  1  0.96205884  0.76987217  0.67794281  1  -0.017761  0  0.012016  0.165806  0  3.939261  0
C  C112  1  0.84009178  0.86473231  0.14832133  1  -0.054496  0  -0.088234  -0.189154  0  3.965839  0
C  C113  1  0.13527218  0.15990858  0.35168171  1  -0.054269  0  -0.088283  -0.18916  0  3.966071  0
C  C114  1  0.15990770  0.13526831  0.85167899  1  -0.054517  0  -0.088227  -0.189135  0  3.965781  0
C  C115  1  0.86472903  0.84009109  0.64831882  1  -0.05433  0  -0.088267  -0.189151  0  3.966024  0
C  C116  1  0.77978556  0.75045686  0.06876947  1  0.481779  0  0.04008  0.088012  0  3.96744  0
C  C117  1  0.24954817  0.22021408  0.43123352  1  0.481619  0  0.040115  0.088061  0  3.967543  0
C  C118  1  0.22021485  0.24954376  0.93123035  1  0.481743  0  0.040071  0.08801  0  3.967434  0
C  C119  1  0.75045410  0.77978654  0.56876679  1  0.481689  0  0.040126  0.088063  0  3.967535  0
C  C120  1  0.83468237  0.08404378  0.26777822  1  -0.044693  0  -0.152243  -0.186815  0  3.888378  0
C  C121  1  0.91595286  0.16531488  0.23221827  1  -0.098856  0  -0.152419  -0.187114  0  3.888497  0
C  C122  1  0.16531699  0.91595589  0.73222182  1  -0.044681  0  -0.152283  -0.186791  0  3.888397  0
C  C123  1  0.08404649  0.83468479  0.76778178  1  -0.098871  0  -0.152432  -0.187143  0  3.888505  0
N  N124  1  0.65427095  0.72765438  0.01806394  1  -1.223629  0  -0.326342  -0.251006  0  3.496164  0
N  N125  1  0.27234586  0.34573244  0.48193730  1  -1.223599  0  -0.326311  -0.251017  0  3.49623  0
N  N126  1  0.34572946  0.27234623  0.98193662  1  -1.22362  0  -0.326346  -0.250998  0  3.496185  0
N  N127  1  0.72765548  0.65426817  0.51806276  1  -1.223584  0  -0.326305  -0.251037  0  3.496221  0
O  O128  1  0.38437750  0.53270446  0.93270030  1  -1.147975  0  -0.331544  -0.57438  0  2.308865  0
O  O129  1  0.46729228  0.61562263  0.56730067  1  -1.148044  0  -0.331622  -0.574529  0  2.308955  0
O  O130  1  0.61562278  0.46729521  0.06729925  1  -1.14799  0  -0.331544  -0.574369  0  2.308884  0
O  O131  1  0.53270788  0.38437610  0.43269934  1  -1.148011  0  -0.331615  -0.574492  0  2.308952  0
O  O132  1  0.34583146  0.46864726  0.74977463  1  -1.158691  0  -0.315874  -0.565208  0  2.261861  0
O  O133  1  0.53135416  0.65417891  0.75023095  1  -1.158108  0  -0.315804  -0.565131  0  2.261875  0
O  O134  1  0.65416883  0.53135242  0.25022566  1  -1.158683  0  -0.315851  -0.565193  0  2.261873  0
O  O135  1  0.46864613  0.34582076  0.24976933  1  -1.158108  0  -0.315798  -0.565126  0  2.261905  0
O  O136  1  0.69741461  0.44729830  0.68259537  1  -1.171735  0  -0.317741  -0.5547  0  2.289114  0
O  O137  1  0.55270197  0.30257696  0.81740578  1  -1.171592  0  -0.317819  -0.554856  0  2.288864  0
O  O138  1  0.30258580  0.55270231  0.31740445  1  -1.171729  0  -0.317793  -0.554779  0  2.289064  0
O  O139  1  0.44729739  0.69742271  0.18259427  1  -1.171576  0  -0.317787  -0.554828  0  2.288844  0
O  O140  1  0.75588814  0.51590209  0.87105319  1  -1.154419  0  -0.329756  -0.56772  0  2.338277  0
O  O141  1  0.48409861  0.24410833  0.62894489  1  -1.154428  0  -0.329789  -0.567882  0  2.338159  0
O  O142  1  0.24411215  0.48409758  0.12894636  1  -1.154414  0  -0.329759  -0.567733  0  2.338195  0
O  O143  1  0.51590075  0.75589134  0.37105516  1  -1.154443  0  -0.329784  -0.567861  0  2.338144  0
