# generated using pymatgen
data_SrH6C8SO8
_symmetry_space_group_name_H-M   'P 1'
_cell_length_a   6.89411072
_cell_length_b   12.97089709
_cell_length_c   12.86384751
_cell_angle_alpha   115.68691534
_cell_angle_beta   90.00005356
_cell_angle_gamma   89.99993760
_symmetry_Int_Tables_number   1
_chemical_formula_structural   SrH6C8SO8
_chemical_formula_sum   'Sr4 H24 C32 S4 O32'
_cell_volume   1036.64195936
_cell_formula_units_Z   4
loop_
 _symmetry_equiv_pos_site_id
 _symmetry_equiv_pos_as_xyz
  1  'x, y, z'
loop_
 _atom_site_type_symbol
 _atom_site_label
 _atom_site_symmetry_multiplicity
 _atom_site_fract_x
 _atom_site_fract_y
 _atom_site_fract_z
 _atom_site_occupancy
 _atom_site_hle17_bader_spin_density
 _atom_site_hle17_ddec_charge
 _atom_site_hle17_ddec_spin_density
 _atom_site_hle17_ddec_sum_bond_order
 _atom_site_hle17_magmom
 _atom_site_hse06_10hf_bader_spin_density
 _atom_site_hse06_10hf_ddec_charge
 _atom_site_hse06_10hf_ddec_spin_density
 _atom_site_hse06_10hf_ddec_sum_bond_order
 _atom_site_hse06_10hf_magmom
 _atom_site_hse06_bader_spin_density
 _atom_site_hse06_ddec_charge
 _atom_site_hse06_ddec_spin_density
 _atom_site_hse06_ddec_sum_bond_order
 _atom_site_hse06_magmom
 _atom_site_pbe_bader_spin_density
 _atom_site_pbe_cm5_charge
 _atom_site_pbe_ddec_charge
 _atom_site_pbe_ddec_spin_density
 _atom_site_pbe_ddec_sum_bond_order
 _atom_site_pbe_magmom
Sr  Sr0  1  0.78030785  0.40868793  0.27097570  1  0  1.649235  0  1.094279  0  0  1.506643  0  1.470168  0  0  1.543771  0  1.425199  0  0  0.972679  1.479289  0  1.502119  0
Sr  Sr1  1  0.28030840  0.59131165  0.22902576  1  0  1.649238  0  1.094278  0  0  1.506626  0  1.47022  0  0  1.543776  0  1.425199  0  0  0.972684  1.479267  0  1.502173  0
Sr  Sr2  1  0.21969333  0.59131180  0.72902567  1  0  1.649234  0  1.094272  0  0  1.506611  0  1.470225  0  0  1.54377  0  1.425193  0  0  0.972681  1.479263  0  1.502177  0
Sr  Sr3  1  0.71969423  0.40868893  0.77097520  1  0  1.649233  0  1.094284  0  0  1.506615  0  1.470228  0  0  1.543771  0  1.425203  0  0  0.972692  1.479265  0  1.50218  0
H  H4  1  0.08927331  0.37365653  0.45217703  1  0  0.437253  0  0.854615  0  0  0.406621  0  0.916865  0  0  0.416729  0  0.902173  0  0  0.31128  0.399436  0  0.927305  0
H  H5  1  0.58927337  0.62634399  0.04782396  1  0  0.437245  0  0.85463  0  0  0.406612  0  0.916883  0  0  0.41672  0  0.90219  0  0  0.311278  0.399426  0  0.927323  0
H  H6  1  0.91072498  0.62634406  0.54782393  1  0  0.437279  0  0.854564  0  0  0.406638  0  0.916831  0  0  0.416746  0  0.90214  0  0  0.311294  0.399454  0  0.927271  0
H  H7  1  0.41072492  0.37365659  0.95217622  1  0  0.437272  0  0.854575  0  0  0.406634  0  0.916838  0  0  0.416743  0  0.902146  0  0  0.311284  0.399449  0  0.927278  0
H  H8  1  0.87233301  0.35543335  0.48515622  1  0  0.439051  0  0.852397  0  0  0.407342  0  0.917662  0  0  0.417984  0  0.90199  0  0  0.314585  0.399792  0  0.928765  0
H  H9  1  0.37233309  0.64456704  0.01484408  1  0  0.439056  0  0.85239  0  0  0.407348  0  0.917653  0  0  0.417989  0  0.901982  0  0  0.314587  0.399798  0  0.928758  0
H  H10  1  0.12766527  0.64456638  0.51484359  1  0  0.43904  0  0.852322  0  0  0.407333  0  0.917652  0  0  0.417974  0  0.901982  0  0  0.31458  0.399783  0  0.928756  0
H  H11  1  0.62766520  0.35543355  0.98515766  1  0  0.438983  0  0.852374  0  0  0.407293  0  0.91769  0  0  0.417936  0  0.902016  0  0  0.314583  0.399743  0  0.928794  0
H  H12  1  0.04086942  0.79492006  0.66241543  1  0  0.408772  0  0.865614  0  0  0.380977  0  0.937349  0  0  0.393348  0  0.924406  0  0  0.310219  0.372281  0  0.946359  0
H  H13  1  0.54087231  0.20507990  0.83758502  1  0  0.408771  0  0.865683  0  0  0.380964  0  0.937434  0  0  0.393339  0  0.924488  0  0  0.310194  0.372267  0  0.946441  0
H  H14  1  0.95913176  0.20507881  0.33758479  1  0  0.408793  0  0.865587  0  0  0.380995  0  0.937326  0  0  0.393368  0  0.924381  0  0  0.310227  0.3723  0  0.946335  0
H  H15  1  0.45912888  0.79492068  0.16241594  1  0  0.408764  0  0.865702  0  0  0.380969  0  0.937431  0  0  0.393341  0  0.92449  0  0  0.310215  0.372272  0  0.946439  0
H  H16  1  0.01213851  0.09618060  0.81962261  1  0  0.113309  0  0.944927  0  0  0.121045  0  1.010204  0  0  0.124678  0  1.007096  0  0  0.112706  0.118409  0  1.012493  0
H  H17  1  0.51213968  0.90381936  0.68037549  1  0  0.113314  0  0.944901  0  0  0.121075  0  1.010143  0  0  0.124688  0  1.007058  0  0  0.112707  0.118438  0  1.012436  0
H  H18  1  0.98785978  0.90381998  0.18037679  1  0  0.113305  0  0.944915  0  0  0.121052  0  1.010177  0  0  0.124676  0  1.00708  0  0  0.112719  0.118415  0  1.012466  0
H  H19  1  0.48786005  0.09617950  0.31962318  1  0  0.11331  0  0.944872  0  0  0.121056  0  1.010132  0  0  0.124679  0  1.007035  0  0  0.112714  0.118418  0  1.012423  0
H  H20  1  0.32085115  0.94482793  0.00967433  1  0  0.107508  0  0.947095  0  0  0.117987  0  1.005797  0  0  0.121582  0  1.003398  0  0  0.111952  0.11536  0  1.007659  0
H  H21  1  0.82085316  0.05517248  0.49032518  1  0  0.107534  0  0.947067  0  0  0.118002  0  1.005772  0  0  0.121594  0  1.003382  0  0  0.111959  0.115375  0  1.007631  0
H  H22  1  0.67914423  0.05517265  0.99032586  1  0  0.107545  0  0.947055  0  0  0.118015  0  1.005759  0  0  0.121607  0  1.003367  0  0  0.111967  0.115388  0  1.007618  0
H  H23  1  0.17914368  0.94482639  0.50967348  1  0  0.107547  0  0.947061  0  0  0.118014  0  1.00577  0  0  0.121613  0  1.003364  0  0  0.111969  0.115388  0  1.007628  0
H  H24  1  0.39647028  0.14008952  0.16448035  1  0  0.113504  0  0.942885  0  0  0.121931  0  1.004913  0  0  0.125198  0  1.003755  0  0  0.112072  0.119575  0  1.005929  0
H  H25  1  0.89646891  0.85991000  0.33551959  1  0  0.113501  0  0.942886  0  0  0.121933  0  1.004907  0  0  0.125199  0  1.003749  0  0  0.112076  0.119576  0  1.005924  0
H  H26  1  0.60352801  0.85991020  0.83551946  1  0  0.113498  0  0.942867  0  0  0.121928  0  1.004893  0  0  0.125194  0  1.003735  0  0  0.112071  0.119569  0  1.00591  0
H  H27  1  0.10352938  0.14008887  0.66447985  1  0  0.113506  0  0.94288  0  0  0.121931  0  1.004909  0  0  0.125197  0  1.003752  0  0  0.112069  0.119572  0  1.005925  0
C  C28  1  0.12931100  0.21312903  0.98418155  1  0  -0.150193  0  3.702718  0  0  -0.131953  0  3.955162  0  0  -0.139512  0  3.974479  0  0  -0.010686  -0.127246  0  3.942497  0
C  C29  1  0.62930923  0.78687089  0.51581814  1  0  -0.150193  0  3.702799  0  0  -0.131972  0  3.955207  0  0  -0.139537  0  3.974519  0  0  -0.010665  -0.127265  0  3.942548  0
C  C30  1  0.87068873  0.78687069  0.01581749  1  0  -0.150161  0  3.702716  0  0  -0.131937  0  3.955146  0  0  -0.139499  0  3.974461  0  0  -0.010674  -0.12723  0  3.942487  0
C  C31  1  0.37069051  0.21312884  0.48418244  1  0  -0.1502  0  3.702761  0  0  -0.131978  0  3.955197  0  0  -0.13954  0  3.974514  0  0  -0.010666  -0.127272  0  3.942539  0
C  C32  1  0.09559385  0.10507484  0.89488445  1  0  -0.03662  0  3.690837  0  0  -0.076739  0  3.946282  0  0  -0.071858  0  3.962481  0  0  -0.068312  -0.079702  0  3.935343  0
C  C33  1  0.59559201  0.89492508  0.60511290  1  0  -0.036605  0  3.690825  0  0  -0.076753  0  3.946291  0  0  -0.071854  0  3.962495  0  0  -0.068319  -0.079716  0  3.935355  0
C  C34  1  0.90440588  0.89492488  0.10511458  1  0  -0.036594  0  3.690797  0  0  -0.076718  0  3.946247  0  0  -0.071829  0  3.962448  0  0  -0.068317  -0.079679  0  3.935308  0
C  C35  1  0.40440627  0.10507464  0.39488614  1  0  -0.036563  0  3.690823  0  0  -0.076688  0  3.946273  0  0  -0.071799  0  3.962474  0  0  -0.068305  -0.079649  0  3.935334  0
C  C36  1  0.16757424  0.00837614  0.90409152  1  0  -0.085999  0  3.769104  0  0  -0.062365  0  4.00592  0  0  -0.072733  0  4.029879  0  0  -0.01745  -0.055752  0  3.989907  0
C  C37  1  0.66757218  0.99162632  0.59590696  1  0  -0.086013  0  3.769028  0  0  -0.062388  0  4.005861  0  0  -0.072755  0  4.029812  0  0  -0.017439  -0.055773  0  3.989847  0
C  C38  1  0.83242695  0.99162444  0.09590710  1  0  -0.085935  0  3.76901  0  0  -0.062314  0  4.005835  0  0  -0.072683  0  4.029793  0  0  -0.017421  -0.055698  0  3.989818  0
C  C39  1  0.33242610  0.00837511  0.40409204  1  0  -0.086052  0  3.769182  0  0  -0.062428  0  4.006008  0  0  -0.072797  0  4.029964  0  0  -0.017472  -0.055813  0  3.989991  0
C  C40  1  0.27085000  0.02120880  0.00281231  1  0  -0.040671  0  3.71842  0  0  -0.070077  0  3.9712  0  0  -0.067409  0  3.990098  0  0  -0.069432  -0.071544  0  3.958368  0
C  C41  1  0.77085156  0.97879247  0.49718678  1  0  -0.040712  0  3.718323  0  0  -0.070109  0  3.971112  0  0  -0.067442  0  3.990008  0  0  -0.06945  -0.071575  0  3.958277  0
C  C42  1  0.72914974  0.97879177  0.99718710  1  0  -0.040734  0  3.718368  0  0  -0.070126  0  3.971151  0  0  -0.067462  0  3.990053  0  0  -0.069458  -0.071592  0  3.958317  0
C  C43  1  0.22914962  0.02120725  0.50281225  1  0  -0.040729  0  3.718429  0  0  -0.070125  0  3.971208  0  0  -0.067459  0  3.990111  0  0  -0.069459  -0.071591  0  3.958372  0
C  C44  1  0.31074053  0.12936817  0.08934325  1  0  -0.077301  0  3.691178  0  0  -0.098322  0  3.945675  0  0  -0.102221  0  3.963703  0  0  -0.076352  -0.095904  0  3.933725  0
C  C45  1  0.81073927  0.87063139  0.41065666  1  0  -0.077288  0  3.691211  0  0  -0.098344  0  3.945665  0  0  -0.102243  0  3.963693  0  0  -0.076378  -0.095924  0  3.933716  0
C  C46  1  0.68926066  0.87063241  0.91065615  1  0  -0.077304  0  3.691178  0  0  -0.098342  0  3.945646  0  0  -0.10224  0  3.963675  0  0  -0.076368  -0.095918  0  3.933698  0
C  C47  1  0.18926047  0.12936663  0.58934397  1  0  -0.077275  0  3.691148  0  0  -0.098307  0  3.94562  0  0  -0.102206  0  3.963649  0  0  -0.076343  -0.095883  0  3.933668  0
C  C48  1  0.24069513  0.22652184  0.08094144  1  0  -0.006099  0  3.687259  0  0  0.002305  0  3.922136  0  0  0.004149  0  3.937917  0  0  0.013611  0.000957  0  3.911793  0
C  C49  1  0.74069408  0.77347688  0.41905652  1  0  -0.006166  0  3.687428  0  0  0.002352  0  3.92213  0  0  0.0042  0  3.93791  0  0  0.013621  0.000996  0  3.911806  0
C  C50  1  0.75930461  0.77347788  0.91905681  1  0  -0.006168  0  3.687272  0  0  0.002311  0  3.922061  0  0  0.004158  0  3.93784  0  0  0.013606  0.000956  0  3.91174  0
C  C51  1  0.25930565  0.22652113  0.58094333  1  0  -0.006136  0  3.687302  0  0  0.002319  0  3.922087  0  0  0.004165  0  3.937867  0  0  0.013595  0.000966  0  3.911766  0
C  C52  1  0.28470367  0.34343330  0.17480983  1  0  0.676228  0  3.956052  0  0  0.624169  0  4.253658  0  0  0.657865  0  4.243431  0  0  0.217523  0.6012  0  4.259811  0
C  C53  1  0.78470270  0.65656712  0.32519045  1  0  0.676307  0  3.956091  0  0  0.624221  0  4.253681  0  0  0.657919  0  4.243451  0  0  0.217553  0.601245  0  4.259847  0
C  C54  1  0.71529752  0.65656642  0.82518998  1  0  0.676267  0  3.956021  0  0  0.624147  0  4.253684  0  0  0.657844  0  4.243458  0  0  0.217528  0.601172  0  4.259858  0
C  C55  1  0.21529849  0.34343346  0.67481129  1  0  0.676201  0  3.956114  0  0  0.624149  0  4.253679  0  0  0.657846  0  4.24345  0  0  0.217511  0.601165  0  4.259864  0
C  C56  1  0.13648150  0.88998619  0.81435487  1  0  0.667252  0  3.81344  0  0  0.617403  0  4.109869  0  0  0.650801  0  4.101702  0  0  0.243086  0.594651  0  4.115127  0
C  C57  1  0.63648286  0.11001543  0.68564323  1  0  0.667259  0  3.813524  0  0  0.617422  0  4.109928  0  0  0.650821  0  4.101758  0  0  0.243056  0.594668  0  4.115185  0
C  C58  1  0.86352114  0.11001353  0.18564416  1  0  0.667199  0  3.813456  0  0  0.617366  0  4.109865  0  0  0.650766  0  4.101697  0  0  0.243078  0.594613  0  4.115121  0
C  C59  1  0.36351687  0.88998515  0.31435539  1  0  0.667226  0  3.813498  0  0  0.617393  0  4.109903  0  0  0.650792  0  4.101734  0  0  0.243099  0.594639  0  4.115157  0
S  S60  1  0.02446631  0.33667001  0.97871606  1  0  1.34517  0  5.585145  0  0  1.241126  0  6.103347  0  0  1.289418  0  6.079967  0  0  0.550218  1.207775  0  6.118634  0
S  S61  1  0.52446625  0.66333081  0.52128475  1  0  1.345238  0  5.585148  0  0  1.241164  0  6.103371  0  0  1.289457  0  6.079991  0  0  0.550258  1.207814  0  6.118665  0
S  S62  1  0.97553342  0.66333057  0.02128490  1  0  1.34521  0  5.585173  0  0  1.241148  0  6.103389  0  0  1.289438  0  6.080009  0  0  0.550231  1.207798  0  6.11868  0
S  S63  1  0.47553348  0.33666891  0.47871584  1  0  1.345262  0  5.585081  0  0  1.241202  0  6.103296  0  0  1.289493  0  6.079917  0  0  0.550295  1.207853  0  6.118592  0
O  O64  1  0.85618842  0.36831640  0.05756502  1  0  -0.714449  0  2.021047  0  0  -0.65296  0  2.282191  0  0  -0.674623  0  2.265501  0  0  -0.347198  -0.637661  0  2.293294  0
O  O65  1  0.35618926  0.63168400  0.44243605  1  0  -0.714473  0  2.021039  0  0  -0.652946  0  2.282164  0  0  -0.674591  0  2.265436  0  0  -0.347183  -0.637644  0  2.293268  0
O  O66  1  0.14381132  0.63168333  0.94243557  1  0  -0.714466  0  2.021025  0  0  -0.652943  0  2.282134  0  0  -0.6746  0  2.265436  0  0  -0.347185  -0.637643  0  2.293239  0
O  O67  1  0.64381193  0.36831659  0.55756491  1  0  -0.714475  0  2.020995  0  0  -0.652972  0  2.282128  0  0  -0.674627  0  2.26542  0  0  -0.3472  -0.637673  0  2.293235  0
O  O68  1  0.96049228  0.34217772  0.41962123  1  0  -0.857988  0  1.885796  0  0  -0.799229  0  2.061077  0  0  -0.819729  0  2.030673  0  0  -0.578272  -0.784735  0  2.082365  0
O  O69  1  0.46049243  0.65782177  0.08037873  1  0  -0.857994  0  1.885793  0  0  -0.799236  0  2.061072  0  0  -0.819738  0  2.030669  0  0  -0.578285  -0.784741  0  2.082359  0
O  O70  1  0.03950746  0.65782201  0.58037936  1  0  -0.857991  0  1.885683  0  0  -0.799228  0  2.061022  0  0  -0.819734  0  2.030621  0  0  -0.578274  -0.784735  0  2.082309  0
O  O71  1  0.53950730  0.34217881  0.91962145  1  0  -0.857944  0  1.88571  0  0  -0.799182  0  2.061069  0  0  -0.819684  0  2.030659  0  0  -0.578271  -0.78469  0  2.082355  0
O  O72  1  0.17817194  0.42510757  0.02036166  1  0  -0.718632  0  2.019442  0  0  -0.655846  0  2.274445  0  0  -0.677362  0  2.259101  0  0  -0.339694  -0.640703  0  2.284703  0
O  O73  1  0.67817141  0.57489291  0.47964014  1  0  -0.718688  0  2.019492  0  0  -0.655857  0  2.274437  0  0  -0.677368  0  2.259088  0  0  -0.33973  -0.640713  0  2.284699  0
O  O74  1  0.82182779  0.57489302  0.97963930  1  0  -0.718676  0  2.019507  0  0  -0.655877  0  2.2745  0  0  -0.677391  0  2.259157  0  0  -0.339702  -0.640732  0  2.28476  0
O  O75  1  0.32182687  0.42510597  0.52036164  1  0  -0.718689  0  2.019534  0  0  -0.655896  0  2.27454  0  0  -0.677414  0  2.2592  0  0  -0.33974  -0.640748  0  2.284798  0
O  O76  1  0.96798895  0.30377497  0.85910934  1  0  -0.680581  0  1.986745  0  0  -0.626086  0  2.247225  0  0  -0.648346  0  2.235004  0  0  -0.342486  -0.610371  0  2.255164  0
O  O77  1  0.46798913  0.69622480  0.64089124  1  0  -0.6806  0  1.986723  0  0  -0.626116  0  2.247223  0  0  -0.648378  0  2.234999  0  0  -0.342501  -0.6104  0  2.255166  0
O  O78  1  0.03201079  0.69622561  0.14089085  1  0  -0.680603  0  1.986773  0  0  -0.626105  0  2.247262  0  0  -0.648364  0  2.23504  0  0  -0.342491  -0.610388  0  2.255202  0
O  O79  1  0.53201060  0.30377408  0.35911054  1  0  -0.680608  0  1.986741  0  0  -0.626104  0  2.247217  0  0  -0.648361  0  2.234995  0  0  -0.342505  -0.610388  0  2.255161  0
O  O80  1  0.14974500  0.39828522  0.24298703  1  0  -0.704452  0  2.008203  0  0  -0.647696  0  2.255048  0  0  -0.67372  0  2.245005  0  0  -0.371395  -0.629077  0  2.261297  0
O  O81  1  0.64974548  0.60171356  0.25701401  1  0  -0.704461  0  2.008215  0  0  -0.647713  0  2.255085  0  0  -0.67374  0  2.245042  0  0  -0.371392  -0.629084  0  2.261325  0
O  O82  1  0.85025473  0.60171451  0.75701433  1  0  -0.704436  0  2.0082  0  0  -0.647666  0  2.255081  0  0  -0.673695  0  2.245039  0  0  -0.37139  -0.629043  0  2.261337  0
O  O83  1  0.35025571  0.39828531  0.74298620  1  0  -0.704452  0  2.008233  0  0  -0.647702  0  2.255076  0  0  -0.673729  0  2.245031  0  0  -0.371399  -0.629075  0  2.261333  0
O  O84  1  0.45350277  0.38337278  0.17659969  1  0  -0.723361  0  2.003849  0  0  -0.662502  0  2.252217  0  0  -0.689514  0  2.241738  0  0  -0.390366  -0.643106  0  2.258745  0
O  O85  1  0.95350334  0.61662757  0.32340063  1  0  -0.723382  0  2.003799  0  0  -0.662537  0  2.252202  0  0  -0.689554  0  2.241724  0  0  -0.390374  -0.643136  0  2.25873  0
O  O86  1  0.54649841  0.61662695  0.82340012  1  0  -0.723369  0  2.003842  0  0  -0.662487  0  2.252224  0  0  -0.689505  0  2.241742  0  0  -0.390358  -0.643085  0  2.258757  0
O  O87  1  0.04649930  0.38337131  0.67660114  1  0  -0.72333  0  2.003862  0  0  -0.662465  0  2.252197  0  0  -0.689483  0  2.241715  0  0  -0.39035  -0.643062  0  2.258733  0
O  O88  1  0.05315813  0.88024139  0.71714408  1  0  -0.542237  0  2.051915  0  0  -0.49156  0  2.260947  0  0  -0.514443  0  2.248579  0  0  -0.325143  -0.475626  0  2.269069  0
O  O89  1  0.55316255  0.11976111  0.78285437  1  0  -0.542229  0  2.052055  0  0  -0.491534  0  2.261066  0  0  -0.51442  0  2.248697  0  0  -0.325073  -0.475599  0  2.269188  0
O  O90  1  0.94684160  0.11975833  0.28285573  1  0  -0.542253  0  2.051936  0  0  -0.49158  0  2.26096  0  0  -0.514465  0  2.248597  0  0  -0.325156  -0.475648  0  2.269082  0
O  O91  1  0.44684154  0.88024031  0.21714385  1  0  -0.542226  0  2.052027  0  0  -0.491548  0  2.261049  0  0  -0.514433  0  2.248681  0  0  -0.325135  -0.475612  0  2.26917  0
O  O92  1  0.18738737  0.80675854  0.83101924  1  0  -0.618671  0  2.022208  0  0  -0.572209  0  2.269344  0  0  -0.594065  0  2.260981  0  0  -0.333157  -0.557299  0  2.27503  0
O  O93  1  0.68739433  0.19324392  0.66898080  1  0  -0.61869  0  2.02226  0  0  -0.572234  0  2.269373  0  0  -0.594091  0  2.261012  0  0  -0.333197  -0.557324  0  2.275057  0
O  O94  1  0.81261237  0.19324204  0.16898094  1  0  -0.618672  0  2.022216  0  0  -0.572212  0  2.269328  0  0  -0.594064  0  2.260966  0  0  -0.333175  -0.557302  0  2.275011  0
O  O95  1  0.31260975  0.80675837  0.33101857  1  0  -0.618628  0  2.022241  0  0  -0.572175  0  2.269368  0  0  -0.594031  0  2.261005  0  0  -0.333168  -0.557265  0  2.275051  0
