# generated using pymatgen
data_LaH8C7NO8
_symmetry_space_group_name_H-M   'P 1'
_cell_length_a   6.93423623
_cell_length_b   8.58278663
_cell_length_c   18.76760262
_cell_angle_alpha   81.36059648
_cell_angle_beta   79.36570201
_cell_angle_gamma   66.20704905
_symmetry_Int_Tables_number   1
_chemical_formula_structural   LaH8C7NO8
_chemical_formula_sum   'La4 H32 C28 N4 O32'
_cell_volume   1000.89989333
_cell_formula_units_Z   4
loop_
 _symmetry_equiv_pos_site_id
 _symmetry_equiv_pos_as_xyz
  1  'x, y, z'
loop_
 _atom_site_type_symbol
 _atom_site_label
 _atom_site_symmetry_multiplicity
 _atom_site_fract_x
 _atom_site_fract_y
 _atom_site_fract_z
 _atom_site_occupancy
 _atom_site_pbe_bader_charge
 _atom_site_pbe_bader_spin_density
 _atom_site_pbe_cm5_charge
 _atom_site_pbe_ddec_charge
 _atom_site_pbe_ddec_spin_density
 _atom_site_pbe_ddec_sum_bond_order
 _atom_site_pbe_magmom
La  La0  1  0.49991357  0.92178131  0.61627896  1  2.25853  0  1.385183  1.903309  0  2.28423  0
La  La1  1  0.03805771  0.57797818  0.88370427  1  2.255223  0  1.385179  1.903984  0  2.282139  0
La  La2  1  0.50008769  0.07821413  0.38372256  1  2.258612  0  1.385182  1.903299  0  2.284273  0
La  La3  1  0.96193961  0.42202238  0.11629451  1  2.255208  0  1.385184  1.903994  0  2.28217  0
H  H4  1  0.97427710  0.60295343  0.61821497  1  0.658335  0  0.300009  0.400587  0  0.926752  0
H  H5  1  0.19585705  0.89680060  0.88172909  1  0.635647  0  0.300115  0.400377  0  0.926846  0
H  H6  1  0.02572524  0.39704584  0.38178728  1  0.658324  0  0.299995  0.400552  0  0.926788  0
H  H7  1  0.80414737  0.10319741  0.11826938  1  0.635647  0  0.300111  0.400378  0  0.92683  0
H  H8  1  0.89038437  0.70533302  0.69032779  1  0.646711  0  0.300677  0.390563  0  0.945139  0
H  H9  1  0.28631716  0.79433333  0.80963916  1  0.648969  0  0.300614  0.390095  0  0.945646  0
H  H10  1  0.10961419  0.29466498  0.30967427  1  0.646435  0  0.300705  0.390606  0  0.945085  0
H  H11  1  0.71368286  0.20566467  0.19035960  1  0.648984  0  0.300628  0.390095  0  0.945629  0
H  H12  1  0.02347936  0.97325596  0.58089600  1  0.653253  0  0.301445  0.395328  0  0.935804  0
H  H13  1  0.57747108  0.52667602  0.91913880  1  0.646324  0  0.301255  0.394821  0  0.936385  0
H  H14  1  0.97652322  0.02674588  0.41910232  1  0.653184  0  0.301482  0.395395  0  0.93574  0
H  H15  1  0.42252478  0.47332454  0.08086327  1  0.646327  0  0.301256  0.394818  0  0.93639  0
H  H16  1  0.20291641  0.92643621  0.51309846  1  0.631627  0  0.295197  0.368807  0  0.985767  0
H  H17  1  0.64236887  0.57371398  0.98690104  1  0.630378  0  0.295356  0.369097  0  0.985442  0
H  H18  1  0.79708863  0.07356052  0.48690112  1  0.631656  0  0.295167  0.368774  0  0.985791  0
H  H19  1  0.35762869  0.42628913  0.01310021  1  0.630444  0  0.295334  0.369053  0  0.985489  0
H  H20  1  0.03132334  0.12508255  0.69180058  1  0.600383  0  0.32876  0.408695  0  0.874987  0
H  H21  1  0.84667155  0.37491108  0.80862168  1  0.61348  0  0.328418  0.408239  0  0.876182  0
H  H22  1  0.96868033  0.87492312  0.30820328  1  0.600384  0  0.328807  0.408751  0  0.874951  0
H  H23  1  0.15331342  0.62509075  0.19138264  1  0.61355  0  0.32849  0.408345  0  0.876109  0
H  H24  1  0.12825527  0.25332697  0.64375351  1  0.63866  0  0.293465  0.3789  0  0.967116  0
H  H25  1  0.02481101  0.24659124  0.85623029  1  0.639976  0  0.293666  0.379365  0  0.966629  0
H  H26  1  0.87175294  0.74667231  0.35624727  1  0.638657  0  0.293477  0.378904  0  0.967093  0
H  H27  1  0.97518840  0.75340804  0.14376736  1  0.639946  0  0.293649  0.379334  0  0.966662  0
H  H28  1  0.50442948  0.26103580  0.69230523  1  0.134093  0  0.117785  0.140512  0  1.041942  0
H  H29  1  0.45841089  0.23857212  0.80762398  1  0.153117  0  0.117938  0.141204  0  1.042009  0
H  H30  1  0.49556444  0.73895965  0.30769253  1  0.134241  0  0.117775  0.14048  0  1.041889  0
H  H31  1  0.54158520  0.76143099  0.19237631  1  0.1531  0  0.117943  0.141227  0  1.042007  0
H  H32  1  0.85031559  0.30761679  0.47861037  1  0.139851  0  0.118113  0.142439  0  1.023414  0
H  H33  1  0.63603669  0.19214486  0.02152850  1  0.13634  0  0.11796  0.142579  0  1.02362  0
H  H34  1  0.14969177  0.69238121  0.52139056  1  0.139698  0  0.118128  0.142477  0  1.023339  0
H  H35  1  0.36396821  0.80785825  0.97847065  1  0.136322  0  0.117979  0.142624  0  1.023677  0
C  C36  1  0.38029039  0.59847796  0.71739226  1  1.563595  0  0.238209  0.584607  0  4.159487  0
C  C37  1  0.69682555  0.90130807  0.78253231  1  1.591163  0  0.2385  0.584944  0  4.16214  0
C  C38  1  0.61970268  0.40151620  0.28260831  1  1.563753  0  0.238346  0.584789  0  4.159344  0
C  C39  1  0.30317078  0.09869760  0.21746778  1  1.591191  0  0.238476  0.584838  0  4.162227  0
C  C40  1  0.51166292  0.50719658  0.65158333  1  0.49972  0  0.111974  0.125439  0  4.022473  0
C  C41  1  0.67117089  0.99261218  0.84834958  1  0.487306  0  0.112318  0.125623  0  4.023608  0
C  C42  1  0.48833516  0.49279631  0.34841698  1  0.499895  0  0.112058  0.125455  0  4.022587  0
C  C43  1  0.32882814  0.00739093  0.15164997  1  0.487182  0  0.11233  0.125761  0  4.023623  0
C  C44  1  0.56419613  0.33411438  0.64792470  1  -0.037482  0  -0.091712  -0.269191  0  3.891142  0
C  C45  1  0.54676564  0.16562066  0.85204063  1  -0.070272  0  -0.091165  -0.269659  0  3.893573  0
C  C46  1  0.43580011  0.66588235  0.35207548  1  -0.037228  0  -0.091722  -0.26914  0  3.891186  0
C  C47  1  0.45323277  0.83438373  0.14795994  1  -0.070424  0  -0.091164  -0.269726  0  3.893689  0
C  C48  1  0.69112286  0.25419114  0.58509502  1  0.642486  0  0.096115  0.37206  0  4.123976  0
C  C49  1  0.53056296  0.24557336  0.91491786  1  0.639729  0  0.095728  0.371743  0  4.124776  0
C  C50  1  0.30888342  0.74580303  0.41490465  1  0.642059  0  0.096058  0.371917  0  4.124023  0
C  C51  1  0.46943460  0.75442975  0.08508178  1  0.639755  0  0.095688  0.371593  0  4.124856  0
C  C52  1  0.75664863  0.35998951  0.52894446  1  -0.016771  0  -0.088703  -0.242513  0  3.861831  0
C  C53  1  0.64544754  0.13983062  0.97112046  1  0.009651  0  -0.08894  -0.243208  0  3.86321  0
C  C54  1  0.24335556  0.64000593  0.47105580  1  -0.016602  0  -0.088716  -0.242469  0  3.861742  0
C  C55  1  0.35455443  0.86017250  0.02887729  1  0.009733  0  -0.089  -0.243238  0  3.863304  0
C  C56  1  0.69094997  0.53258217  0.53696610  1  0.491725  0  0.108262  0.115585  0  4.04049  0
C  C57  1  0.76065458  0.96729709  0.96305216  1  0.47951  0  0.107704  0.114962  0  4.041997  0
C  C58  1  0.30905213  0.46741455  0.46303474  1  0.491615  0  0.10827  0.11559  0  4.040288  0
C  C59  1  0.23934885  0.03270602  0.03694549  1  0.479478  0  0.107746  0.115062  0  4.041982  0
C  C60  1  0.73897193  0.65382221  0.47650549  1  1.549017  0  0.234851  0.57512  0  4.157054  0
C  C61  1  0.86912344  0.84612595  0.02356132  1  1.563209  0  0.234543  0.57467  0  4.156244  0
C  C62  1  0.26103103  0.34617579  0.52349574  1  1.549669  0  0.234864  0.575107  0  4.156867  0
C  C63  1  0.13088477  0.15387333  0.97643627  1  1.56313  0  0.234577  0.574738  0  4.156383  0
N  N64  1  0.57253522  0.60606005  0.59730210  1  -1.242986  0  -0.400245  -0.373671  0  3.537369  0
N  N65  1  0.77648558  0.89380577  0.90265868  1  -1.246008  0  -0.400148  -0.372952  0  3.536582  0
N  N66  1  0.42746396  0.39393667  0.40269841  1  -1.243253  0  -0.4003  -0.373742  0  3.537299  0
N  N67  1  0.22351430  0.10619862  0.09734019  1  -1.24572  0  -0.400166  -0.373069  0  3.536597  0
O  O68  1  0.36526772  0.75225106  0.71893094  1  -1.18747  0  -0.359885  -0.601664  0  2.265976  0
O  O69  1  0.83689951  0.74749661  0.78103829  1  -1.193612  0  -0.360696  -0.602458  0  2.265457  0
O  O70  1  0.63472828  0.24774310  0.28106996  1  -1.187794  0  -0.359941  -0.601708  0  2.265947  0
O  O71  1  0.16309488  0.25250395  0.21896228  1  -1.193675  0  -0.360668  -0.602384  0  2.265574  0
O  O72  1  0.29590298  0.52032226  0.76706046  1  -1.184829  0  -0.355028  -0.574603  0  2.272585  0
O  O73  1  0.58399412  0.97933889  0.73289014  1  -1.191987  0  -0.354749  -0.574314  0  2.27681  0
O  O74  1  0.70409009  0.47967191  0.23293851  1  -1.184672  0  -0.355123  -0.574741  0  2.272502  0
O  O75  1  0.41600259  0.02066295  0.26711072  1  -1.192002  0  -0.354754  -0.57428  0  2.27674  0
O  O76  1  0.64705449  0.81414352  0.48689309  1  -1.208443  0  -0.382328  -0.654827  0  2.294028  0
O  O77  1  0.94779131  0.68580100  0.01317358  1  -1.208533  0  -0.382211  -0.654585  0  2.293738  0
O  O78  1  0.35294762  0.18585320  0.51310935  1  -1.208481  0  -0.382355  -0.654818  0  2.293948  0
O  O79  1  0.05220809  0.31419829  0.98682301  1  -1.208525  0  -0.382178  -0.654599  0  2.293822  0
O  O80  1  0.85902624  0.59591743  0.41910212  1  -1.176694  0  -0.280291  -0.520665  0  2.244175  0
O  O81  1  0.87370407  0.90406777  0.08099101  1  -1.185195  0  -0.280421  -0.520842  0  2.242847  0
O  O82  1  0.14097109  0.40408313  0.58089985  1  -1.177238  0  -0.28028  -0.520651  0  2.244136  0
O  O83  1  0.12630830  0.09592896  0.91900487  1  -1.185154  0  -0.280471  -0.520904  0  2.242888  0
O  O84  1  0.74175494  0.09048109  0.57836546  1  -1.2145  0  -0.383807  -0.621092  0  2.2815  0
O  O85  1  0.41067807  0.40924068  0.92163798  1  -1.210098  0  -0.383214  -0.620424  0  2.281294  0
O  O86  1  0.25825341  0.90951180  0.42163469  1  -1.214279  0  -0.383772  -0.621021  0  2.281426  0
O  O87  1  0.58931803  0.59076243  0.07836283  1  -1.210016  0  -0.383216  -0.620375  0  2.28142  0
O  O88  1  0.88004873  0.71371961  0.63751296  1  -1.305938  0  -0.628283  -0.821398  0  2.045007  0
O  O89  1  0.23172165  0.78595799  0.86247338  1  -1.284782  0  -0.628437  -0.820846  0  2.046588  0
O  O90  1  0.11995277  0.28627839  0.36248890  1  -1.305635  0  -0.628294  -0.821417  0  2.045108  0
O  O91  1  0.76827922  0.21404129  0.13752577  1  -1.284768  0  -0.628441  -0.820826  0  2.046575  0
O  O92  1  0.17987855  0.92401553  0.56742469  1  -1.29936  0  -0.638171  -0.832428  0  2.131264  0
O  O93  1  0.67128010  0.57592812  0.93258068  1  -1.29101  0  -0.638228  -0.832682  0  2.130759  0
O  O94  1  0.82012441  0.07598247  0.43257494  1  -1.299374  0  -0.638148  -0.832416  0  2.131177  0
O  O95  1  0.32871722  0.42407244  0.06742076  1  -1.291054  0  -0.638212  -0.832624  0  2.130761  0
O  O96  1  0.16115021  0.14626922  0.67818464  1  -1.233833  0  -0.621417  -0.789685  0  2.034538  0
O  O97  1  0.98459661  0.35364370  0.82180439  1  -1.248299  0  -0.62125  -0.789966  0  2.034255  0
O  O98  1  0.83885654  0.85373006  0.32181518  1  -1.233842  0  -0.621482  -0.789748  0  2.034518  0
O  O99  1  0.01539484  0.64635685  0.17819478  1  -1.248357  0  -0.621307  -0.790044  0  2.034288  0
