# generated using pymatgen
data_Cu2H5C6(IN)2
_symmetry_space_group_name_H-M   'P 1'
_cell_length_a   4.03630579
_cell_length_b   10.85806114
_cell_length_c   11.80720201
_cell_angle_alpha   113.23319259
_cell_angle_beta   99.70739016
_cell_angle_gamma   89.38158511
_symmetry_Int_Tables_number   1
_chemical_formula_structural   Cu2H5C6(IN)2
_chemical_formula_sum   'Cu4 H10 C12 I4 N4'
_cell_volume   467.80858640
_cell_formula_units_Z   2
loop_
 _symmetry_equiv_pos_site_id
 _symmetry_equiv_pos_as_xyz
  1  'x, y, z'
loop_
 _atom_site_type_symbol
 _atom_site_label
 _atom_site_symmetry_multiplicity
 _atom_site_fract_x
 _atom_site_fract_y
 _atom_site_fract_z
 _atom_site_occupancy
 _atom_site_pbe_bader_spin_density
 _atom_site_pbe_cm5_charge
 _atom_site_pbe_ddec_charge
 _atom_site_pbe_ddec_spin_density
 _atom_site_pbe_ddec_sum_bond_order
 _atom_site_pbe_magmom
Cu  Cu0  1  0.81426890  0.71316948  0.90385625  1  0  0.236994  0.171952  0  2.717678  0
Cu  Cu1  1  0.18577341  0.28683298  0.09614500  1  0  0.237032  0.172001  0  2.71774  0
Cu  Cu2  1  0.33923798  0.59143208  0.96712524  1  0  0.134869  0.101347  0  2.809858  0
Cu  Cu3  1  0.66071800  0.40856481  0.03287686  1  0  0.134843  0.10117  0  2.810107  0
H  H4  1  0.40915368  0.57385001  0.62077297  1  0  0.109218  0.107935  0  1.02362  0
H  H5  1  0.59085558  0.42614956  0.37923218  1  0  0.109235  0.10796  0  1.023558  0
H  H6  1  0.46270671  0.68243378  0.44666402  1  0  0.104407  0.109735  0  1.073067  0
H  H7  1  0.53727703  0.31756396  0.55333822  1  0  0.104383  0.109708  0  1.073033  0
H  H8  1  0.07533921  0.91905977  0.79574519  1  0  0.117237  0.102075  0  1.031895  0
H  H9  1  0.92467481  0.08093989  0.20425009  1  0  0.117224  0.102046  0  1.031911  0
H  H10  1  0.96877182  0.09229789  0.72703949  1  0  0.089649  0.108086  0  1.055923  0
H  H11  1  0.03122259  0.90770387  0.27295889  1  0  0.089687  0.108136  0  1.055918  0
H  H12  1  0.15575157  0.24051112  0.63487180  1  0  0.089702  0.105772  0  1.04575  0
H  H13  1  0.84424514  0.75948963  0.36512548  1  0  0.08969  0.10577  0  1.045726  0
C  C14  1  0.55700602  0.66150094  0.63097889  1  0  -0.009976  -0.032982  0  3.990291  0
C  C15  1  0.44299337  0.33849971  0.36902528  1  0  -0.009963  -0.032983  0  3.990435  0
C  C16  1  0.58127993  0.71360894  0.54391939  1  0  -0.007584  -0.10569  0  3.924361  0
C  C17  1  0.41871472  0.28639381  0.45608106  1  0  -0.007591  -0.105709  0  3.924317  0
C  C18  1  0.89618972  0.84086981  0.72655299  1  0  0.134145  0.106383  0  3.863305  0
C  C19  1  0.10381164  0.15912889  0.27344463  1  0  0.134132  0.106412  0  3.863168  0
C  C20  1  0.89707960  0.91541523  0.55246213  1  0  0.092152  0.163575  0  4.003631  0
C  C21  1  0.10291635  0.08458150  0.44753446  1  0  0.092139  0.163511  0  4.003608  0
C  C22  1  0.98705796  0.05084657  0.62799432  1  0  -0.092205  -0.143524  0  3.968875  0
C  C23  1  0.01294587  0.94915213  0.37200174  1  0  -0.092229  -0.143509  0  3.968891  0
C  C24  1  0.09067252  0.13482472  0.57544777  1  0  -0.093635  -0.144962  0  3.976861  0
C  C25  1  0.90933135  0.86517397  0.42454999  1  0  -0.093654  -0.145001  0  3.976809  0
I  I26  1  0.38106409  0.84887197  0.04528243  1  0  -0.167149  -0.247815  0  2.358027  0
I  I27  1  0.61898205  0.15112335  0.95472315  1  0  -0.167148  -0.247775  0  2.358063  0
I  I28  1  0.24463447  0.55265913  0.17355022  1  0  -0.126789  -0.179148  0  2.533161  0
I  I29  1  0.75531251  0.44734390  0.82644859  1  0  -0.126827  -0.179154  0  2.533052  0
N  N30  1  0.75514079  0.74126369  0.74410620  1  0  -0.384739  -0.229856  0  3.662189  0
N  N31  1  0.24487418  0.25873991  0.25589737  1  0  -0.384732  -0.229862  0  3.662144  0
N  N32  1  0.79545578  0.82855267  0.60570780  1  0  -0.226254  0.007182  0  3.791586  0
N  N33  1  0.20453807  0.17144606  0.39429028  1  0  -0.22626  0.007218  0  3.791354  0
