# generated using pymatgen
data_Mg(H5C6)2
_symmetry_space_group_name_H-M   'P 1'
_cell_length_a   5.56789342
_cell_length_b   9.41246859
_cell_length_c   10.70579413
_cell_angle_alpha   116.07228561
_cell_angle_beta   105.07515954
_cell_angle_gamma   90.01220236
_symmetry_Int_Tables_number   1
_chemical_formula_structural   Mg(H5C6)2
_chemical_formula_sum   'Mg2 H20 C24'
_cell_volume   482.36671548
_cell_formula_units_Z   2
loop_
 _symmetry_equiv_pos_site_id
 _symmetry_equiv_pos_as_xyz
  1  'x, y, z'
loop_
 _atom_site_type_symbol
 _atom_site_label
 _atom_site_symmetry_multiplicity
 _atom_site_fract_x
 _atom_site_fract_y
 _atom_site_fract_z
 _atom_site_occupancy
 _atom_site_pbe_bader_spin_density
 _atom_site_pbe_cm5_charge
 _atom_site_pbe_ddec_charge
 _atom_site_pbe_ddec_spin_density
 _atom_site_pbe_ddec_sum_bond_order
 _atom_site_pbe_magmom
Mg  Mg0  1  0.74997802  0.50002795  0.49999384  1  0  0.52539  0.902101  0  1.737072  0
Mg  Mg1  1  0.25000210  0.49996925  0.49999785  1  0  0.525424  0.902083  0  1.737099  0
H  H2  1  0.99339781  0.80526399  0.48696522  1  0  0.089833  0.071494  0  1.031691  0
H  H3  1  0.49336602  0.18156332  0.48696749  1  0  0.089739  0.071598  0  1.031843  0
H  H4  1  0.00657745  0.19473676  0.51303934  1  0  0.089851  0.07156  0  1.031618  0
H  H5  1  0.50661075  0.81844462  0.51302792  1  0  0.08975  0.071577  0  1.031866  0
H  H6  1  0.08693270  0.08618284  0.67352509  1  0  0.094651  0.089159  0  1.03091  0
H  H7  1  0.58712621  0.08743676  0.67370786  1  0  0.094722  0.089509  0  1.03138  0
H  H8  1  0.91307071  0.91381909  0.32648561  1  0  0.094636  0.089117  0  1.03096  0
H  H9  1  0.41287771  0.91256758  0.32629264  1  0  0.094715  0.089454  0  1.031399  0
H  H10  1  0.21830695  0.15344367  0.93584799  1  0  0.097571  0.089499  0  1.031257  0
H  H11  1  0.71847403  0.28261373  0.93597121  1  0  0.097753  0.090041  0  1.031093  0
H  H12  1  0.78172026  0.84654752  0.06415897  1  0  0.097526  0.089465  0  1.031312  0
H  H13  1  0.28154280  0.71739898  0.06402961  1  0  0.097759  0.090061  0  1.031127  0
H  H14  1  0.25505744  0.93667398  0.00976826  1  0  0.094862  0.088818  0  1.026337  0
H  H15  1  0.75501434  0.57332937  0.00967898  1  0  0.094831  0.089369  0  1.026429  0
H  H16  1  0.74496779  0.06330767  0.99023192  1  0  0.094875  0.088829  0  1.026345  0
H  H17  1  0.24499616  0.42667976  0.99031866  1  0  0.094895  0.089491  0  1.026324  0
H  H18  1  0.16218684  0.65454658  0.82388844  1  0  0.090064  0.072707  0  1.030938  0
H  H19  1  0.66163399  0.66930304  0.82354028  1  0  0.090203  0.072577  0  1.030226  0
H  H20  1  0.83780864  0.34543509  0.17610305  1  0  0.090028  0.072641  0  1.030989  0
H  H21  1  0.33835394  0.33070488  0.17645944  1  0  0.090207  0.072619  0  1.030049  0
C  C22  1  0.06902164  0.70308934  0.63760995  1  0  -0.248016  -0.568642  0  3.976114  0
C  C23  1  0.56877238  0.43439208  0.63747302  1  0  -0.24872  -0.569571  0  3.975979  0
C  C24  1  0.93096677  0.29690307  0.36238662  1  0  -0.248101  -0.568821  0  3.976462  0
C  C25  1  0.43122299  0.56561586  0.36252398  1  0  -0.248641  -0.569427  0  3.975971  0
C  C26  1  0.05068758  0.83115920  0.60138579  1  0  -0.096475  -0.013519  0  4.084858  0
C  C27  1  0.55074577  0.27012868  0.60136549  1  0  -0.096305  -0.012891  0  4.084935  0
C  C28  1  0.94930380  0.16884749  0.39862886  1  0  -0.096367  -0.013415  0  4.084564  0
C  C29  1  0.44925369  0.72987209  0.39863115  1  0  -0.096329  -0.012934  0  4.084965  0
C  C30  1  0.10316284  0.99105367  0.70613189  1  0  -0.099262  -0.096717  0  3.998609  0
C  C31  1  0.60330949  0.21511385  0.70623375  1  0  -0.099205  -0.097665  0  3.999152  0
C  C32  1  0.89682321  0.00893633  0.29386903  1  0  -0.099245  -0.096711  0  3.998635  0
C  C33  1  0.39668824  0.78489647  0.29376449  1  0  -0.099211  -0.097543  0  3.998854  0
C  C34  1  0.17698646  0.02900241  0.85335308  1  0  -0.088999  -0.069857  0  3.99254  0
C  C35  1  0.67697740  0.32451868  0.85342334  1  0  -0.08922  -0.069889  0  3.992945  0
C  C36  1  0.82302897  0.97099474  0.14665833  1  0  -0.088955  -0.069785  0  3.992895  0
C  C37  1  0.32301797  0.67548925  0.14657459  1  0  -0.089283  -0.070044  0  3.992958  0
C  C38  1  0.19753825  0.90683788  0.89469219  1  0  -0.099042  -0.096422  0  4.000818  0
C  C39  1  0.69740289  0.48798078  0.89463111  1  0  -0.099263  -0.098313  0  4.001144  0
C  C40  1  0.80247744  0.09314259  0.10530157  1  0  -0.09899  -0.096303  0  4.000548  0
C  C41  1  0.30259273  0.51202834  0.10536732  1  0  -0.099287  -0.098298  0  4.001086  0
C  C42  1  0.14435671  0.74770591  0.78836678  1  0  -0.097855  -0.017878  0  4.086405  0
C  C43  1  0.64406921  0.54065361  0.78819886  1  0  -0.097275  -0.015535  0  4.083377  0
C  C44  1  0.85565166  0.25228409  0.21163623  1  0  -0.097926  -0.017909  0  4.086301  0
C  C45  1  0.35592938  0.45935193  0.21179951  1  0  -0.097312  -0.015681  0  4.083297  0
