# generated using pymatgen
data_ZnH18C18N4O4F
_symmetry_space_group_name_H-M   'P 1'
_cell_length_a   11.13090797
_cell_length_b   14.04764319
_cell_length_c   15.35034743
_cell_angle_alpha   90.90986030
_cell_angle_beta   91.71550803
_cell_angle_gamma   89.78465575
_symmetry_Int_Tables_number   1
_chemical_formula_structural   ZnH18C18N4O4F
_chemical_formula_sum   'Zn2 H36 C36 N8 O8 F2'
_cell_volume   2398.83549924
_cell_formula_units_Z   2
loop_
 _symmetry_equiv_pos_site_id
 _symmetry_equiv_pos_as_xyz
  1  'x, y, z'
loop_
 _atom_site_type_symbol
 _atom_site_label
 _atom_site_symmetry_multiplicity
 _atom_site_fract_x
 _atom_site_fract_y
 _atom_site_fract_z
 _atom_site_occupancy
 _atom_site_pbe_bader_charge
 _atom_site_pbe_bader_spin_density
 _atom_site_pbe_cm5_charge
 _atom_site_pbe_ddec_charge
 _atom_site_pbe_ddec_spin_density
 _atom_site_pbe_ddec_sum_bond_order
 _atom_site_pbe_magmom
Zn  Zn0  1  0.50919214  0.39949767  0.49949315  1  1.296785  0  0.669479  0.817429  0  2.413495  0
Zn  Zn1  1  0.51239304  0.60612297  0.50899102  1  1.29724  0  0.676836  0.856103  0  2.331876  0
H  H2  1  0.11799921  0.64197283  0.51747657  1  0.080355  0  0.104353  0.101496  0  0.996562  0
H  H3  1  0.89588953  0.64176165  0.48056165  1  0.079442  0  0.102037  0.099172  0  0.994768  0
H  H4  1  0.37275236  0.24336179  0.57624899  1  0.123105  0  0.130713  0.105694  0  0.969262  0
H  H5  1  0.65303590  0.25205330  0.40630277  1  0.137298  0  0.130993  0.103608  0  0.9658  0
H  H6  1  0.10158734  0.43044738  0.46293406  1  0.072412  0  0.104634  0.121044  0  0.996965  0
H  H7  1  0.91497977  0.43078844  0.52992075  1  0.076511  0  0.10499  0.121916  0  0.992855  0
H  H8  1  0.60322957  0.38202110  0.95710549  1  0.050147  0  0.101092  0.107893  0  1.005926  0
H  H9  1  0.38665172  0.38508959  0.05443945  1  0.055645  0  0.101296  0.10833  0  1.006201  0
H  H10  1  0.39517669  0.61554981  0.76774529  1  0.111594  0  0.113549  0.138975  0  0.98452  0
H  H11  1  0.59363578  0.63583269  0.23105536  1  0.118951  0  0.113737  0.141011  0  0.979235  0
H  H12  1  0.37412726  0.06413384  0.57553861  1  0.090518  0  0.116469  0.128221  0  0.974922  0
H  H13  1  0.66160511  0.07374756  0.39331305  1  0.093194  0  0.114205  0.121172  0  0.988518  0
H  H14  1  0.69702208  0.32725804  0.83642660  1  0.390424  0  0.293475  0.231681  0  0.954133  0
H  H15  1  0.52528993  0.22108764  0.81582730  1  0.010102  0  0.074866  0.064775  0  1.014387  0
H  H16  1  0.63268604  0.20830678  0.73157577  1  0.036384  0  0.094041  0.102793  0  0.987509  0
H  H17  1  0.50015220  0.27700939  0.71264629  1  0.070915  0  0.095731  0.112791  0  1.048577  0
H  H18  1  0.29383388  0.34362907  0.18088671  1  0.381807  0  0.2926  0.231166  0  0.955858  0
H  H19  1  0.46479117  0.23490903  0.19058719  1  0.005665  0  0.073972  0.06364  0  1.016384  0
H  H20  1  0.36845468  0.22701435  0.28184556  1  0.026019  0  0.090013  0.096659  0  0.991763  0
H  H21  1  0.50347334  0.29423372  0.29173007  1  0.095454  0  0.09532  0.110365  0  1.055911  0
H  H22  1  0.73588544  0.90412407  0.62645270  1  0.417243  0  0.296584  0.230137  0  0.992369  0
H  H23  1  0.80453750  0.05903247  0.52432119  1  0.010274  0  0.091378  0.096475  0  1.003515  0
H  H24  1  0.79939121  0.95326610  0.45809967  1  0.04666  0  0.093824  0.093495  0  1.000695  0
H  H25  1  0.88978756  0.95724685  0.55515958  1  0.041124  0  0.099449  0.103045  0  0.986189  0
H  H26  1  0.35084448  0.01964803  0.39434568  1  0.421621  0  0.29767  0.233079  0  0.984823  0
H  H27  1  0.16323283  0.01291425  0.43712278  1  0.04424  0  0.099094  0.101292  0  0.990179  0
H  H28  1  0.19479677  0.90253000  0.48884658  1  0.070583  0  0.09821  0.102206  0  1.006754  0
H  H29  1  0.14740109  0.90352077  0.37730425  1  0.018997  0  0.096783  0.10322  0  0.996796  0
H  H30  1  0.75008117  0.75158874  0.59034303  1  0.420304  0  0.302185  0.243509  0  0.950791  0
H  H31  1  0.69306104  0.69255235  0.72819556  1  0.074951  0  0.107361  0.12416  0  0.969007  0
H  H32  1  0.54318534  0.72571645  0.70456000  1  0.083075  0  0.102523  0.118956  0  1.003317  0
H  H33  1  0.65219650  0.81647279  0.72884482  1  -0.01954  0  0.078075  0.065473  0  1.017643  0
H  H34  1  0.31091451  0.68119072  0.44782457  1  0.49457  0  0.295033  0.254334  0  1.026268  0
H  H35  1  0.29269763  0.82282300  0.30449351  1  0.030111  0  0.097713  0.101499  0  1.03557  0
H  H36  1  0.19625342  0.72276048  0.31624398  1  0.038279  0  0.098817  0.104055  0  0.98378  0
H  H37  1  0.35103333  0.70453408  0.29282232  1  0.078319  0  0.094278  0.108293  0  1.010423  0
C  C38  1  0.50453984  0.48453521  0.67254979  1  1.565919  0  0.220474  0.611107  0  4.15444  0
C  C39  1  0.50046475  0.50519571  0.33306657  1  1.640004  0  0.217565  0.608307  0  4.159882  0
C  C40  1  0.49609341  0.50898221  0.95428972  1  0.022725  0  -0.018771  -0.006384  0  4.051826  0
C  C41  1  0.48990897  0.51329155  0.05043766  1  0.056348  0  -0.019134  -0.009943  0  4.052655  0
C  C42  1  0.60703256  0.89766101  0.53373240  1  0.415251  0  0.073018  0.038878  0  4.094155  0
C  C43  1  0.41820989  0.90053955  0.44770631  1  0.425009  0  0.08936  0.055457  0  4.047517  0
C  C44  1  0.58675213  0.80060831  0.54765145  1  0.909745  0  0.192363  0.248287  0  4.076389  0
C  C45  1  0.40965227  0.79978543  0.45818545  1  1.017078  0  0.219182  0.292364  0  4.028007  0
C  C46  1  0.51863163  0.94803414  0.48455072  1  0.042484  0  -0.016217  -0.095183  0  4.006892  0
C  C47  1  0.43661669  0.10328846  0.53630467  1  0.02268  0  -0.077037  -0.183592  0  3.943649  0
C  C48  1  0.59740858  0.10808609  0.43584409  1  0.006753  0  -0.078505  -0.179614  0  3.941654  0
C  C49  1  0.43563902  0.20209246  0.53754138  1  0.41717  0  0.061098  0.102903  0  3.932936  0
C  C50  1  0.59237583  0.20699502  0.44182280  1  0.442441  0  0.06373  0.106094  0  3.931049  0
C  C51  1  0.51935344  0.05385520  0.48478064  1  -0.087558  0  0.020251  0.142395  0  3.983798  0
C  C52  1  0.74106375  0.49910048  0.50440230  1  1.600677  0  0.203113  0.627219  0  4.193169  0
C  C53  1  0.27426819  0.49738717  0.49494036  1  1.538831  0  0.206946  0.63007  0  4.183158  0
C  C54  1  0.07271833  0.57498555  0.50033862  1  -0.045003  0  -0.078652  -0.032698  0  4.00491  0
C  C55  1  0.94238423  0.57498669  0.49553322  1  -0.082931  0  -0.08052  -0.039399  0  4.01345  0
C  C56  1  0.14167218  0.49780142  0.48460301  1  0.006802  0  -0.093373  -0.227273  0  3.895472  0
C  C57  1  0.87416054  0.49815803  0.51036955  1  -0.078696  0  -0.090611  -0.217669  0  3.884379  0
C  C58  1  0.55699850  0.43309282  0.91479144  1  -0.067156  0  -0.099624  -0.228013  0  3.982667  0
C  C59  1  0.43249854  0.44007665  0.09388271  1  -0.051368  0  -0.098758  -0.225559  0  3.986789  0
C  C60  1  0.56172258  0.41975096  0.82419009  1  0.432484  0  0.086351  0.195738  0  4.029258  0
C  C61  1  0.43154807  0.43402611  0.18488770  1  0.396327  0  0.084184  0.193921  0  4.024079  0
C  C62  1  0.50140645  0.48676181  0.77038410  1  0.021433  0  -0.011363  -0.077338  0  3.912119  0
C  C63  1  0.49318647  0.50492872  0.23506013  1  -0.051835  0  -0.010596  -0.075419  0  3.916574  0
C  C64  1  0.44057759  0.56336868  0.80894080  1  0.047638  0  -0.098528  -0.222482  0  4.020943  0
C  C65  1  0.54836857  0.58001513  0.19268743  1  0.043614  0  -0.098024  -0.222438  0  4.016862  0
C  C66  1  0.43848136  0.57357902  0.89879885  1  0.398419  0  0.087107  0.227398  0  4.077541  0
C  C67  1  0.54605924  0.58341606  0.10241584  1  0.361035  0  0.088465  0.230156  0  4.073243  0
C  C68  1  0.56875595  0.25765764  0.76172739  1  0.259296  0  -0.154629  -0.220242  0  3.996975  0
C  C69  1  0.42889851  0.27422136  0.24734631  1  0.23303  0  -0.156127  -0.219118  0  4.006119  0
C  C70  1  0.80369829  0.98079282  0.52569899  1  0.270471  0  -0.144471  -0.212357  0  3.98347  0
C  C71  1  0.20173916  0.94142005  0.42775489  1  0.258195  0  -0.140677  -0.219523  0  3.978409  0
C  C72  1  0.63672497  0.74657807  0.69603302  1  0.267857  0  -0.144693  -0.207762  0  3.975231  0
C  C73  1  0.28764500  0.74992794  0.32851221  1  0.27499  0  -0.143284  -0.210107  0  3.941423  0
N  N74  1  0.49266412  0.75402893  0.50850994  1  -1.257689  0  -0.32865  -0.364035  0  3.481581  0
N  N75  1  0.51286015  0.25297901  0.49139086  1  -1.238916  0  -0.317838  -0.195542  0  3.519288  0
N  N76  1  0.63272375  0.34438667  0.79057764  1  -1.101859  0  -0.47058  -0.332297  0  3.445221  0
N  N77  1  0.36310584  0.36104983  0.22304234  1  -1.064822  0  -0.471538  -0.333982  0  3.439358  0
N  N78  1  0.70410207  0.94473809  0.57664950  1  -1.143547  0  -0.472566  -0.324675  0  3.517196  0
N  N79  1  0.32760372  0.95080421  0.40317416  1  -1.144419  0  -0.456955  -0.295119  0  3.549449  0
N  N80  1  0.66128924  0.74512511  0.60276882  1  -1.154242  0  -0.46907  -0.353983  0  3.548048  0
N  N81  1  0.31510238  0.74833714  0.42235605  1  -1.191203  0  -0.452502  -0.330389  0  3.520716  0
O  O82  1  0.48517809  0.40597887  0.63255289  1  -1.158792  0  -0.307532  -0.53428  0  2.340409  0
O  O83  1  0.52752844  0.42671624  0.36919705  1  -1.167289  0  -0.311011  -0.542026  0  2.354693  0
O  O84  1  0.52518035  0.56386281  0.63720630  1  -1.164969  0  -0.306845  -0.546025  0  2.367294  0
O  O85  1  0.48152660  0.58406136  0.37198136  1  -1.168457  0  -0.309353  -0.544895  0  2.303051  0
O  O86  1  0.69024334  0.41974548  0.51913628  1  -1.159205  0  -0.325675  -0.554864  0  2.28292  0
O  O87  1  0.32583754  0.41741461  0.48276129  1  -1.153878  0  -0.318716  -0.54323  0  2.283505  0
O  O88  1  0.68832717  0.57717939  0.48595306  1  -1.166643  0  -0.321093  -0.558323  0  2.349207  0
O  O89  1  0.32716422  0.57570371  0.51563603  1  -1.185402  0  -0.320027  -0.568626  0  2.346171  0
F  F90  1  0.37603833  0.64825638  0.93378822  1  -0.64012  0  -0.121741  -0.162496  0  1.309958  0
F  F91  1  0.60396141  0.65628942  0.06335976  1  -0.639486  0  -0.121302  -0.162556  0  1.310222  0
