# generated using pymatgen
data_CuH23C25(N2O3)2
_symmetry_space_group_name_H-M   'P 1'
_cell_length_a   9.76479416
_cell_length_b   14.19672417
_cell_length_c   20.05768357
_cell_angle_alpha   89.99987421
_cell_angle_beta   89.99988302
_cell_angle_gamma   97.11917870
_symmetry_Int_Tables_number   1
_chemical_formula_structural   CuH23C25(N2O3)2
_chemical_formula_sum   'Cu4 H92 C100 N16 O24'
_cell_volume   2759.12165946
_cell_formula_units_Z   4
loop_
 _symmetry_equiv_pos_site_id
 _symmetry_equiv_pos_as_xyz
  1  'x, y, z'
loop_
 _atom_site_type_symbol
 _atom_site_label
 _atom_site_symmetry_multiplicity
 _atom_site_fract_x
 _atom_site_fract_y
 _atom_site_fract_z
 _atom_site_occupancy
 _atom_site_pbe_bader_charge
 _atom_site_pbe_bader_spin_density
 _atom_site_pbe_cm5_charge
 _atom_site_pbe_ddec_charge
 _atom_site_pbe_ddec_spin_density
 _atom_site_pbe_ddec_sum_bond_order
 _atom_site_pbe_magmom
Cu  Cu0  1  0.69335906  0.19149247  0.73335787  1  1.093568  0.272672  0.820968  0.831359  0.36514  2.348376  0.271
Cu  Cu1  1  0.80665731  0.80852095  0.23336291  1  1.093499  0.27269  0.821049  0.831389  0.365173  2.348455  0.271
Cu  Cu2  1  0.30666176  0.80851914  0.26663469  1  1.093541  0.272662  0.821098  0.831413  0.365134  2.348659  0.271
Cu  Cu3  1  0.19335234  0.19149127  0.76664711  1  1.093603  0.272622  0.82101  0.831439  0.365074  2.348198  0.271
H  H4  1  0.48835229  0.00720474  0.82508655  1  0.093084  0.000232  0.102105  0.108899  0.000207  1.038075  0.0
H  H5  1  0.60817678  0.88564188  0.88442517  1  0.036207  1e-06  0.106179  0.118865  -2.5e-05  1.017094  0.0
H  H6  1  0.21506185  0.72952592  0.93255068  1  0.070901  0.000154  0.100171  0.108568  0.000207  1.057357  0.0
H  H7  1  0.09666059  0.85116907  0.87416305  1  0.08901  -9.9e-05  0.105193  0.10666  -0.000196  1.000954  0.0
H  H8  1  0.55949513  0.20458743  0.87650307  1  0.110912  0.000409  0.123446  0.122549  0.000221  1.013251  0.0
H  H9  1  0.64060254  0.09048340  0.97938639  1  0.131102  0.000674  0.122171  0.123999  0.000387  1.026966  0.0
H  H10  1  0.87157989  0.04824539  0.80570922  1  0.221361  0.000165  0.143133  0.130468  8e-06  1.02384  0.0
H  H11  1  0.77615920  0.93625181  0.96829614  1  0.080654  -3.1e-05  0.112105  0.092312  -0.000262  0.976306  0.0
H  H12  1  0.89294741  0.93831519  0.89993176  1  0.093444  -0.000115  0.118561  0.103246  -0.000316  0.977365  0.0
H  H13  1  0.91949217  0.08451527  0.01311316  1  0.04072  -0.000136  0.089292  0.08286  -0.000176  1.014264  0.0
H  H14  1  0.03754817  0.07732924  0.94690438  1  0.051448  0.0001  0.091906  0.09494  0.000452  1.003997  0.0
H  H15  1  0.49055203  0.31228214  0.66782638  1  0.222909  -0.000259  0.135786  0.129779  -0.000153  1.050124  0.0
H  H16  1  0.82372794  0.18521484  0.58506302  1  0.077703  0.001892  0.113528  0.118894  0.000874  1.013811  0.001
H  H17  1  0.64466088  0.46748198  0.49492985  1  0.043955  -0.000898  0.093539  0.093924  -0.001079  1.00366  0.0
H  H18  1  0.57134376  0.50680134  0.56857445  1  0.027026  -4e-05  0.095422  0.092758  0.000217  0.978492  0.0
H  H19  1  0.38471777  0.37163314  0.56526021  1  0.081404  0.000131  0.111844  0.093839  0.000384  0.99417  0.0
H  H20  1  0.44406791  0.33607985  0.48600778  1  0.028709  -0.000562  0.106775  0.085842  -0.001078  0.99083  0.0
H  H21  1  0.77587390  0.50421575  0.87924133  1  0.047947  -8.4e-05  0.103303  0.106906  1.6e-05  1.003391  0.0
H  H22  1  0.64753202  0.61299120  0.94478228  1  0.105296  -0.002243  0.096577  0.103623  -0.005532  1.068393  0.0
H  H23  1  0.26360502  0.46544315  0.87076357  1  0.063861  -1.1e-05  0.10567  0.119554  0.000153  1.008004  0.0
H  H24  1  0.39529187  0.35896048  0.80429380  1  0.116938  0.000161  0.099518  0.100732  0.000159  1.058597  0.0
H  H25  1  0.34314355  0.69457883  0.01933103  1  0.081352  1.5e-05  0.112332  0.049022  0.00011  1.014797  0.0
H  H26  1  0.50623539  0.64645714  0.02162388  1  0.102411  -5.6e-05  0.115552  0.063266  -1.5e-05  1.0138  0.0
H  H27  1  0.01163623  0.99281375  0.32505421  1  0.09262  0.000232  0.102039  0.108725  0.000207  1.038356  0.0
H  H28  1  0.89180752  0.11436719  0.38439879  1  0.036008  1e-06  0.106156  0.118885  -2.5e-05  1.017073  0.0
H  H29  1  0.28491304  0.27048073  0.43254012  1  0.07115  0.000154  0.10015  0.108525  0.000208  1.057599  0.0
H  H30  1  0.40332176  0.14883785  0.37415156  1  0.089266  -9.9e-05  0.105137  0.10648  -0.000196  1.001023  0.0
H  H31  1  0.94053253  0.79543623  0.37649653  1  0.110678  0.000409  0.123499  0.122626  0.000221  1.013008  0.0
H  H32  1  0.85939246  0.90951835  0.47938772  1  0.131033  0.000674  0.122187  0.124031  0.000387  1.026688  0.0
H  H33  1  0.62838653  0.95174608  0.30571820  1  0.221336  0.000165  0.14315  0.130457  8e-06  1.023917  0.0
H  H34  1  0.72381852  0.06373777  0.46830641  1  0.080829  -3.1e-05  0.112064  0.092258  -0.000261  0.976239  0.0
H  H35  1  0.60703645  0.06167894  0.39993915  1  0.093279  -0.000115  0.118528  0.103205  -0.000317  0.977352  0.0
H  H36  1  0.58048295  0.91546523  0.51311059  1  0.040748  -0.000136  0.089428  0.083029  -0.000176  1.01425  0.0
H  H37  1  0.46243541  0.92266184  0.44690161  1  0.05128  0.0001  0.091862  0.094911  0.000452  1.00388  0.0
H  H38  1  0.00946573  0.68772297  0.16783090  1  0.223072  -0.000259  0.13581  0.12977  -0.000153  1.049953  0.0
H  H39  1  0.67627135  0.81478406  0.08506219  1  0.077764  0.001892  0.113519  0.118926  0.000874  1.013665  0.001
H  H40  1  0.85533905  0.53251267  0.99493658  1  0.043896  -0.000899  0.09355  0.093966  -0.00108  1.003707  0.0
H  H41  1  0.92862789  0.49317824  0.06858185  1  0.027455  -4e-05  0.095449  0.092975  0.000217  0.97839  0.0
H  H42  1  0.11524869  0.62833077  0.06530211  1  0.081164  0.000131  0.111961  0.093953  0.000384  0.993968  0.0
H  H43  1  0.05598827  0.66389260  0.98603605  1  0.029545  -0.000559  0.106857  0.085845  -0.001075  0.990833  0.0
H  H44  1  0.72415124  0.49580504  0.37922550  1  0.047966  -8.4e-05  0.103335  0.106895  1.7e-05  1.003455  0.0
H  H45  1  0.85246246  0.38701279  0.44476150  1  0.105772  -0.002241  0.096568  0.103569  -0.00553  1.068494  0.0
H  H46  1  0.23641730  0.53452586  0.37075065  1  0.063752  -1.1e-05  0.10573  0.119646  0.000153  1.008098  0.0
H  H47  1  0.10475210  0.64102029  0.30427486  1  0.11697  0.000161  0.099469  0.100598  0.000159  1.058591  0.0
H  H48  1  0.15683536  0.30541015  0.51932286  1  0.081641  1.5e-05  0.112303  0.048945  0.00011  1.014956  0.0
H  H49  1  0.99375269  0.35354046  0.52161629  1  0.102725  -5.5e-05  0.115552  0.063255  -1.5e-05  1.013795  0.0
H  H50  1  0.51163674  0.99281935  0.17494590  1  0.09275  0.000232  0.101992  0.108709  0.000207  1.038364  0.0
H  H51  1  0.39180792  0.11437437  0.11559981  1  0.036214  1e-06  0.106133  0.118847  -2.5e-05  1.017088  0.0
H  H52  1  0.78491692  0.27048532  0.06745734  1  0.070982  0.000154  0.100187  0.108505  0.000207  1.057456  0.0
H  H53  1  0.90332342  0.14884292  0.12584497  1  0.089198  -9.9e-05  0.105146  0.106481  -0.000196  1.000976  0.0
H  H54  1  0.44053527  0.79543915  0.12349996  1  0.111209  0.000409  0.123511  0.122602  0.000221  1.013007  0.0
H  H55  1  0.35939024  0.90951945  0.02061067  1  0.131001  0.000674  0.122179  0.124022  0.000387  1.026747  0.0
H  H56  1  0.12839110  0.95174948  0.19428185  1  0.221329  0.000165  0.143133  0.130456  8e-06  1.023839  0.0
H  H57  1  0.22381419  0.06373882  0.03169193  1  0.08085  -3.1e-05  0.112096  0.092308  -0.000261  0.976131  0.0
H  H58  1  0.10703247  0.06167763  0.10006081  1  0.093261  -0.000115  0.118538  0.103213  -0.000317  0.977336  0.0
H  H59  1  0.08048109  0.91546189  0.98689137  1  0.04072  -0.000136  0.089446  0.083049  -0.000176  1.014327  0.0
H  H60  1  0.96243718  0.92265938  0.05310115  1  0.051176  0.0001  0.091885  0.094957  0.000452  1.003998  0.0
H  H61  1  0.50946854  0.68771529  0.33216618  1  0.223195  -0.000259  0.135772  0.129734  -0.000153  1.050018  0.0
H  H62  1  0.17628067  0.81478461  0.41493553  1  0.077973  0.001892  0.113486  0.118977  0.000873  1.013512  0.001
H  H63  1  0.35534818  0.53251393  0.50506820  1  0.044061  -0.000899  0.093588  0.093976  -0.00108  1.003732  0.0
H  H64  1  0.42862994  0.49317229  0.43142310  1  0.027187  -4e-05  0.095414  0.092963  0.000217  0.978396  0.0
H  H65  1  0.61525398  0.62832204  0.43469447  1  0.080995  0.000131  0.111902  0.093844  0.000384  0.994037  0.0
H  H66  1  0.55600288  0.66389251  0.51395886  1  0.02942  -0.000558  0.106887  0.085946  -0.001075  0.990616  0.0
H  H67  1  0.22414487  0.49579584  0.12077467  1  0.047907  -8.4e-05  0.103363  0.106882  1.6e-05  1.003455  0.0
H  H68  1  0.35246622  0.38700745  0.05524120  1  0.112398  -0.002234  0.096567  0.103572  -0.005529  1.068584  0.0
H  H69  1  0.73641438  0.53452805  0.12925043  1  0.063783  -1.1e-05  0.105636  0.119478  0.000153  1.008103  0.0
H  H70  1  0.60474122  0.64101934  0.19572569  1  0.116763  0.000161  0.099489  0.100602  0.00016  1.058626  0.0
H  H71  1  0.65684055  0.30541473  0.98067350  1  0.081542  1.5e-05  0.112312  0.048964  0.00011  1.01486  0.0
H  H72  1  0.49375829  0.35354502  0.97838115  1  0.102744  -5.6e-05  0.115547  0.063242  -1.5e-05  1.013784  0.0
H  H73  1  0.98835645  0.00720754  0.67491044  1  0.093034  0.000232  0.102113  0.108888  0.000207  1.038177  0.0
H  H74  1  0.10817877  0.88564624  0.61557084  1  0.036329  1e-06  0.106169  0.118803  -2.5e-05  1.017188  0.0
H  H75  1  0.71506618  0.72952697  0.56745144  1  0.070994  0.000154  0.100185  0.108578  0.000207  1.057421  0.0
H  H76  1  0.59666270  0.85117060  0.62583801  1  0.089089  -9.9e-05  0.105176  0.106584  -0.000196  1.000993  0.0
H  H77  1  0.05949469  0.20458961  0.62350102  1  0.110905  0.000409  0.123453  0.12257  0.000221  1.013252  0.0
H  H78  1  0.14061353  0.09049030  0.52061681  1  0.131209  0.000673  0.122186  0.124012  0.000387  1.026876  0.0
H  H79  1  0.37158618  0.04825306  0.69429381  1  0.221383  0.000165  0.143119  0.130439  8e-06  1.023849  0.0
H  H80  1  0.27616171  0.93625718  0.53170709  1  0.080693  -3.1e-05  0.112113  0.092319  -0.000262  0.976271  0.0
H  H81  1  0.39295164  0.93832033  0.60007036  1  0.093244  -0.000115  0.118556  0.103269  -0.000316  0.977307  0.0
H  H82  1  0.41949921  0.08452264  0.48688945  1  0.040695  -0.000136  0.08929  0.082888  -0.000176  1.014107  0.0
H  H83  1  0.53755485  0.07733177  0.55309744  1  0.051437  0.0001  0.091915  0.094977  0.000452  1.003937  0.0
H  H84  1  0.99054984  0.31228151  0.83217861  1  0.223263  -0.000259  0.1358  0.129806  -0.000153  1.050098  0.0
H  H85  1  0.32372940  0.18521745  0.91494034  1  0.077737  0.001892  0.113521  0.118917  0.000873  1.013715  0.001
H  H86  1  0.14465702  0.46748526  0.00507293  1  0.044369  -0.000898  0.093517  0.093921  -0.001079  1.003731  0.0
H  H87  1  0.07133773  0.50680240  0.93142866  1  0.027186  -4e-05  0.095401  0.092788  0.000217  0.978471  0.0
H  H88  1  0.88472090  0.37163644  0.93473931  1  0.081399  0.000131  0.111848  0.093867  0.000384  0.994183  0.0
H  H89  1  0.94405849  0.33608309  0.01399391  1  0.028697  -0.000562  0.106802  0.085891  -0.001077  0.990713  0.0
H  H90  1  0.27587026  0.50420445  0.62075660  1  0.047992  -8.4e-05  0.103325  0.106946  1.6e-05  1.003303  0.0
H  H91  1  0.14753497  0.61298090  0.55521511  1  0.105453  -0.002243  0.096588  0.103614  -0.005533  1.068432  0.0
H  H92  1  0.76360290  0.46544392  0.62923294  1  0.063813  -1.1e-05  0.105656  0.119547  0.000153  1.008021  0.0
H  H93  1  0.89528008  0.35896023  0.69570524  1  0.116853  0.000161  0.099463  0.100623  0.000159  1.058685  0.0
H  H94  1  0.84315114  0.69458556  0.48067120  1  0.081816  1.5e-05  0.112304  0.048997  0.00011  1.01482  0.0
H  H95  1  0.00623962  0.64645955  0.47837627  1  0.10275  -5.6e-05  0.115593  0.063383  -1.5e-05  1.013703  0.0
C  C96  1  0.20996626  0.01636287  0.81973612  1  1.520412  -0.00057  0.198357  0.552088  -0.000555  4.218575  -0.002
C  C97  1  0.28422424  0.94000595  0.84918991  1  -0.050199  0.005153  -0.032941  -0.063148  0.003756  3.983424  0.004
C  C98  1  0.42901563  0.94774663  0.85024628  1  0.080929  6.3e-05  -0.085365  -0.06526  3.7e-05  3.980317  0.0
C  C99  1  0.49608494  0.88050300  0.88301380  1  -0.029632  6.9e-05  -0.106309  -0.204658  3.3e-05  3.987511  0.0
C  C100  1  0.41961270  0.80438721  0.91591201  1  0.384294  -0.000194  0.083557  0.266992  -0.000207  4.052871  0.0
C  C101  1  0.27517537  0.79171725  0.91107006  1  -0.00945  0.00056  -0.113593  -0.233709  0.000429  4.021185  0.0
C  C102  1  0.20894954  0.85970548  0.87794258  1  -0.053872  0.000545  -0.083088  -0.065411  0.000256  3.993916  0.0
C  C103  1  0.63704353  0.15639246  0.87774848  1  0.431276  0.000778  -0.000329  -0.032758  0.000698  3.994055  0.001
C  C104  1  0.67532801  0.10001389  0.92828774  1  0.284419  0.00208  0.003252  -0.104235  0.001476  3.917159  0.001
C  C105  1  0.79500988  0.07488417  0.83742426  1  0.976158  -0.000661  0.15232  0.103919  -0.000604  3.855299  0.0
C  C106  1  0.84957297  0.98243472  0.93749192  1  0.274305  0.000392  -0.047743  -0.065526  -9.2e-05  3.895223  0.0
C  C107  1  0.96374397  0.03472582  0.97971731  1  -0.032037  -6.8e-05  -0.165298  -0.160416  -0.000151  3.938552  0.0
C  C108  1  0.56491906  0.29138769  0.63216870  1  0.921727  -0.006132  0.133936  0.081468  -0.00863  3.860325  -0.008
C  C109  1  0.73768576  0.22638419  0.58638222  1  0.326274  -0.003406  -0.027885  -0.073698  0.004143  4.104169  -0.009
C  C110  1  0.67600132  0.27277703  0.53663919  1  0.263856  -0.434238  -0.032123  -0.204488  -0.469743  3.318486  -0.244
C  C111  1  0.54585111  0.47126457  0.52054452  1  -0.019195  -0.000726  -0.162526  -0.167388  -0.000908  3.94253  0.0
C  C112  1  0.47611688  0.37075897  0.53340155  1  0.314605  -1.2e-05  -0.051142  -0.05577  -0.001497  3.884362  0.0
C  C113  1  0.67449763  0.35549195  0.80333044  1  1.539397  -0.000397  0.199257  0.548899  -0.000446  4.216472  -0.002
C  C114  1  0.59405337  0.42254465  0.83952803  1  -0.019898  0.003883  -0.035064  -0.072658  0.002829  4.003863  0.003
C  C115  1  0.66330582  0.49534656  0.87859326  1  -0.025802  0.000519  -0.084622  -0.068399  0.000444  3.987434  0.0
C  C116  1  0.59096052  0.55623584  0.91545045  1  -0.041743  -0.002105  -0.111752  -0.219385  -0.002329  3.991704  -0.002
C  C117  1  0.44617737  0.54361879  0.91305693  1  0.436564  -0.000389  0.085601  0.270926  -0.000228  4.025129  0.0
C  C118  1  0.37587403  0.47280493  0.87286794  1  -0.028479  -0.000126  -0.103338  -0.195222  8.2e-05  3.974859  0.0
C  C119  1  0.44943007  0.41293002  0.83642206  1  -0.01655  0.000176  -0.085982  -0.061423  0.000311  3.976918  0.0
C  C120  1  0.42695048  0.67115865  0.98941462  1  0.901697  -6.6e-05  0.026527  0.169592  -6.6e-05  3.93942  0.0
C  C121  1  0.29002102  0.98364144  0.31972096  1  1.520319  -0.000571  0.198339  0.552011  -0.000555  4.218385  -0.002
C  C122  1  0.21575822  0.05999467  0.34917227  1  -0.059133  0.005154  -0.032834  -0.063133  0.003756  3.983374  0.004
C  C123  1  0.07096410  0.05226247  0.35022382  1  0.081132  6.3e-05  -0.085378  -0.064983  3.7e-05  3.980739  0.0
C  C124  1  0.00389429  0.11950385  0.38299428  1  -0.02942  6.9e-05  -0.106333  -0.204801  3.3e-05  3.987637  0.0
C  C125  1  0.08036351  0.19561454  0.41589928  1  0.383743  -0.000194  0.083652  0.267136  -0.000206  4.052828  0.0
C  C126  1  0.22479187  0.20829224  0.41106065  1  -0.010175  0.000561  -0.113595  -0.233735  0.000429  4.021269  0.0
C  C127  1  0.29102105  0.14029848  0.37793023  1  -0.043846  0.000544  -0.083092  -0.065301  0.000257  3.992998  0.0
C  C128  1  0.86296156  0.84363099  0.37774792  1  0.430072  0.000779  -0.000443  -0.032977  0.000698  3.994472  0.001
C  C129  1  0.82467578  0.89999024  0.42827865  1  0.286151  0.002078  0.003269  -0.104234  0.001475  3.917706  0.001
C  C130  1  0.70497406  0.92511513  0.33742473  1  0.975926  -0.000661  0.15228  0.103941  -0.000604  3.854894  0.0
C  C131  1  0.65040376  0.01755425  0.43750033  1  0.274194  0.000393  -0.047721  -0.065497  -9.2e-05  3.895297  0.0
C  C132  1  0.53623767  0.96525667  0.47971589  1  -0.003294  -6.9e-05  -0.165504  -0.160655  -0.000151  3.938898  0.0
C  C133  1  0.93508320  0.70861816  0.13217427  1  0.92145  -0.006137  0.133824  0.081472  -0.008633  3.860666  -0.008
C  C134  1  0.76231272  0.77360973  0.08639185  1  0.326842  -0.003419  -0.027833  -0.073753  0.004144  4.104196  -0.009
C  C135  1  0.82399078  0.72720780  0.03665281  1  0.263325  -0.434254  -0.032111  -0.204379  -0.469766  3.31848  -0.244
C  C136  1  0.95413412  0.52872167  0.02056031  1  0.009478  -0.000729  -0.162592  -0.167723  -0.00091  3.942723  0.0
C  C137  1  0.02388360  0.62921811  0.03342659  1  0.314007  -1.3e-05  -0.051295  -0.055813  -0.001495  3.884138  0.0
C  C138  1  0.82555021  0.64453427  0.30332424  1  1.539555  -0.000398  0.19955  0.549116  -0.000448  4.216338  -0.002
C  C139  1  0.90598425  0.57746363  0.33951687  1  -0.020205  0.003884  -0.035224  -0.072902  0.00283  4.00342  0.003
C  C140  1  0.83671589  0.50466569  0.37857980  1  -0.024491  0.000518  -0.084605  -0.068418  0.000444  3.987277  0.0
C  C141  1  0.90904664  0.44376340  0.41543202  1  -0.042552  -0.002103  -0.111765  -0.21924  -0.002327  3.99191  -0.002
C  C142  1  0.05383052  0.45636979  0.41303934  1  0.436148  -0.000389  0.08561  0.27071  -0.000228  4.025576  0.0
C  C143  1  0.12414874  0.52717329  0.37284567  1  -0.028672  -0.000126  -0.103466  -0.195421  8.2e-05  3.975619  0.0
C  C144  1  0.05060703  0.58705979  0.33640526  1  -0.016916  0.000175  -0.085843  -0.060937  0.00031  3.976773  0.0
C  C145  1  0.07302891  0.32883295  0.48940518  1  0.901491  -6.5e-05  0.026507  0.169727  -6.6e-05  3.939762  0.0
C  C146  1  0.79002037  0.98364631  0.18027589  1  1.52043  -0.000571  0.198351  0.552002  -0.000555  4.218799  -0.002
C  C147  1  0.71576192  0.06000039  0.15082459  1  -0.059608  0.005155  -0.032812  -0.063195  0.003757  3.983711  0.004
C  C148  1  0.57096963  0.05226679  0.14977520  1  0.080172  6.3e-05  -0.085415  -0.06502  3.7e-05  3.980889  0.0
C  C149  1  0.50389941  0.11951112  0.11700419  1  -0.028917  6.9e-05  -0.106278  -0.204755  3.3e-05  3.987557  0.0
C  C150  1  0.58036868  0.19562121  0.08409900  1  0.384234  -0.000194  0.083604  0.266966  -0.000207  4.052745  0.0
C  C151  1  0.72479907  0.20829891  0.08893796  1  -0.010265  0.000561  -0.11365  -0.2337  0.000429  4.02098  0.0
C  C152  1  0.79102478  0.14030359  0.12206743  1  -0.043349  0.000543  -0.083043  -0.065126  0.000257  3.99282  0.0
C  C153  1  0.36296089  0.84363176  0.12224957  1  0.429735  0.000779  -0.000487  -0.03299  0.000698  3.994527  0.001
C  C154  1  0.32467559  0.89999260  0.07172028  1  0.286097  0.002077  0.003303  -0.104189  0.001474  3.917706  0.001
C  C155  1  0.20497753  0.92511722  0.16257428  1  0.976146  -0.000662  0.15238  0.10399  -0.000604  3.854797  0.0
C  C156  1  0.15040201  0.01755309  0.06249915  1  0.274251  0.000392  -0.047782  -0.065563  -9.2e-05  3.895288  0.0
C  C157  1  0.03623749  0.96525142  0.02028522  1  -0.003355  -6.9e-05  -0.165538  -0.160722  -0.000151  3.939118  0.0
C  C158  1  0.43508944  0.70861105  0.36782087  1  0.921419  -0.006135  0.133929  0.081545  -0.008633  3.860454  -0.008
C  C159  1  0.26232056  0.77360744  0.41360386  1  0.326768  -0.003413  -0.027801  -0.073842  0.004143  4.104014  -0.009
C  C160  1  0.32399997  0.72720251  0.46334291  1  0.263304  -0.434203  -0.031966  -0.204186  -0.46971  3.3183  -0.244
C  C161  1  0.45413891  0.52872125  0.47944157  1  0.009638  -0.000729  -0.162627  -0.167757  -0.00091  3.942802  0.0
C  C162  1  0.52389112  0.62921142  0.46657157  1  0.314353  -1.4e-05  -0.051281  -0.055869  -0.001495  3.883977  0.0
C  C163  1  0.32554258  0.64453188  0.19667260  1  1.540085  -0.000398  0.199519  0.549027  -0.000448  4.216336  -0.002
C  C164  1  0.40597439  0.57745922  0.16048398  1  -0.020633  0.003884  -0.035194  -0.072802  0.002829  4.003508  0.003
C  C165  1  0.33671214  0.50466006  0.12142074  1  -0.024602  0.000518  -0.084675  -0.068465  0.000444  3.987335  0.0
C  C166  1  0.40904638  0.44375935  0.08456804  1  -0.049097  -0.002109  -0.111716  -0.219207  -0.002327  3.992024  -0.002
C  C167  1  0.55382951  0.45637001  0.08695956  1  0.436082  -0.000389  0.085582  0.270662  -0.000228  4.025619  0.0
C  C168  1  0.62414242  0.52717333  0.12715604  1  -0.028948  -0.000126  -0.103361  -0.195229  8.2e-05  3.975446  0.0
C  C169  1  0.55059813  0.58705755  0.16359643  1  -0.016144  0.000175  -0.085861  -0.06098  0.00031  3.97696  0.0
C  C170  1  0.57303385  0.32883633  0.01059241  1  0.901642  -6.5e-05  0.026588  0.169832  -6.6e-05  3.939465  0.0
C  C171  1  0.70997176  0.01636779  0.68026563  1  1.520059  -0.000572  0.198454  0.552233  -0.000556  4.218181  -0.002
C  C172  1  0.78423273  0.94000958  0.65081032  1  -0.049678  0.005154  -0.032981  -0.063269  0.003757  3.983345  0.004
C  C173  1  0.92902401  0.94774955  0.64975279  1  0.081034  6.3e-05  -0.085366  -0.065183  3.7e-05  3.980432  0.0
C  C174  1  0.99609143  0.88050603  0.61698532  1  -0.030038  6.9e-05  -0.106335  -0.204643  3.3e-05  3.987558  0.0
C  C175  1  0.91961924  0.80438964  0.58408980  1  0.384277  -0.000194  0.083641  0.267028  -0.000207  4.052748  0.0
C  C176  1  0.77518165  0.79171824  0.58893091  1  -0.009501  0.00056  -0.113618  -0.233697  0.000429  4.021012  0.0
C  C177  1  0.70895600  0.85970849  0.62205885  1  -0.054233  0.000546  -0.083054  -0.065302  0.000257  3.993497  0.0
C  C178  1  0.13704845  0.15639612  0.62225462  1  0.430767  0.000778  -0.000325  -0.03281  0.000698  3.994098  0.001
C  C179  1  0.17533557  0.10001987  0.57171690  1  0.285238  0.00208  0.003218  -0.104259  0.001475  3.917224  0.001
C  C180  1  0.29501598  0.07488982  0.66257980  1  0.976176  -0.000661  0.152375  0.103991  -0.000603  3.85519  0.0
C  C181  1  0.34957761  0.98244142  0.56251118  1  0.274375  0.000392  -0.047725  -0.065645  -9.2e-05  3.895086  0.0
C  C182  1  0.46374962  0.03473125  0.52028465  1  -0.032297  -6.8e-05  -0.165353  -0.160488  -0.000151  3.938408  0.0
C  C183  1  0.06491333  0.29138898  0.86783375  1  0.921481  -0.00613  0.133837  0.081408  -0.008627  3.860211  -0.008
C  C184  1  0.23768403  0.22638607  0.91362016  1  0.326286  -0.003404  -0.027954  -0.073823  0.004142  4.104216  -0.009
C  C185  1  0.17599935  0.27277873  0.96336468  1  0.263607  -0.434175  -0.032085  -0.204453  -0.469665  3.318435  -0.244
C  C186  1  0.04584598  0.47126618  0.97945818  1  -0.019701  -0.000726  -0.16258  -0.167529  -0.000909  3.942637  0.0
C  C187  1  0.97611143  0.37076067  0.96659988  1  0.31492  -1.2e-05  -0.051172  -0.055794  -0.001496  3.884342  0.0
C  C188  1  0.17448406  0.35548455  0.69667231  1  1.539562  -0.000396  0.19914  0.548577  -0.000446  4.216882  -0.002
C  C189  1  0.09404339  0.42253953  0.66047121  1  -0.019947  0.003883  -0.035087  -0.072558  0.002829  4.003761  0.003
C  C190  1  0.16330161  0.49533809  0.62140379  1  -0.026018  0.000518  -0.084628  -0.068555  0.000444  3.987424  0.0
C  C191  1  0.09095945  0.55622681  0.58454708  1  -0.041547  -0.002105  -0.111714  -0.219334  -0.002329  3.991766  -0.002
C  C192  1  0.94617659  0.54361406  0.58694126  1  0.436499  -0.000388  0.085597  0.27093  -0.000227  4.025167  0.0
C  C193  1  0.87587020  0.47280145  0.62713094  1  -0.028466  -0.000126  -0.103299  -0.195192  8.2e-05  3.975074  0.0
C  C194  1  0.94942105  0.41292707  0.66357633  1  -0.016659  0.000175  -0.085921  -0.061259  0.00031  3.977007  0.0
C  C195  1  0.92695656  0.67116275  0.51058589  1  0.901084  -6.6e-05  0.026507  0.169588  -6.6e-05  3.939483  0.0
N  N196  1  0.71220918  0.13956859  0.82155552  1  -1.199838  0.052678  -0.383361  -0.292132  0.036078  3.681695  0.046
N  N197  1  0.77401751  0.04903294  0.90175924  1  -1.246482  0.001653  -0.24042  0.051676  0.000978  3.78376  0.001
N  N198  1  0.66744575  0.23918895  0.64539804  1  -1.130446  -0.003273  -0.377755  -0.267523  -0.006035  3.660145  -0.001
N  N199  1  0.56771470  0.31204389  0.56662672  1  -1.246931  -0.021049  -0.244991  0.045228  -0.004274  3.842437  -0.006
N  N200  1  0.78779480  0.86044017  0.32155402  1  -1.199533  0.052674  -0.383416  -0.292029  0.036076  3.68118  0.046
N  N201  1  0.72597638  0.95096623  0.40176314  1  -1.246771  0.001653  -0.240341  0.051735  0.000978  3.783664  0.001
N  N202  1  0.83256556  0.76081622  0.14540611  1  -1.130252  -0.003273  -0.377809  -0.267523  -0.006035  3.660381  -0.001
N  N203  1  0.93228056  0.68794866  0.06663930  1  -1.246923  -0.021046  -0.244909  0.045115  -0.00428  3.842621  -0.006
N  N204  1  0.28779694  0.86044077  0.17844452  1  -1.199801  0.052671  -0.383425  -0.29201  0.036074  3.681104  0.046
N  N205  1  0.22597925  0.95096924  0.09823631  1  -1.246917  0.001653  -0.240404  0.051675  0.000978  3.783822  0.001
N  N206  1  0.33257334  0.76081201  0.35458854  1  -1.129935  -0.003274  -0.377858  -0.267629  -0.006035  3.660221  -0.001
N  N207  1  0.43228762  0.68794204  0.43335637  1  -1.247503  -0.021053  -0.245118  0.045021  -0.004284  3.842365  -0.006
N  N208  1  0.21221383  0.13957204  0.67844752  1  -1.199947  0.05267  -0.38341  -0.292145  0.036072  3.681456  0.046
N  N209  1  0.27402506  0.04903954  0.59824488  1  -1.246703  0.001653  -0.240406  0.051767  0.000978  3.783733  0.001
N  N210  1  0.16744112  0.23919030  0.85460340  1  -1.130395  -0.00327  -0.377745  -0.267505  -0.006034  3.659905  -0.001
N  N211  1  0.06770980  0.31204567  0.93337520  1  -1.247136  -0.021041  -0.244943  0.04521  -0.004275  3.842217  -0.006
O  O212  1  0.29104522  0.09392922  0.80394656  1  -1.074177  0.072295  -0.316928  -0.515917  0.047381  2.32173  0.065
O  O213  1  0.08200048  0.00598435  0.81280219  1  -1.154391  -0.000455  -0.321836  -0.562039  -0.000978  2.161777  0.0
O  O214  1  0.49654306  0.74779824  0.95226517  1  -1.079139  -0.001005  -0.182229  -0.22821  -0.001182  2.54508  -0.001
O  O215  1  0.80277533  0.36244769  0.80681183  1  -1.187616  -0.00115  -0.313554  -0.546118  -0.001672  2.189566  -0.001
O  O216  1  0.59728038  0.28879014  0.77021354  1  -1.063756  0.063297  -0.314123  -0.511512  0.040911  2.349624  0.057
O  O217  1  0.36297762  0.59765363  0.94824844  1  -1.087032  -0.000208  -0.183475  -0.236527  3.7e-05  2.567333  0.0
O  O218  1  0.20894965  0.90607096  0.30393708  1  -1.074187  0.072303  -0.316929  -0.515872  0.047387  2.321823  0.065
O  O219  1  0.41798821  0.99402213  0.31278539  1  -1.154333  -0.000455  -0.321865  -0.562076  -0.000978  2.161579  0.0
O  O220  1  0.00343389  0.25220269  0.45225242  1  -1.079457  -0.001005  -0.182209  -0.228223  -0.001184  2.545382  -0.001
O  O221  1  0.69728003  0.63759347  0.30680228  1  -1.1873  -0.00115  -0.313737  -0.546237  -0.001672  2.189551  -0.001
O  O222  1  0.90277914  0.71123771  0.27021415  1  -1.063917  0.063311  -0.314105  -0.511525  0.040922  2.349924  0.057
O  O223  1  0.13701951  0.40233261  0.44823732  1  -1.087098  -0.000208  -0.183447  -0.23648  3.7e-05  2.567494  0.0
O  O224  1  0.70894710  0.90607717  0.19606146  1  -1.074053  0.072315  -0.316928  -0.515866  0.047393  2.321906  0.065
O  O225  1  0.91798638  0.99402625  0.18721032  1  -1.154474  -0.000455  -0.321867  -0.562068  -0.000978  2.161714  0.0
O  O226  1  0.50343877  0.25220665  0.04774335  1  -1.079578  -0.001005  -0.182224  -0.228175  -0.001183  2.545168  -0.001
O  O227  1  0.19727617  0.63759538  0.19319170  1  -1.187502  -0.001151  -0.313704  -0.546225  -0.001672  2.189675  -0.001
O  O228  1  0.40277351  0.71123594  0.22978301  1  -1.063929  0.063307  -0.31414  -0.511443  0.040919  2.34973  0.057
O  O229  1  0.63702015  0.40233580  0.05176108  1  -1.087162  -0.000208  -0.183479  -0.236524  3.7e-05  2.567464  0.0
O  O230  1  0.79105520  0.09393059  0.69605848  1  -1.073953  0.072307  -0.316935  -0.515929  0.047388  2.321633  0.065
O  O231  1  0.58200412  0.00599065  0.68719571  1  -1.154199  -0.000455  -0.321888  -0.562139  -0.000978  2.161712  0.0
O  O232  1  0.99654703  0.74779652  0.54773765  1  -1.079262  -0.001004  -0.182297  -0.228293  -0.001182  2.545226  -0.001
O  O233  1  0.30275904  0.36243602  0.69319427  1  -1.187637  -0.00115  -0.313465  -0.545964  -0.001672  2.189787  -0.001
O  O234  1  0.09726368  0.28878331  0.72978988  1  -1.06367  0.06329  -0.314112  -0.511444  0.040908  2.349749  0.057
O  O235  1  0.86298282  0.59765332  0.55175026  1  -1.087081  -0.000208  -0.183493  -0.236591  3.7e-05  2.567291  0.0
