# generated using pymatgen
data_TlH6C6(NCl)3
_symmetry_space_group_name_H-M   'P 1'
_cell_length_a   7.71369798
_cell_length_b   11.65072907
_cell_length_c   11.75656207
_cell_angle_alpha   89.99996564
_cell_angle_beta   89.99996152
_cell_angle_gamma   92.82864935
_symmetry_Int_Tables_number   1
_chemical_formula_structural   TlH6C6(NCl)3
_chemical_formula_sum   'Tl4 H24 C24 N12 Cl12'
_cell_volume   1055.27731353
_cell_formula_units_Z   4
loop_
 _symmetry_equiv_pos_site_id
 _symmetry_equiv_pos_as_xyz
  1  'x, y, z'
loop_
 _atom_site_type_symbol
 _atom_site_label
 _atom_site_symmetry_multiplicity
 _atom_site_fract_x
 _atom_site_fract_y
 _atom_site_fract_z
 _atom_site_occupancy
 _atom_site_hle17_bader_spin_density
 _atom_site_hle17_ddec_charge
 _atom_site_hle17_ddec_spin_density
 _atom_site_hle17_ddec_sum_bond_order
 _atom_site_hle17_magmom
 _atom_site_hse06_10hf_bader_spin_density
 _atom_site_hse06_10hf_ddec_charge
 _atom_site_hse06_10hf_ddec_spin_density
 _atom_site_hse06_10hf_ddec_sum_bond_order
 _atom_site_hse06_10hf_magmom
 _atom_site_hse06_bader_spin_density
 _atom_site_hse06_ddec_charge
 _atom_site_hse06_ddec_spin_density
 _atom_site_hse06_ddec_sum_bond_order
 _atom_site_hse06_magmom
 _atom_site_pbe_bader_spin_density
 _atom_site_pbe_cm5_charge
 _atom_site_pbe_ddec_charge
 _atom_site_pbe_ddec_spin_density
 _atom_site_pbe_ddec_sum_bond_order
 _atom_site_pbe_magmom
Tl  Tl0  1  0.98172161  0.26089610  0.73767199  1  0  1.080349  0  2.436785  0  0  0.93718  0  2.922948  0  0  0.996641  0  2.894632  0  0  0.522757  0.890143  0  2.954567  0
Tl  Tl1  1  0.51827761  0.23910383  0.23767219  1  0  1.080325  0  2.436808  0  0  0.937159  0  2.922976  0  0  0.996627  0  2.894653  0  0  0.522751  0.890132  0  2.954577  0
Tl  Tl2  1  0.01827945  0.73910474  0.26232817  1  0  1.080331  0  2.436811  0  0  0.937152  0  2.922992  0  0  0.996619  0  2.894665  0  0  0.522742  0.890115  0  2.95461  0
Tl  Tl3  1  0.48172209  0.76089615  0.76232797  1  0  1.080314  0  2.436846  0  0  0.937128  0  2.923026  0  0  0.996601  0  2.894698  0  0  0.522742  0.890098  0  2.954647  0
H  H4  1  0.32686154  0.40512942  0.84356614  1  0  0.093868  0  0.980148  0  0  0.095041  0  1.055429  0  0  0.098071  0  1.052846  0  0  0.107321  0.092873  0  1.056952  0
H  H5  1  0.17313859  0.09487035  0.34356721  1  0  0.093848  0  0.980167  0  0  0.095026  0  1.055445  0  0  0.09806  0  1.052857  0  0  0.107315  0.092861  0  1.056965  0
H  H6  1  0.67313816  0.59487056  0.15643316  1  0  0.093858  0  0.980174  0  0  0.095041  0  1.055444  0  0  0.09807  0  1.052859  0  0  0.107315  0.092875  0  1.056961  0
H  H7  1  0.82686364  0.90512877  0.65643295  1  0  0.093868  0  0.980167  0  0  0.095041  0  1.055453  0  0  0.098074  0  1.052868  0  0  0.107332  0.092875  0  1.056978  0
H  H8  1  0.31452358  0.15440725  0.59079930  1  0  0.092621  0  0.973039  0  0  0.094383  0  1.047445  0  0  0.097268  0  1.045038  0  0  0.108918  0.092186  0  1.049281  0
H  H9  1  0.18547546  0.34559183  0.09079936  1  0  0.09265  0  0.97303  0  0  0.094406  0  1.047438  0  0  0.097291  0  1.045031  0  0  0.108928  0.092209  0  1.04927  0
H  H10  1  0.68547599  0.84559102  0.40920086  1  0  0.092665  0  0.97299  0  0  0.094418  0  1.047401  0  0  0.0973  0  1.044994  0  0  0.108934  0.092222  0  1.049241  0
H  H11  1  0.81452288  0.65440730  0.90919995  1  0  0.092624  0  0.973017  0  0  0.094404  0  1.047412  0  0  0.097292  0  1.045006  0  0  0.108911  0.092204  0  1.049252  0
H  H12  1  0.65589209  0.40417601  0.84754087  1  0  0.093664  0  0.976034  0  0  0.094295  0  1.051831  0  0  0.09727  0  1.049174  0  0  0.107591  0.092029  0  1.053862  0
H  H13  1  0.84410830  0.09582385  0.34754186  1  0  0.093645  0  0.976033  0  0  0.094307  0  1.051801  0  0  0.097283  0  1.049143  0  0  0.10759  0.09204  0  1.053843  0
H  H14  1  0.34410891  0.59582397  0.15245843  1  0  0.093657  0  0.97603  0  0  0.094325  0  1.051799  0  0  0.097301  0  1.049141  0  0  0.107586  0.092055  0  1.053839  0
H  H15  1  0.15589263  0.90417527  0.65245829  1  0  0.093653  0  0.976044  0  0  0.0943  0  1.051822  0  0  0.097275  0  1.049166  0  0  0.107602  0.092036  0  1.053854  0
H  H16  1  0.64395072  0.16192973  0.58686440  1  0  0.095834  0  0.977076  0  0  0.095786  0  1.05349  0  0  0.098818  0  1.050681  0  0  0.107373  0.093623  0  1.055209  0
H  H17  1  0.85604866  0.33807030  0.08686524  1  0  0.095849  0  0.977039  0  0  0.095794  0  1.053473  0  0  0.098826  0  1.050663  0  0  0.107378  0.093632  0  1.05518  0
H  H18  1  0.35604891  0.83806940  0.41313490  1  0  0.09586  0  0.977031  0  0  0.095808  0  1.05345  0  0  0.09884  0  1.050641  0  0  0.107374  0.093649  0  1.055165  0
H  H19  1  0.14395098  0.66192882  0.91313492  1  0  0.095814  0  0.977094  0  0  0.09578  0  1.053499  0  0  0.098812  0  1.05069  0  0  0.10737  0.093619  0  1.055211  0
H  H20  1  0.80322062  0.50988580  0.66108069  1  0  0.091954  0  0.950312  0  0  0.094938  0  1.02266  0  0  0.096914  0  1.021719  0  0  0.116371  0.0926  0  1.024252  0
H  H21  1  0.69677735  0.99011439  0.16108066  1  0  0.091959  0  0.950313  0  0  0.094942  0  1.022657  0  0  0.096917  0  1.021719  0  0  0.116377  0.092605  0  1.024245  0
H  H22  1  0.19677778  0.49011418  0.33891862  1  0  0.091938  0  0.950316  0  0  0.094923  0  1.022668  0  0  0.096899  0  1.021727  0  0  0.116369  0.092585  0  1.024256  0
H  H23  1  0.30322112  0.00988645  0.83891865  1  0  0.091939  0  0.950328  0  0  0.09492  0  1.022676  0  0  0.096897  0  1.021736  0  0  0.116364  0.092584  0  1.02426  0
H  H24  1  0.81307175  0.66191820  0.50949636  1  0  0.091423  0  0.95141  0  0  0.0945  0  1.024024  0  0  0.096365  0  1.023199  0  0  0.116224  0.092282  0  1.025451  0
H  H25  1  0.68692639  0.83808209  0.00949642  1  0  0.091391  0  0.951445  0  0  0.094485  0  1.024045  0  0  0.096349  0  1.02322  0  0  0.116236  0.09227  0  1.025462  0
H  H26  1  0.18692795  0.33808179  0.49050380  1  0  0.091387  0  0.951422  0  0  0.094483  0  1.024011  0  0  0.096347  0  1.023185  0  0  0.116222  0.092268  0  1.025427  0
H  H27  1  0.31307202  0.16191789  0.99050373  1  0  0.091398  0  0.951422  0  0  0.09448  0  1.024037  0  0  0.096345  0  1.023212  0  0  0.11622  0.092266  0  1.025447  0
C  C28  1  0.39829654  0.34945687  0.78784577  1  0  0.089675  0  3.663286  0  0  0.060138  0  3.917493  0  0  0.063226  0  3.934837  0  0  0.060894  0.058427  0  3.904095  0
C  C29  1  0.10170371  0.15054380  0.28784599  1  0  0.089698  0  3.663256  0  0  0.060155  0  3.917458  0  0  0.063239  0  3.934799  0  0  0.060919  0.058439  0  3.904069  0
C  C30  1  0.60170445  0.65054312  0.21215353  1  0  0.089666  0  3.663328  0  0  0.060114  0  3.917555  0  0  0.063201  0  3.9349  0  0  0.060897  0.058403  0  3.904151  0
C  C31  1  0.89829729  0.84945618  0.71215332  1  0  0.089692  0  3.663308  0  0  0.060143  0  3.917513  0  0  0.063228  0  3.934856  0  0  0.060874  0.058432  0  3.904124  0
C  C32  1  0.39155867  0.21163504  0.64654005  1  0  0.082934  0  3.666389  0  0  0.054686  0  3.919581  0  0  0.057656  0  3.93685  0  0  0.059994  0.052734  0  3.906892  0
C  C33  1  0.10844037  0.28836486  0.14654018  1  0  0.08286  0  3.666485  0  0  0.054626  0  3.919653  0  0  0.057594  0  3.936923  0  0  0.059961  0.052671  0  3.906961  0
C  C34  1  0.60843967  0.78836408  0.35346096  1  0  0.082875  0  3.666349  0  0  0.054637  0  3.919545  0  0  0.057609  0  3.936812  0  0  0.05998  0.052678  0  3.90687  0
C  C35  1  0.89155933  0.71163513  0.85345998  1  0  0.082933  0  3.666411  0  0  0.054672  0  3.919568  0  0  0.057638  0  3.93684  0  0  0.059991  0.052723  0  3.906875  0
C  C36  1  0.57894257  0.35020348  0.78885198  1  0  0.089201  0  3.66155  0  0  0.060487  0  3.915341  0  0  0.064009  0  3.932325  0  0  0.061491  0.058275  0  3.902707  0
C  C37  1  0.92105529  0.14979642  0.28885205  1  0  0.089234  0  3.661492  0  0  0.060502  0  3.915264  0  0  0.064024  0  3.932248  0  0  0.061503  0.058292  0  3.902642  0
C  C38  1  0.42105713  0.64979650  0.21114818  1  0  0.089225  0  3.661524  0  0  0.060482  0  3.915306  0  0  0.064003  0  3.932291  0  0  0.061508  0.058275  0  3.902673  0
C  C39  1  0.07894434  0.85020270  0.71114810  1  0  0.089255  0  3.661478  0  0  0.060527  0  3.915271  0  0  0.064048  0  3.932258  0  0  0.061519  0.058315  0  3.902644  0
C  C40  1  0.57245250  0.21483857  0.64519438  1  0  0.099497  0  3.656817  0  0  0.069902  0  3.910483  0  0  0.073939  0  3.926965  0  0  0.064178  0.067593  0  3.89781  0
C  C41  1  0.92754805  0.28516056  0.14519522  1  0  0.099529  0  3.656752  0  0  0.06994  0  3.910396  0  0  0.073977  0  3.926879  0  0  0.064211  0.067634  0  3.897712  0
C  C42  1  0.42754843  0.78516055  0.35480578  1  0  0.099473  0  3.656839  0  0  0.069886  0  3.910492  0  0  0.073922  0  3.926975  0  0  0.064173  0.06757  0  3.897829  0
C  C43  1  0.07245288  0.71483856  0.85480494  1  0  0.099521  0  3.656829  0  0  0.069905  0  3.910489  0  0  0.073942  0  3.926972  0  0  0.0642  0.067599  0  3.897807  0
C  C44  1  0.89198152  0.50540241  0.58933350  1  0  0.096403  0  3.657834  0  0  0.06797  0  3.911551  0  0  0.071241  0  3.92956  0  0  0.06377  0.065503  0  3.900529  0
C  C45  1  0.60801783  0.99459783  0.08933351  1  0  0.096419  0  3.657793  0  0  0.068009  0  3.9115  0  0  0.071279  0  3.929512  0  0  0.063798  0.065541  0  3.900474  0
C  C46  1  0.10801812  0.49459672  0.41066665  1  0  0.096465  0  3.657744  0  0  0.068027  0  3.911469  0  0  0.071297  0  3.929478  0  0  0.063797  0.065557  0  3.900442  0
C  C47  1  0.39198070  0.00540387  0.91066665  1  0  0.096404  0  3.657711  0  0  0.067997  0  3.911418  0  0  0.071265  0  3.92943  0  0  0.063799  0.065528  0  3.900389  0
C  C48  1  0.89738202  0.58980641  0.50516517  1  0  0.096477  0  3.658421  0  0  0.067475  0  3.912735  0  0  0.070765  0  3.930876  0  0  0.06386  0.064984  0  3.901616  0
C  C49  1  0.60261612  0.91019388  0.00516437  1  0  0.096548  0  3.658425  0  0  0.067526  0  3.91276  0  0  0.070816  0  3.930902  0  0  0.063877  0.065027  0  3.901641  0
C  C50  1  0.10261632  0.41019271  0.49483499  1  0  0.096549  0  3.658346  0  0  0.067538  0  3.912669  0  0  0.070829  0  3.930808  0  0  0.063886  0.065048  0  3.901538  0
C  C51  1  0.39738235  0.08980696  0.99483493  1  0  0.096562  0  3.658395  0  0  0.06755  0  3.91273  0  0  0.070839  0  3.930873  0  0  0.063895  0.06505  0  3.901602  0
N  N52  1  0.30653280  0.27826406  0.71840375  1  0  -0.267123  0  3.237066  0  0  -0.198396  0  3.489512  0  0  -0.215291  0  3.513792  0  0  -0.282568  -0.18554  0  3.471511  0
N  N53  1  0.19346617  0.22173579  0.21840388  1  0  -0.267104  0  3.237099  0  0  -0.198381  0  3.48954  0  0  -0.215278  0  3.513823  0  0  -0.282572  -0.185527  0  3.471544  0
N  N54  1  0.69346814  0.72173506  0.28159556  1  0  -0.267098  0  3.23703  0  0  -0.198364  0  3.489459  0  0  -0.215259  0  3.513739  0  0  -0.28257  -0.185501  0  3.471454  0
N  N55  1  0.80653353  0.77826419  0.78159543  1  0  -0.267159  0  3.237164  0  0  -0.198409  0  3.489582  0  0  -0.215307  0  3.513867  0  0  -0.282557  -0.185552  0  3.471581  0
N  N56  1  0.66372556  0.28229744  0.71810936  1  0  -0.262857  0  3.242488  0  0  -0.193281  0  3.493477  0  0  -0.210422  0  3.517247  0  0  -0.281025  -0.180394  0  3.475911  0
N  N57  1  0.83627362  0.21770165  0.21811113  1  0  -0.262903  0  3.242423  0  0  -0.19334  0  3.493434  0  0  -0.210482  0  3.517203  0  0  -0.281072  -0.180458  0  3.47587  0
N  N58  1  0.33627415  0.71770254  0.28189079  1  0  -0.262871  0  3.242506  0  0  -0.193299  0  3.493506  0  0  -0.21044  0  3.517277  0  0  -0.281031  -0.18041  0  3.47594  0
N  N59  1  0.16372595  0.78229662  0.78188987  1  0  -0.262914  0  3.242496  0  0  -0.193333  0  3.493499  0  0  -0.210475  0  3.517267  0  0  -0.281073  -0.180449  0  3.475934  0
N  N60  1  0.99462385  0.41628009  0.58345934  1  0  -0.26082  0  3.235338  0  0  -0.198564  0  3.493145  0  0  -0.215287  0  3.51657  0  0  -0.27807  -0.187483  0  3.476864  0
N  N61  1  0.50537417  0.08371909  0.08345879  1  0  -0.260846  0  3.235378  0  0  -0.198611  0  3.493206  0  0  -0.215334  0  3.516631  0  0  -0.278112  -0.187527  0  3.476919  0
N  N62  1  0.00537579  0.58371904  0.41653996  1  0  -0.260823  0  3.235327  0  0  -0.198561  0  3.493123  0  0  -0.215286  0  3.516549  0  0  -0.278065  -0.187479  0  3.476838  0
N  N63  1  0.49462553  0.91628090  0.91654052  1  0  -0.260797  0  3.235245  0  0  -0.198561  0  3.49307  0  0  -0.215284  0  3.516498  0  0  -0.278099  -0.187476  0  3.476788  0
Cl  Cl64  1  0.97852718  0.12424569  0.57269863  1  0  -0.452826  0  0.93829  0  0  -0.415508  0  1.203594  0  0  -0.429828  0  1.189158  0  0  -0.217589  -0.403406  0  1.21369  0
Cl  Cl65  1  0.52147215  0.37575350  0.07269790  1  0  -0.452834  0  0.938299  0  0  -0.415508  0  1.2036  0  0  -0.42983  0  1.189162  0  0  -0.217594  -0.403401  0  1.213668  0
Cl  Cl66  1  0.02147252  0.87575430  0.42730152  1  0  -0.452829  0  0.938302  0  0  -0.415504  0  1.203602  0  0  -0.429825  0  1.189165  0  0  -0.217586  -0.403389  0  1.213682  0
Cl  Cl67  1  0.47852761  0.62424735  0.92730226  1  0  -0.45282  0  0.938302  0  0  -0.415496  0  1.203611  0  0  -0.42982  0  1.189174  0  0  -0.217583  -0.403386  0  1.213696  0
Cl  Cl68  1  0.99541021  0.42797248  0.87268079  1  0  -0.453711  0  0.933251  0  0  -0.416428  0  1.196912  0  0  -0.430856  0  1.182797  0  0  -0.218342  -0.404245  0  1.20688  0
Cl  Cl69  1  0.50459016  0.07202737  0.37268110  1  0  -0.453705  0  0.933264  0  0  -0.416424  0  1.196919  0  0  -0.430855  0  1.182802  0  0  -0.218339  -0.404243  0  1.206888  0
Cl  Cl70  1  0.00459085  0.57202836  0.12731936  1  0  -0.4537  0  0.933263  0  0  -0.416421  0  1.196931  0  0  -0.430852  0  1.182817  0  0  -0.218331  -0.404237  0  1.206898  0
Cl  Cl71  1  0.49541084  0.92797261  0.62731906  1  0  -0.453702  0  0.933269  0  0  -0.416419  0  1.196927  0  0  -0.430843  0  1.182797  0  0  -0.218332  -0.404232  0  1.206901  0
Cl  Cl72  1  0.95967230  0.10769206  0.89016135  1  0  -0.496591  0  0.79918  0  0  -0.46464  0  1.028575  0  0  -0.480531  0  1.019181  0  0  -0.283176  -0.452231  0  1.036731  0
Cl  Cl73  1  0.54032675  0.39230778  0.39016059  1  0  -0.496581  0  0.799188  0  0  -0.464633  0  1.028588  0  0  -0.480527  0  1.019193  0  0  -0.283169  -0.452229  0  1.036748  0
Cl  Cl74  1  0.04032617  0.89230878  0.10983881  1  0  -0.496585  0  0.799179  0  0  -0.464629  0  1.02857  0  0  -0.480522  0  1.019176  0  0  -0.283165  -0.452222  0  1.036737  0
Cl  Cl75  1  0.45967295  0.60769221  0.60983956  1  0  -0.496581  0  0.79919  0  0  -0.46463  0  1.028595  0  0  -0.480527  0  1.0192  0  0  -0.283164  -0.452217  0  1.03676  0
