# generated using pymatgen
data_CdH12C19(SN4)2
_symmetry_space_group_name_H-M   'P 1'
_cell_length_a   8.64595228
_cell_length_b   8.80371253
_cell_length_c   14.44500732
_cell_angle_alpha   96.58041181
_cell_angle_beta   98.60018660
_cell_angle_gamma   104.91248606
_symmetry_Int_Tables_number   1
_chemical_formula_structural   CdH12C19(SN4)2
_chemical_formula_sum   'Cd2 H24 C38 S4 N16'
_cell_volume   1036.95438444
_cell_formula_units_Z   2
loop_
 _symmetry_equiv_pos_site_id
 _symmetry_equiv_pos_as_xyz
  1  'x, y, z'
loop_
 _atom_site_type_symbol
 _atom_site_label
 _atom_site_symmetry_multiplicity
 _atom_site_fract_x
 _atom_site_fract_y
 _atom_site_fract_z
 _atom_site_occupancy
 _atom_site_hle17_bader_spin_density
 _atom_site_hle17_ddec_charge
 _atom_site_hle17_ddec_spin_density
 _atom_site_hle17_ddec_sum_bond_order
 _atom_site_hle17_magmom
 _atom_site_hse06_10hf_bader_charge
 _atom_site_hse06_10hf_bader_spin_density
 _atom_site_hse06_10hf_ddec_charge
 _atom_site_hse06_10hf_ddec_spin_density
 _atom_site_hse06_10hf_ddec_sum_bond_order
 _atom_site_hse06_10hf_magmom
 _atom_site_hse06_bader_spin_density
 _atom_site_hse06_ddec_charge
 _atom_site_hse06_ddec_spin_density
 _atom_site_hse06_ddec_sum_bond_order
 _atom_site_hse06_magmom
 _atom_site_pbe_bader_spin_density
 _atom_site_pbe_cm5_charge
 _atom_site_pbe_ddec_charge
 _atom_site_pbe_ddec_spin_density
 _atom_site_pbe_ddec_sum_bond_order
 _atom_site_pbe_magmom
Cd  Cd0  1  0.72653711  0.52887271  0.73071359  1  0  1.01683  0  1.920636  0  1.270645  0  0.814096  0  2.385283  0  0  0.861684  0  2.346428  0  0  0.81453  0.781028  0  2.411403  0
Cd  Cd1  1  0.27346423  0.47112932  0.26928548  1  0  1.016926  0  1.920553  0  1.270715  0  0.814217  0  2.38518  0  0  0.861802  0  2.346326  0  0  0.814574  0.781152  0  2.411299  0
H  H2  1  0.16355075  0.46128638  0.04204175  1  0  0.092711  0  0.96056  0  0.158154  0  0.091122  0  1.04209  0  0  0.095121  0  1.037647  0  0  0.116065  0.088215  0  1.045273  0
H  H3  1  0.83644760  0.53871326  0.95795896  1  0  0.092721  0  0.960574  0  0.157898  0  0.091128  0  1.042099  0  0  0.095109  0  1.037672  0  0  0.116067  0.088221  0  1.045282  0
H  H4  1  0.38704276  0.17424713  0.19036781  1  0  0.07744  0  0.949991  0  0.106622  0  0.083474  0  1.017264  0  0  0.085589  0  1.015461  0  0  0.11141  0.081858  0  1.018665  0
H  H5  1  0.61296393  0.82575730  0.80963050  1  0  0.077394  0  0.950018  0  0.106655  0  0.083437  0  1.017289  0  0  0.08555  0  1.015485  0  0  0.111391  0.081823  0  1.018688  0
H  H6  1  0.31747495  0.95996076  0.04621116  1  0  0.111136  0  0.948871  0  0.125559  0  0.117281  0  1.011652  0  0  0.121104  0  1.010393  0  0  0.10499  0.114541  0  1.012713  0
H  H7  1  0.68252473  0.04004365  0.95378724  1  0  0.111113  0  0.948863  0  0.125499  0  0.117224  0  1.011674  0  0  0.121071  0  1.010393  0  0  0.104968  0.114486  0  1.012734  0
H  H8  1  0.15962875  0.00055315  0.89767194  1  0  0.101102  0  0.966992  0  0.12664  0  0.110457  0  1.031836  0  0  0.112622  0  1.03051  0  0  0.104555  0.108868  0  1.032741  0
H  H9  1  0.84036876  0.99944767  0.10232809  1  0  0.101102  0  0.966991  0  0.126644  0  0.11041  0  1.031875  0  0  0.112575  0  1.030548  0  0  0.104524  0.108821  0  1.03278  0
H  H10  1  0.10847715  0.20115776  0.58131958  1  0  0.100297  0  0.988682  0  0.123544  0  0.105745  0  1.057519  0  0  0.10842  0  1.058053  0  0  0.098394  0.103823  0  1.057295  0
H  H11  1  0.89152117  0.79883355  0.41867985  1  0  0.100302  0  0.988746  0  0.123554  0  0.105764  0  1.057562  0  0  0.108436  0  1.058092  0  0  0.098406  0.103842  0  1.057337  0
H  H12  1  0.02652803  0.22550155  0.41394440  1  0  0.099257  0  0.967315  0  0.130587  0  0.104645  0  1.036892  0  0  0.107252  0  1.035167  0  0  0.103091  0.102738  0  1.038156  0
H  H13  1  0.97346763  0.77449689  0.58605460  1  0  0.099228  0  0.967367  0  0.130582  0  0.104651  0  1.03689  0  0  0.107258  0  1.035165  0  0  0.10308  0.102744  0  1.038155  0
H  H14  1  0.79699356  0.34607662  0.36847388  1  0  0.107273  0  0.948172  0  0.133004  0  0.115109  0  1.01118  0  0  0.117757  0  1.011021  0  0  0.10692  0.113169  0  1.011495  0
H  H15  1  0.20300629  0.65392421  0.63152636  1  0  0.107303  0  0.948171  0  0.132997  0  0.115142  0  1.011179  0  0  0.117789  0  1.011021  0  0  0.106928  0.113201  0  1.011494  0
H  H16  1  0.66648287  0.44668679  0.49717941  1  0  0.08867  0  0.937762  0  0.136099  0  0.095735  0  1.001027  0  0  0.097743  0  0.999757  0  0  0.116881  0.094243  0  1.002001  0
H  H17  1  0.33351630  0.55331166  0.50281990  1  0  0.088696  0  0.937741  0  0.136117  0  0.09574  0  1.001029  0  0  0.097748  0  0.99976  0  0  0.116888  0.094247  0  1.002004  0
H  H18  1  0.11178982  0.96046229  0.72388953  1  0  0.123718  0  0.958739  0  0.168679  0  0.130839  0  1.023881  0  0  0.133956  0  1.021341  0  0  0.113522  0.12854  0  1.025746  0
H  H19  1  0.88820517  0.03953376  0.27610995  1  0  0.123723  0  0.958798  0  0.168766  0  0.130888  0  1.023885  0  0  0.134006  0  1.021345  0  0  0.113531  0.128591  0  1.025748  0
H  H20  1  0.36737915  0.91409967  0.67551563  1  0  0.108336  0  0.959566  0  0.125296  0  0.117272  0  1.019793  0  0  0.11943  0  1.020723  0  0  0.109246  0.115685  0  1.019411  0
H  H21  1  0.63261737  0.08589758  0.32448683  1  0  0.10837  0  0.959548  0  0.125305  0  0.117305  0  1.019758  0  0  0.119462  0  1.020689  0  0  0.109248  0.115716  0  1.019379  0
H  H22  1  0.60337391  0.14680902  0.67924919  1  0  0.07577  0  0.977625  0  0.115947  0  0.074286  0  1.059147  0  0  0.07706  0  1.056764  0  0  0.105432  0.072209  0  1.060963  0
H  H23  1  0.39662194  0.85318585  0.32075373  1  0  0.075729  0  0.977665  0  0.115844  0  0.074301  0  1.059158  0  0  0.077035  0  1.056806  0  0  0.105424  0.072224  0  1.060975  0
H  H24  1  0.35940679  0.46453282  0.77889327  1  0  0.089913  0  0.970877  0  0.15791  0  0.089671  0  1.052263  0  0  0.092879  0  1.049549  0  0  0.107581  0.087253  0  1.054318  0
H  H25  1  0.64059004  0.53546563  0.22110653  1  0  0.089914  0  0.970884  0  0.157883  0  0.089697  0  1.052249  0  0  0.092906  0  1.049533  0  0  0.107563  0.087278  0  1.054305  0
C  C26  1  0.19688265  0.34949816  0.04075292  1  0  0.116891  0  3.640975  0  0.508327  0  0.078674  0  3.886818  0  0  0.086571  0  3.903072  0  0  0.058349  0.073658  0  3.875765  0
C  C27  1  0.80311603  0.65050267  0.95924721  1  0  0.116814  0  3.64106  0  0.508592  0  0.078632  0  3.886914  0  0  0.086544  0  3.903177  0  0  0.058321  0.073616  0  3.87586  0
C  C28  1  0.32138508  0.18787223  0.12270061  1  0  0.140112  0  3.697421  0  0.489092  0  0.10933  0  3.944989  0  0  0.117717  0  3.962143  0  0  0.049004  0.103921  0  3.933315  0
C  C29  1  0.67862045  0.81213219  0.87729830  1  0  0.140077  0  3.697431  0  0.488892  0  0.109293  0  3.944996  0  0  0.117684  0  3.962154  0  0  0.048968  0.103884  0  3.933321  0
C  C30  1  0.28276137  0.07006770  0.04319650  1  0  -0.108929  0  3.726401  0  0.024177  0  -0.118  0  3.974416  0  0  -0.125822  0  3.995017  0  0  -0.080473  -0.113097  0  3.960674  0
C  C31  1  0.71724098  0.92993790  0.95680221  1  0  -0.108876  0  3.726344  0  0.024468  0  -0.117913  0  3.974326  0  0  -0.125758  0  3.994917  0  0  -0.080434  -0.11301  0  3.960583  0
C  C32  1  0.19587130  0.09386675  0.95951524  1  0  -0.031291  0  3.689562  0  -0.054901  0  -0.060644  0  3.934057  0  0  -0.056315  0  3.952976  0  0  -0.062726  -0.06302  0  3.92105  0
C  C33  1  0.80413271  0.90613648  0.04048276  1  0  -0.031318  0  3.689586  0  -0.054877  0  -0.060589  0  3.934054  0  0  -0.056261  0  3.952984  0  0  -0.062675  -0.062963  0  3.921042  0
C  C34  1  0.15191564  0.23626898  0.95774897  1  0  -0.0499  0  3.794362  0  0.02867  0  -0.02681  0  4.030501  0  0  -0.035  0  4.055179  0  0  -0.002383  -0.022037  0  4.01451  0
C  C35  1  0.84808153  0.76373066  0.04225095  1  0  -0.049815  0  3.794325  0  0.028655  0  -0.026807  0  4.03054  0  0  -0.034997  0  4.055213  0  0  -0.002398  -0.02204  0  4.01456  0
C  C36  1  0.05401971  0.27016907  0.87538296  1  0  0.272729  0  3.726026  0  0.961185  0  0.236446  0  4.004785  0  0  0.249511  0  4.019523  0  0  0.232786  0.227865  0  3.994739  0
C  C37  1  0.94597780  0.72983176  0.12461707  1  0  0.272681  0  3.726077  0  0.961683  0  0.23641  0  4.004844  0  0  0.249476  0  4.019583  0  0  0.232785  0.227831  0  3.994796  0
C  C38  1  0.96398910  0.30602890  0.73121504  1  0  0.238838  0  3.709759  0  0.989995  0  0.199642  0  3.978777  0  0  0.212428  0  3.992613  0  0  0.230585  0.191154  0  3.969377  0
C  C39  1  0.03600671  0.69396597  0.26878303  1  0  0.23898  0  3.709594  0  0.99013  0  0.199769  0  3.978624  0  0  0.212554  0  3.992464  0  0  0.230685  0.191278  0  3.969228  0
C  C40  1  0.93244403  0.31498842  0.62961008  1  0  0.156045  0  3.792174  0  0.518152  0  0.155724  0  4.037273  0  0  0.161167  0  4.056236  0  0  0.119255  0.15199  0  4.024557  0
C  C41  1  0.06755296  0.68500645  0.37038948  1  0  0.15604  0  3.792049  0  0.518468  0  0.155732  0  4.037148  0  0  0.161176  0  4.056111  0  0  0.119276  0.152001  0  4.024431  0
C  C42  1  0.01175669  0.25626822  0.56212114  1  0  -0.130941  0  3.70095  0  0.004798  0  -0.15142  0  3.947712  0  0  -0.156711  0  3.967031  0  0  -0.081822  -0.148014  0  3.934835  0
C  C43  1  0.98824450  0.74372905  0.43787965  1  0  -0.131016  0  3.701099  0  0.004778  0  -0.151527  0  3.947893  0  0  -0.156813  0  3.967209  0  0  -0.081919  -0.148118  0  3.935009  0
C  C44  1  0.96400550  0.26811869  0.46719949  1  0  0.000456  0  3.701068  0  -0.100165  0  -0.01572  0  3.948035  0  0  -0.012987  0  3.966436  0  0  -0.066098  -0.017295  0  3.935501  0
C  C45  1  0.03599535  0.73188572  0.53280109  1  0  0.000456  0  3.701145  0  -0.100171  0  -0.015728  0  3.948102  0  0  -0.012994  0  3.966499  0  0  -0.066096  -0.017305  0  3.93557  0
C  C46  1  0.83749408  0.33494098  0.44185765  1  0  -0.100759  0  3.699032  0  0.0178  0  -0.114498  0  3.950396  0  0  -0.120426  0  3.971869  0  0  -0.077071  -0.110704  0  3.936002  0
C  C47  1  0.16250359  0.66505628  0.55814214  1  0  -0.100713  0  3.699079  0  0.017814  0  -0.114465  0  3.950431  0  0  -0.120391  0  3.971906  0  0  -0.077011  -0.11067  0  3.936036  0
C  C48  1  0.76498875  0.39186613  0.51335211  1  0  0.143524  0  3.693921  0  0.470839  0  0.113216  0  3.946865  0  0  0.119897  0  3.96498  0  0  0.055552  0.108851  0  3.934557  0
C  C49  1  0.23500926  0.60813232  0.48664779  1  0  0.143451  0  3.693947  0  0.470841  0  0.113165  0  3.946878  0  0  0.119843  0  3.964994  0  0  0.055515  0.108801  0  3.934567  0
C  C50  1  0.21978571  0.21585484  0.75385947  1  0  0.124266  0  3.773714  0  0.255574  0  0.123627  0  4.022223  0  0  0.12291  0  4.045168  0  0  0.093519  0.123735  0  4.006874  0
C  C51  1  0.78021045  0.78414123  0.24614010  1  0  0.124315  0  3.773762  0  0.255595  0  0.123659  0  4.022324  0  0  0.122943  0  4.045269  0  0  0.093512  0.123767  0  4.006976  0
C  C52  1  0.21923086  0.05908475  0.72517246  1  0  -0.073812  0  3.671647  0  -0.043303  0  -0.102153  0  3.922812  0  0  -0.099386  0  3.939621  0  0  -0.059969  -0.103677  0  3.911537  0
C  C53  1  0.78076530  0.94091131  0.27482781  1  0  -0.073817  0  3.671619  0  -0.04329  0  -0.102216  0  3.922822  0  0  -0.099448  0  3.939631  0  0  -0.059975  -0.103738  0  3.911545  0
C  C54  1  0.36000516  0.03351976  0.69874235  1  0  -0.092855  0  3.714562  0  0.016523  0  -0.101652  0  3.961476  0  0  -0.109292  0  3.983797  0  0  -0.073767  -0.09694  0  3.946734  0
C  C55  1  0.63999102  0.96647630  0.30125999  1  0  -0.092867  0  3.714484  0  0.016614  0  -0.10163  0  3.961437  0  0  -0.109268  0  3.983748  0  0  -0.073744  -0.096917  0  3.946695  0
C  C56  1  0.49303583  0.16385061  0.70139651  1  0  0.1392  0  3.689275  0  0.491244  0  0.105282  0  3.942759  0  0  0.113455  0  3.959269  0  0  0.054307  0.099989  0  3.93164  0
C  C57  1  0.50696153  0.83614545  0.29860594  1  0  0.139221  0  3.689466  0  0.491268  0  0.10523  0  3.942948  0  0  0.113439  0  3.959479  0  0  0.05433  0.099937  0  3.93183  0
C  C58  1  0.35775639  0.34114599  0.75577390  1  0  0.064159  0  3.668575  0  0.548812  0  0.026686  0  3.918363  0  0  0.033708  0  3.933729  0  0  0.052584  0.022243  0  3.907934  0
C  C59  1  0.64223893  0.65885126  0.24422500  1  0  0.06402  0  3.668535  0  0.548806  0  0.026498  0  3.918385  0  0  0.033519  0  3.933753  0  0  0.052503  0.022054  0  3.907961  0
C  C60  1  0.10824672  0.70633547  0.80680425  1  0  0.280196  0  4.074336  0  0.496216  0  0.261772  0  4.380545  0  0  0.284664  0  4.39502  0  0  0.121538  0.246305  0  4.370037  0
C  C61  1  0.89177154  0.29365591  0.19319968  1  0  0.280321  0  4.074986  0  0.496447  0  0.261892  0  4.38116  0  0  0.284782  0  4.395628  0  0  0.12155  0.246426  0  4.370653  0
C  C62  1  0.63561997  0.77153544  0.60549155  1  0  0.291554  0  4.086766  0  0.493329  0  0.27658  0  4.385088  0  0  0.300357  0  4.398859  0  0  0.131248  0.260518  0  4.375093  0
C  C63  1  0.36438174  0.22847611  0.39450961  1  0  0.291587  0  4.086206  0  0.491994  0  0.27663  0  4.384525  0  0  0.300407  0  4.398301  0  0  0.13127  0.26057  0  4.374531  0
S  S64  1  0.27428868  0.70394362  0.87420890  1  0  -0.364802  0  1.986489  0  0.081841  0  -0.344477  0  2.266697  0  0  -0.360692  0  2.263963  0  0  -0.175559  -0.332689  0  2.268096  0
S  S65  1  0.72572188  0.29605368  0.12579270  1  0  -0.364914  0  1.98619  0  0.081519  0  -0.344573  0  2.266361  0  0  -0.360792  0  2.263628  0  0  -0.175592  -0.33278  0  2.267756  0
S  S66  1  0.69920693  0.92482516  0.55596921  1  0  -0.348828  0  2.035825  0  0.11371  0  -0.329666  0  2.318252  0  0  -0.345965  0  2.318871  0  0  -0.172607  -0.318009  0  2.317479  0
S  S67  1  0.30079156  0.07518757  0.44402552  1  0  -0.348714  0  2.035826  0  0.113977  0  -0.329552  0  2.318242  0  0  -0.345847  0  2.318854  0  0  -0.172537  -0.317903  0  2.317469  0
N  N68  1  0.27917293  0.32474420  0.12134055  1  0  -0.320327  0  3.243572  0  -1.285565  0  -0.241089  0  3.502674  0  0  -0.260857  0  3.521467  0  0  -0.32614  -0.227706  0  3.489557  0
N  N69  1  0.72082842  0.67525783  0.87865921  1  0  -0.320226  0  3.243564  0  -1.285689  0  -0.240999  0  3.502658  0  0  -0.260766  0  3.521444  0  0  -0.32609  -0.227615  0  3.489538  0
N  N70  1  0.92839674  0.32959106  0.87927368  1  0  -0.233747  0  2.923702  0  -0.676719  0  -0.223015  0  3.208624  0  0  -0.230682  0  3.221999  0  0  -0.206657  -0.217757  0  3.199454  0
N  N71  1  0.07160076  0.67040977  0.12072566  1  0  -0.233665  0  2.923815  0  -0.677323  0  -0.222918  0  3.208724  0  0  -0.230587  0  3.222104  0  0  -0.206608  -0.21766  0  3.199553  0
N  N72  1  0.87336124  0.35082346  0.78991098  1  0  -0.27595  0  3.162496  0  -0.741866  0  -0.221094  0  3.449365  0  0  -0.235616  0  3.465354  0  0  -0.225401  -0.211139  0  3.438319  0
N  N73  1  0.12663408  0.64917379  0.21008791  1  0  -0.276064  0  3.162664  0  -0.741908  0  -0.221226  0  3.449574  0  0  -0.235747  0  3.465562  0  0  -0.225471  -0.211268  0  3.438526  0
N  N74  1  0.08034049  0.25227875  0.78296123  1  0  -0.18382  0  3.489935  0  -1.254686  0  -0.102323  0  3.706627  0  0  -0.118501  0  3.728914  0  0  -0.205318  -0.091548  0  3.69154  0
N  N75  1  0.91965600  0.74771851  0.21703846  1  0  -0.183865  0  3.489967  0  -1.25465  0  -0.102335  0  3.706642  0  0  -0.118514  0  3.72893  0  0  -0.205343  -0.091561  0  3.691559  0
N  N76  1  0.81221479  0.38383009  0.60461572  1  0  -0.34662  0  3.21839  0  -1.258549  0  -0.278022  0  3.473801  0  0  -0.295705  0  3.492679  0  0  -0.318776  -0.265965  0  3.460862  0
N  N77  1  0.18778204  0.61616836  0.39538339  1  0  -0.346595  0  3.218331  0  -1.258857  0  -0.277998  0  3.473729  0  0  -0.295678  0  3.492603  0  0  -0.318766  -0.265941  0  3.460789  0
N  N78  1  0.49197931  0.31429053  0.72973150  1  0  -0.301194  0  3.251248  0  -1.260928  0  -0.224159  0  3.513422  0  0  -0.242938  0  3.5313  0  0  -0.31999  -0.21148  0  3.501007  0
N  N79  1  0.50801720  0.68570673  0.27026957  1  0  -0.301101  0  3.25126  0  -1.261027  0  -0.224038  0  3.51343  0  0  -0.242815  0  3.531297  0  0  -0.319935  -0.211361  0  3.501016  0
N  N80  1  0.98757269  0.71199654  0.75630836  1  0  -0.594464  0  2.831845  0  -1.351453  0  -0.539949  0  3.102464  0  0  -0.561865  0  3.109353  0  0  -0.420258  -0.524702  0  3.097374  0
N  N81  1  0.01243132  0.28799836  0.24369112  1  0  -0.594505  0  2.832762  0  -1.351396  0  -0.539999  0  3.103359  0  0  -0.561911  0  3.110242  0  0  -0.420257  -0.524765  0  3.098292  0
N  N82  1  0.58468266  0.65717018  0.64120903  1  0  -0.602202  0  2.862918  0  -1.36084  0  -0.542054  0  3.137003  0  0  -0.564278  0  3.140296  0  0  -0.436337  -0.526657  0  3.134321  0
N  N83  1  0.41533362  0.34285569  0.35879510  1  0  -0.602395  0  2.862395  0  -1.359807  0  -0.542268  0  3.136496  0  0  -0.564493  0  3.139795  0  0  -0.436451  -0.526858  0  3.13379  0
