# generated using pymatgen
data_NiH15C19(NO2)2
_symmetry_space_group_name_H-M   'P 1'
_cell_length_a   8.99409178
_cell_length_b   9.71136616
_cell_length_c   10.62195451
_cell_angle_alpha   93.76710267
_cell_angle_beta   101.50785492
_cell_angle_gamma   112.06849649
_symmetry_Int_Tables_number   1
_chemical_formula_structural   NiH15C19(NO2)2
_chemical_formula_sum   'Ni2 H30 C38 N4 O8'
_cell_volume   832.34868203
_cell_formula_units_Z   2
loop_
 _symmetry_equiv_pos_site_id
 _symmetry_equiv_pos_as_xyz
  1  'x, y, z'
loop_
 _atom_site_type_symbol
 _atom_site_label
 _atom_site_symmetry_multiplicity
 _atom_site_fract_x
 _atom_site_fract_y
 _atom_site_fract_z
 _atom_site_occupancy
 _atom_site_pbe_cm5_charge
 _atom_site_pbe_ddec_charge
 _atom_site_pbe_ddec_spin_density
 _atom_site_pbe_ddec_sum_bond_order
 _atom_site_pbe_magmom
Ni  Ni0  1  0.92636731  0.34731318  0.47929170  1  0.590258  0.629882  -0.016353  2.690513  -0.021
Ni  Ni1  1  0.07363200  0.65268802  0.52070879  1  0.590266  0.629888  -0.016332  2.690572  -0.021
H  H2  1  0.46673515  0.55194469  0.60198691  1  0.101248  0.103941  0.000158  1.039054  0.0
H  H3  1  0.53326289  0.44805080  0.39800937  1  0.101278  0.104039  0.000158  1.039037  0.0
H  H4  1  0.74922316  0.60935338  0.73360281  1  0.104606  0.109053  -1.2e-05  1.025071  0.0
H  H5  1  0.25077658  0.39064314  0.26638912  1  0.104612  0.109061  -1.2e-05  1.025068  0.0
H  H6  1  0.56233347  0.20631568  0.90320377  1  0.098665  0.098164  -4e-06  1.014556  0.0
H  H7  1  0.43766878  0.79369815  0.09680998  1  0.098649  0.098131  -4e-06  1.014618  0.0
H  H8  1  0.28226498  0.13981167  0.75589198  1  0.104182  0.103623  2e-05  1.025606  0.0
H  H9  1  0.71773267  0.86019433  0.24412251  1  0.104221  0.103666  2e-05  1.025628  0.0
H  H10  1  0.75074972  0.41128093  0.08848717  1  0.110151  0.116724  -3.1e-05  0.996842  0.0
H  H11  1  0.24924848  0.58872023  0.91151123  1  0.110178  0.116747  -3.1e-05  0.996809  0.0
H  H12  1  0.62894554  0.26287774  0.58510413  1  0.115957  0.088245  0.000272  1.049008  0.0
H  H13  1  0.37105324  0.73711447  0.41489594  1  0.115944  0.088239  0.000273  1.048994  0.0
H  H14  1  0.32655626  0.11272996  0.49741331  1  0.112324  0.129613  0.000175  1.01262  0.0
H  H15  1  0.67344396  0.88725775  0.50258685  1  0.112342  0.129686  0.000175  1.012546  0.0
H  H16  1  0.42348064  0.04181234  0.12367283  1  0.105296  0.109374  0.000105  1.019044  0.0
H  H17  1  0.57651969  0.95819105  0.87632511  1  0.105312  0.109403  0.000105  1.018934  0.0
H  H18  1  0.72422145  0.18996789  0.22615421  1  0.119955  0.096808  0.000336  1.025376  0.0
H  H19  1  0.27577847  0.81004218  0.77384108  1  0.119983  0.096802  0.000336  1.025411  0.0
H  H20  1  0.14230619  0.85576800  0.25717880  1  0.112986  0.114061  8.2e-05  0.986066  0.0
H  H21  1  0.85769167  0.14422979  0.74281942  1  0.112982  0.114047  8.2e-05  0.986109  0.0
H  H22  1  0.09587795  0.00753957  0.30753479  1  0.104273  0.09975  -9e-06  0.977053  0.0
H  H23  1  0.90412211  0.99245831  0.69246855  1  0.104293  0.099752  -8e-06  0.977056  0.0
H  H24  1  0.23751227  0.21421955  0.12703691  1  0.097478  0.073318  -4e-06  1.015574  0.0
H  H25  1  0.76248882  0.78578050  0.87296293  1  0.097476  0.073323  -4e-06  1.015593  0.0
H  H26  1  0.03060605  0.15619792  0.14566535  1  0.087808  0.057244  1.3e-05  0.996338  0.0
H  H27  1  0.96939474  0.84380664  0.85433460  1  0.087836  0.057255  1.3e-05  0.996354  0.0
H  H28  1  0.85583151  0.87699102  0.10475121  1  0.087586  0.052825  2e-06  1.015037  0.0
H  H29  1  0.14416761  0.12300456  0.89524904  1  0.087589  0.052846  2e-06  1.01505  0.0
H  H30  1  0.95019855  0.75407737  0.06408269  1  0.098171  0.077843  -1.1e-05  1.010433  0.0
H  H31  1  0.04980485  0.24592265  0.93591570  1  0.098172  0.077861  -1.1e-05  1.010435  0.0
C  C32  1  0.18581894  0.30231141  0.59135367  1  0.194635  0.541884  0.001617  4.207624  0.0
C  C33  1  0.81417869  0.69768874  0.40865024  1  0.19462  0.541892  0.001617  4.207479  0.0
C  C34  1  0.35681953  0.34342671  0.67307551  1  -0.017227  -0.027959  -0.001013  3.974116  -0.001
C  C35  1  0.64318194  0.65657668  0.32692264  1  -0.017263  -0.02797  -0.001012  3.974194  -0.001
C  C36  1  0.48867723  0.47587139  0.66708341  1  -0.085883  -0.088245  0.000585  3.969709  0.0
C  C37  1  0.51132584  0.52412524  0.33291384  1  -0.085939  -0.088375  0.000585  3.969477  0.0
C  C38  1  0.64666580  0.50835127  0.74207276  1  -0.090118  -0.132886  -0.000159  3.967035  0.0
C  C39  1  0.35333203  0.49164858  0.25791706  1  -0.09009  -0.132856  -0.000159  3.967105  0.0
C  C40  1  0.67448807  0.41348507  0.83006206  1  -0.009577  0.066225  6.6e-05  4.010605  0.0
C  C41  1  0.32551369  0.58651384  0.16993693  1  -0.009565  0.066198  6.6e-05  4.010782  0.0
C  C42  1  0.54119692  0.28179214  0.83682410  1  -0.090322  -0.128648  7.8e-05  3.978805  0.0
C  C43  1  0.45880418  0.71821582  0.16317792  1  -0.090308  -0.128624  7.8e-05  3.978658  0.0
C  C44  1  0.38509428  0.24512469  0.75641087  1  -0.084139  -0.098669  0.000572  3.993059  0.001
C  C45  1  0.61491158  0.75487890  0.24359753  1  -0.084161  -0.098713  0.000572  3.993106  0.001
C  C46  1  0.97458636  0.50378387  0.72486630  1  0.233576  0.570292  -0.002574  4.109851  -0.001
C  C47  1  0.02541263  0.49621392  0.27513213  1  0.233488  0.570274  -0.002574  4.110021  -0.001
C  C48  1  0.98378308  0.50646582  0.86746326  1  -0.003769  -0.054907  -0.002384  3.951272  -0.002
C  C49  1  0.01621832  0.49352974  0.13253647  1  -0.003827  -0.055081  -0.002383  3.951257  -0.002
C  C50  1  0.84029823  0.45340903  0.91522276  1  0.002076  0.053874  -0.001174  3.985047  -0.001
C  C51  1  0.15970194  0.54658870  0.08477306  1  0.00205  0.053921  -0.001173  3.984938  -0.001
C  C52  1  0.85967618  0.44675090  0.04851950  1  -0.078888  -0.14479  -0.001222  3.941016  -0.001
C  C53  1  0.14032395  0.55324689  0.95147914  1  -0.078927  -0.14486  -0.001222  3.941066  -0.001
C  C54  1  0.57932645  0.21155582  0.48352866  1  0.046654  0.090552  0.000738  3.91205  0.001
C  C55  1  0.42067318  0.78844086  0.51647078  1  0.046632  0.090558  0.000739  3.911978  0.001
C  C56  1  0.41082594  0.12782803  0.43365419  1  -0.08053  -0.180168  0.000562  3.915775  0.001
C  C57  1  0.58917661  0.87216751  0.56634482  1  -0.080527  -0.180204  0.000562  3.915598  0.001
C  C58  1  0.34913833  0.06530430  0.30203833  1  0.019661  0.16116  0.000152  3.921837  0.0
C  C59  1  0.65086065  0.93469351  0.69796103  1  0.019634  0.161116  0.000153  3.921827  0.0
C  C60  1  0.46519621  0.08843408  0.22678673  1  -0.086389  -0.183421  0.000559  3.973465  0.001
C  C61  1  0.53480250  0.91156818  0.77321087  1  -0.086411  -0.183499  0.000559  3.973334  0.001
C  C62  1  0.63192614  0.17139991  0.28269915  1  0.039475  0.074876  0.001078  3.931757  0.001
C  C63  1  0.36807125  0.82860464  0.71730018  1  0.039495  0.075006  0.001079  3.931594  0.001
C  C64  1  0.16729229  0.97417687  0.24660974  1  -0.062729  -0.124862  0.000135  3.925055  0.0
C  C65  1  0.83270881  0.02582319  0.75339010  1  -0.062749  -0.124818  0.000135  3.925058  0.0
C  C66  1  0.11112762  0.12863683  0.09006969  1  -0.073709  -0.082069  2.7e-05  3.959245  0.0
C  C67  1  0.88887231  0.87136327  0.90993182  1  -0.073751  -0.08215  2.7e-05  3.959338  0.0
C  C68  1  0.94689783  0.86463994  0.05294266  1  -0.071259  -0.070143  -1e-06  3.953219  0.0
C  C69  1  0.05310050  0.13535899  0.94705663  1  -0.071315  -0.070318  -1e-06  3.953284  0.0
N  N70  1  0.69020804  0.23531502  0.40945166  1  -0.332666  -0.18985  0.01091  3.603745  0.007
N  N71  1  0.30978904  0.76468612  0.59054560  1  -0.332667  -0.189934  0.010914  3.603709  0.007
N  N72  1  0.11201849  0.98105287  0.10900648  1  -0.347375  -0.154335  0.000158  3.485708  0.0
N  N73  1  0.88798017  0.01894945  0.89099393  1  -0.347391  -0.154304  0.000158  3.485705  0.0
O  O74  1  0.15823845  0.41574126  0.54696630  1  -0.315105  -0.517637  0.019311  2.41545  0.019
O  O75  1  0.84176246  0.58426111  0.45303642  1  -0.315066  -0.517614  0.019318  2.415494  0.019
O  O76  1  0.08068290  0.17084878  0.57107081  1  -0.303509  -0.517325  0.008259  2.149652  0.007
O  O77  1  0.91931454  0.82915366  0.42893504  1  -0.303487  -0.517328  0.008264  2.149497  0.007
O  O78  1  0.04165637  0.63211687  0.69053085  1  -0.279633  -0.466011  -0.010041  2.479132  -0.01
O  O79  1  0.95834832  0.36788090  0.30946770  1  -0.279573  -0.466016  -0.010037  2.479201  -0.01
O  O80  1  0.90660249  0.37404233  0.65475211  1  -0.274131  -0.457248  -0.011001  2.446982  -0.011
O  O81  1  0.09339034  0.62595433  0.34524513  1  -0.2741  -0.457208  -0.011002  2.447059  -0.011
