# generated using pymatgen
data_AgH4(C2N3)2
_symmetry_space_group_name_H-M   'P 1'
_cell_length_a   10.87544495
_cell_length_b   10.11743454
_cell_length_c   17.65163753
_cell_angle_alpha   80.77876917
_cell_angle_beta   72.02586755
_cell_angle_gamma   57.47184917
_symmetry_Int_Tables_number   1
_chemical_formula_structural   AgH4(C2N3)2
_chemical_formula_sum   'Ag8 H32 C32 N48'
_cell_volume   1557.59552698
_cell_formula_units_Z   8
loop_
 _symmetry_equiv_pos_site_id
 _symmetry_equiv_pos_as_xyz
  1  'x, y, z'
loop_
 _atom_site_type_symbol
 _atom_site_label
 _atom_site_symmetry_multiplicity
 _atom_site_fract_x
 _atom_site_fract_y
 _atom_site_fract_z
 _atom_site_occupancy
 _atom_site_pbe_bader_charge
 _atom_site_pbe_bader_spin_density
 _atom_site_pbe_cm5_charge
 _atom_site_pbe_ddec_charge
 _atom_site_pbe_ddec_spin_density
 _atom_site_pbe_ddec_sum_bond_order
 _atom_site_pbe_magmom
Ag  Ag0  1  0.10304067  0.67897914  0.28493522  1  0.549665  0  0.475305  0.305562  0  1.874925  0
Ag  Ag1  1  0.40640224  0.77412472  0.40918753  1  0.52181  0  0.468171  0.272361  0  1.830841  0
Ag  Ag2  1  0.06670902  0.32102356  0.71510759  1  0.549647  0  0.475122  0.30492  0  1.874477  0
Ag  Ag3  1  0.58918513  0.22579253  0.59049445  1  0.520063  0  0.468001  0.272372  0  1.830609  0
Ag  Ag4  1  0.13991091  0.17785351  0.21470596  1  0.551176  0  0.475707  0.304126  0  1.882918  0
Ag  Ag5  1  0.56368135  0.27476488  0.09057594  1  0.52186  0  0.467064  0.271104  0  1.828899  0
Ag  Ag6  1  0.53245998  0.82244835  0.78511873  1  0.551084  0  0.475667  0.303466  0  1.884594  0
Ag  Ag7  1  0.92982585  0.72458769  0.90908279  1  0.51943  0  0.466904  0.271472  0  1.82863  0
H  H8  1  0.88744311  0.06146424  0.26891658  1  0.144805  0  0.121829  0.089843  0  1.004442  0
H  H9  1  0.07514826  0.87915035  0.03739957  1  0.090414  0  0.112241  0.070308  0  1.036398  0
H  H10  1  0.61167079  0.87342827  0.46698078  1  0.083127  0  0.11676  0.079772  0  1.002342  0
H  H11  1  0.70957876  0.00916622  0.22974670  1  0.142165  0  0.115158  0.083395  0  1.057158  0
H  H12  1  0.72800836  0.71702622  0.09358192  1  0.236841  0  0.156523  0.144142  0  0.991682  0
H  H13  1  0.37219983  0.86402905  0.98489636  1  0.289134  0  0.141678  0.116182  0  1.077823  0
H  H14  1  0.48176163  0.87554268  0.22053052  1  0.287576  0  0.13725  0.111235  0  1.086257  0
H  H15  1  0.33213835  0.66431449  0.10713596  1  0.17465  0  0.153396  0.126317  0  0.978175  0
H  H16  1  0.21776784  0.93697435  0.73156016  1  0.129401  0  0.122163  0.090856  0  1.002997  0
H  H17  1  0.99139176  0.11872793  0.96322121  1  0.097905  0  0.112068  0.070376  0  1.035972  0
H  H18  1  0.95206352  0.12578898  0.53237858  1  0.073717  0  0.11659  0.079722  0  1.003075  0
H  H19  1  0.94727463  0.99366858  0.77006943  1  0.145401  0  0.114913  0.083524  0  1.059151  0
H  H20  1  0.53861320  0.28220130  0.90623522  1  0.239332  0  0.156545  0.144371  0  0.991345  0
H  H21  1  0.22049911  0.13604360  0.01527709  1  0.277162  0  0.141823  0.11637  0  1.077779  0
H  H22  1  0.57737424  0.12485850  0.77934399  1  0.270975  0  0.137241  0.110723  0  1.087209  0
H  H23  1  0.10302833  0.33476384  0.89314010  1  0.171867  0  0.153405  0.126596  0  0.978801  0
H  H24  1  0.90606999  0.56088863  0.23161345  1  0.131219  0  0.122119  0.090738  0  1.003275  0
H  H25  1  0.86129611  0.38157759  0.46250130  1  0.098849  0  0.112155  0.070192  0  1.035492  0
H  H26  1  0.82674060  0.37390057  0.03193824  1  0.061889  0  0.116417  0.079704  0  1.002459  0
H  H27  1  0.68927631  0.51040049  0.26979948  1  0.144866  0  0.114836  0.082718  0  1.058156  0
H  H28  1  0.57252933  0.21679704  0.40629818  1  0.243011  0  0.15649  0.144068  0  0.991204  0
H  H29  1  0.10715961  0.36460348  0.51576126  1  0.291362  0  0.141409  0.115975  0  1.078456  0
H  H30  1  0.45306262  0.37501202  0.28009694  1  0.288951  0  0.137585  0.11116  0  1.085721  0
H  H31  1  0.18996465  0.16440205  0.39243273  1  0.158485  0  0.153619  0.127116  0  0.977124  0
H  H32  1  0.69726046  0.44148524  0.76907147  1  0.126963  0  0.121996  0.090402  0  1.004189  0
H  H33  1  0.70475982  0.62090233  0.53819982  1  0.099652  0  0.112451  0.070529  0  1.03589  0
H  H34  1  0.23382977  0.62557686  0.96737170  1  0.064255  0  0.116405  0.079842  0  1.003198  0
H  H35  1  0.47076205  0.48708723  0.72974038  1  0.146318  0  0.114692  0.082743  0  1.056476  0
H  H36  1  0.19639703  0.78311273  0.59363797  1  0.245485  0  0.156977  0.145293  0  0.98992  0
H  H37  1  0.98831736  0.63558203  0.48422090  1  0.26049  0  0.141434  0.116231  0  1.077738  0
H  H38  1  0.10862293  0.62472065  0.71981736  1  0.282219  0  0.137535  0.111568  0  1.085827  0
H  H39  1  0.74731269  0.83664400  0.60742541  1  0.157759  0  0.153554  0.127096  0  0.977083  0
C  C40  1  0.95445460  0.03090548  0.20741578  1  0.921204  0  0.111813  0.118729  0  4.027809  0
C  C41  1  0.04947002  0.93940152  0.09090445  1  0.928793  0  0.097879  0.099656  0  4.120027  0
C  C42  1  0.61700752  0.89711767  0.40412322  1  0.949251  0  0.103451  0.10122  0  4.091539  0
C  C43  1  0.66297341  0.96723268  0.28489694  1  0.926308  0  0.108241  0.126328  0  4.046036  0
C  C44  1  0.66361546  0.76007708  0.04963727  1  0.978317  0  0.171016  0.060216  0  3.855796  0
C  C45  1  0.48198284  0.82766675  0.99349154  1  0.878986  0  0.159199  0.050666  0  3.892581  0
C  C46  1  0.41765131  0.82863541  0.20952898  1  0.86786  0  0.15225  0.041165  0  3.930302  0
C  C47  1  0.34247761  0.71630374  0.15206628  1  1.020121  0  0.171543  0.064937  0  3.89829  0
C  C48  1  0.19259722  0.96770667  0.79302648  1  0.923221  0  0.111307  0.11606  0  4.028961  0
C  C49  1  0.07950319  0.05884673  0.90961929  1  0.896987  0  0.097159  0.097739  0  4.119872  0
C  C50  1  0.91792943  0.10302922  0.59535494  1  0.949752  0  0.103721  0.101253  0  4.093276  0
C  C51  1  0.91414325  0.03463849  0.71481584  1  0.931787  0  0.108157  0.124855  0  4.046428  0
C  C52  1  0.47316273  0.23940512  0.95028960  1  0.971563  0  0.171375  0.061319  0  3.851938  0
C  C53  1  0.30263760  0.17227716  0.00661139  1  0.898484  0  0.159561  0.05154  0  3.892958  0
C  C54  1  0.45535582  0.17131404  0.79052253  1  0.924846  0  0.152159  0.041097  0  3.930164  0
C  C55  1  0.21031004  0.28314623  0.84815364  1  0.985772  0  0.1719  0.064286  0  3.898946  0
C  C56  1  0.91141253  0.53078224  0.29293619  1  0.930876  0  0.111424  0.116869  0  4.029482  0
C  C57  1  0.88943362  0.44091680  0.40911695  1  0.911453  0  0.097522  0.099356  0  4.119275  0
C  C58  1  0.76984998  0.39754836  0.09506299  1  0.954642  0  0.10278  0.098924  0  4.091285  0
C  C59  1  0.69744352  0.46814206  0.21460052  1  0.934186  0  0.108516  0.127652  0  4.045268  0
C  C60  1  0.46389786  0.26012518  0.45051548  1  0.970968  0  0.171398  0.061599  0  3.854627  0
C  C61  1  0.22564521  0.32829791  0.50704959  1  0.891318  0  0.15898  0.049986  0  3.896029  0
C  C62  1  0.37814225  0.32795862  0.29105399  1  0.894868  0  0.153046  0.042896  0  3.925974  0
C  C63  1  0.24548950  0.21602317  0.34787833  1  1.013031  0  0.171963  0.065115  0  3.899624  0
C  C64  1  0.73412966  0.47133964  0.70771819  1  0.933845  0  0.111558  0.11751  0  4.026277  0
C  C65  1  0.73878219  0.56129721  0.59154027  1  0.918071  0  0.097118  0.098907  0  4.121774  0
C  C66  1  0.26360110  0.60151387  0.90434220  1  0.971375  0  0.103361  0.099188  0  4.092393  0
C  C67  1  0.38133100  0.53003760  0.78488643  1  0.913475  0  0.108918  0.127108  0  4.045507  0
C  C68  1  0.17540242  0.73983014  0.54941146  1  0.968714  0  0.17062  0.058766  0  3.854691  0
C  C69  1  0.06192317  0.67169526  0.49289601  1  0.911473  0  0.158351  0.048071  0  3.894786  0
C  C70  1  0.99746459  0.67234081  0.70888136  1  0.881763  0  0.152629  0.041233  0  3.927518  0
C  C71  1  0.80972665  0.78479821  0.65202754  1  1.02996  0  0.171933  0.063705  0  3.897844  0
N  N72  1  0.11366564  0.02038832  0.09309400  1  -0.758511  0  -0.265629  -0.279868  0  3.289203  0
N  N73  1  0.05084133  0.07966708  0.16937285  1  -0.76307  0  -0.301236  -0.160482  0  3.640238  0
N  N74  1  0.95002717  0.94173886  0.16019250  1  -1.20446  0  -0.372707  -0.397757  0  3.341046  0
N  N75  1  0.68916261  0.96585697  0.35580135  1  -1.221973  0  -0.373273  -0.407434  0  3.310513  0
N  N76  1  0.55030514  0.85896189  0.36597757  1  -0.766419  0  -0.309965  -0.179963  0  3.695909  0
N  N77  1  0.58028697  0.90479178  0.28800385  1  -0.747365  0  -0.259923  -0.248791  0  3.251282  0
N  N78  1  0.70872183  0.78379627  0.97297595  1  -0.757372  0  -0.266083  -0.116791  0  3.621125  0
N  N79  1  0.59559830  0.82543954  0.93734397  1  -0.677844  0  -0.222071  -0.188165  0  3.217266  0
N  N80  1  0.52120579  0.78649442  0.06449062  1  -0.846672  0  -0.109757  0.112393  0  3.709232  0
N  N81  1  0.43410041  0.77606687  0.13773693  1  -0.850964  0  -0.111484  0.109595  0  3.712479  0
N  N82  1  0.32226589  0.79999310  0.26537858  1  -0.666948  0  -0.226413  -0.200272  0  3.263706  0
N  N83  1  0.27366045  0.73182351  0.22872169  1  -0.730247  0  -0.254727  -0.103789  0  3.592185  0
N  N84  1  0.22703264  0.97907504  0.90712328  1  -0.734497  0  -0.265321  -0.279455  0  3.288919  0
N  N85  1  0.29981126  0.92000490  0.83080778  1  -0.757754  0  -0.300859  -0.1593  0  3.640305  0
N  N86  1  0.05166359  0.05590746  0.84048013  1  -1.197727  0  -0.37223  -0.396143  0  3.34078  0
N  N87  1  0.01025778  0.03496499  0.64376969  1  -1.217339  0  -0.374174  -0.407746  0  3.311295  0
N  N88  1  0.77468750  0.14173064  0.63356811  1  -0.751994  0  -0.310056  -0.181026  0  3.698579  0
N  N89  1  0.77211838  0.09703189  0.71167703  1  -0.764822  0  -0.259273  -0.246742  0  3.253982  0
N  N90  1  0.46530916  0.21580500  0.02694500  1  -0.750007  0  -0.266309  -0.117514  0  3.622871  0
N  N91  1  0.35797106  0.17444843  0.06268603  1  -0.682309  0  -0.222609  -0.188765  0  3.220483  0
N  N92  1  0.37180765  0.21324535  0.93555006  1  -0.855425  0  -0.110145  0.110901  0  3.707315  0
N  N93  1  0.34743078  0.22366636  0.86236266  1  -0.834919  0  -0.111847  0.109994  0  3.711839  0
N  N94  1  0.38712532  0.19980661  0.73475337  1  -0.716336  0  -0.225498  -0.199056  0  3.260241  0
N  N95  1  0.23369023  0.26765247  0.77150544  1  -0.696363  0  -0.255497  -0.104113  0  3.593719  0
N  N96  1  0.95690160  0.52079521  0.40688261  1  -0.751203  0  -0.265573  -0.280101  0  3.288131  0
N  N97  1  0.97060739  0.57905775  0.33080719  1  -0.748911  0  -0.301015  -0.160356  0  3.641692  0
N  N98  1  0.85885971  0.44297774  0.34005143  1  -1.214318  0  -0.372711  -0.397281  0  3.340275  0
N  N99  1  0.79389176  0.46674027  0.14335314  1  -1.221138  0  -0.373101  -0.40614  0  3.307331  0
N  N100  1  0.66543127  0.35918557  0.13354519  1  -0.763277  0  -0.309828  -0.178766  0  3.694499  0
N  N101  1  0.61799373  0.40533866  0.21173494  1  -0.746982  0  -0.259814  -0.249719  0  3.252043  0
N  N102  1  0.43186143  0.28463841  0.52728003  1  -0.755784  0  -0.266957  -0.118172  0  3.625555  0
N  N103  1  0.28275784  0.32666643  0.56317829  1  -0.68057  0  -0.221583  -0.187274  0  3.218813  0
N  N104  1  0.33639142  0.28631625  0.43583418  1  -0.860408  0  -0.10986  0.111972  0  3.710409  0
N  N105  1  0.32269290  0.27570795  0.36254264  1  -0.843084  0  -0.111392  0.108846  0  3.713631  0
N  N106  1  0.33874778  0.29922058  0.23507262  1  -0.689529  0  -0.225105  -0.197139  0  3.263428  0
N  N107  1  0.25358335  0.23122550  0.27132395  1  -0.717233  0  -0.255821  -0.10549  0  3.593536  0
N  N108  1  0.88408170  0.47996025  0.59355282  1  -0.75201  0  -0.26582  -0.280213  0  3.288619  0
N  N109  1  0.87977324  0.42167089  0.66962174  1  -0.763953  0  -0.301089  -0.159939  0  3.640282  0
N  N110  1  0.64086877  0.56016378  0.66073912  1  -1.202847  0  -0.37281  -0.3968  0  3.339382  0
N  N111  1  0.40518872  0.53193586  0.85599739  1  -1.211059  0  -0.373303  -0.406007  0  3.308064  0
N  N112  1  0.15920938  0.63963123  0.86600995  1  -0.768247  0  -0.310043  -0.179621  0  3.693831  0
N  N113  1  0.23611480  0.59291251  0.78787387  1  -0.749926  0  -0.259411  -0.248236  0  3.250124  0
N  N114  1  0.24492710  0.71505272  0.47266745  1  -0.752357  0  -0.266596  -0.116492  0  3.624664  0
N  N115  1  0.17377338  0.67307306  0.43679114  1  -0.683814  0  -0.221647  -0.187383  0  3.218902  0
N  N116  1  0.05928230  0.71379890  0.56409965  1  -0.848613  0  -0.109514  0.113303  0  3.706708  0
N  N117  1  0.96141142  0.72471969  0.63738886  1  -0.852903  0  -0.111484  0.109844  0  3.71142  0
N  N118  1  0.87313473  0.70136010  0.76483716  1  -0.667234  0  -0.225694  -0.198557  0  3.265329  0
N  N119  1  0.75620768  0.76972501  0.72857944  1  -0.727518  0  -0.254792  -0.102427  0  3.589202  0
