# generated using pymatgen
data_ZnH28C32N8(O2F3)2
_symmetry_space_group_name_H-M   'P 1'
_cell_length_a   8.81222727
_cell_length_b   9.28249568
_cell_length_c   11.37630132
_cell_angle_alpha   82.48814146
_cell_angle_beta   68.09908495
_cell_angle_gamma   67.77048183
_symmetry_Int_Tables_number   1
_chemical_formula_structural   ZnH28C32N8(O2F3)2
_chemical_formula_sum   'Zn1 H28 C32 N8 O4 F6'
_cell_volume   799.18488247
_cell_formula_units_Z   1
loop_
 _symmetry_equiv_pos_site_id
 _symmetry_equiv_pos_as_xyz
  1  'x, y, z'
loop_
 _atom_site_type_symbol
 _atom_site_label
 _atom_site_symmetry_multiplicity
 _atom_site_fract_x
 _atom_site_fract_y
 _atom_site_fract_z
 _atom_site_occupancy
 _atom_site_hle17_bader_spin_density
 _atom_site_hle17_ddec_charge
 _atom_site_hle17_ddec_spin_density
 _atom_site_hle17_ddec_sum_bond_order
 _atom_site_hle17_magmom
 _atom_site_hse06_10hf_bader_spin_density
 _atom_site_hse06_10hf_ddec_charge
 _atom_site_hse06_10hf_ddec_spin_density
 _atom_site_hse06_10hf_ddec_sum_bond_order
 _atom_site_hse06_10hf_magmom
 _atom_site_hse06_bader_spin_density
 _atom_site_hse06_ddec_charge
 _atom_site_hse06_ddec_spin_density
 _atom_site_hse06_ddec_sum_bond_order
 _atom_site_hse06_magmom
 _atom_site_pbe_bader_spin_density
 _atom_site_pbe_cm5_charge
 _atom_site_pbe_ddec_charge
 _atom_site_pbe_ddec_spin_density
 _atom_site_pbe_ddec_sum_bond_order
 _atom_site_pbe_magmom
Zn  Zn0  1  0.99999978  0.00000049  0.50000004  1  0  0.978308  0  1.944033  0  0  0.795491  0  2.393334  0  0  0.838401  0  2.348647  0  0  0.695872  0.765757  0  2.424131  0
H  H1  1  0.80023131  0.57179531  0.81679128  1  0  0.091665  0  0.952321  0  0  0.103662  0  1.012442  0  0  0.106091  0  1.01223  0  0  0.098088  0.101945  0  1.012523  0
H  H2  1  0.19976883  0.42820478  0.18320785  1  0  0.091696  0  0.952325  0  0  0.103694  0  1.01244  0  0  0.106123  0  1.012228  0  0  0.098097  0.101978  0  1.012519  0
H  H3  1  0.51728195  0.76170484  0.95166405  1  0  0.083446  0  0.976635  0  0  0.089971  0  1.044273  0  0  0.092858  0  1.042337  0  0  0.090316  0.087669  0  1.046211  0
H  H4  1  0.48271743  0.23829409  0.04833631  1  0  0.083443  0  0.976634  0  0  0.089965  0  1.044274  0  0  0.092861  0  1.042329  0  0  0.090315  0.087661  0  1.04621  0
H  H5  1  0.40105062  0.72332310  0.18312523  1  0  0.09575  0  0.964701  0  0  0.105294  0  1.029419  0  0  0.107665  0  1.029278  0  0  0.097516  0.103607  0  1.029555  0
H  H6  1  0.59894952  0.27667698  0.81687391  1  0  0.095756  0  0.964688  0  0  0.1053  0  1.029395  0  0  0.107672  0  1.029253  0  0  0.097514  0.103614  0  1.029529  0
H  H7  1  0.84137531  0.08898243  0.99482193  1  0  0.114546  0  0.96724  0  0  0.119871  0  1.036641  0  0  0.123257  0  1.034346  0  0  0.116337  0.117147  0  1.038796  0
H  H8  1  0.15862530  0.91101649  0.00517807  1  0  0.114535  0  0.967258  0  0  0.119863  0  1.036656  0  0  0.123249  0  1.034359  0  0  0.116334  0.117138  0  1.038814  0
H  H9  1  0.84948760  0.30322661  0.14806069  1  0  0.090875  0  0.969987  0  0  0.098235  0  1.04078  0  0  0.100732  0  1.040624  0  0  0.095847  0.096473  0  1.040922  0
H  H10  1  0.15051179  0.69677231  0.85194055  1  0  0.090895  0  0.969982  0  0  0.098253  0  1.040778  0  0  0.100751  0  1.040622  0  0  0.095861  0.096492  0  1.040915  0
H  H11  1  0.09018729  0.36130806  0.81936646  1  0  0.078387  0  0.951609  0  0  0.088147  0  1.027361  0  0  0.088807  0  1.027407  0  0  0.109196  0.087731  0  1.027367  0
H  H12  1  0.90981162  0.63869203  0.18063390  1  0  0.078459  0  0.951488  0  0  0.088159  0  1.027302  0  0  0.08882  0  1.027347  0  0  0.109208  0.087738  0  1.02731  0
H  H13  1  0.08872379  0.23767970  0.95183907  1  0  0.085627  0  0.912257  0  0  0.101481  0  0.972174  0  0  0.102539  0  0.97132  0  0  0.11104  0.100798  0  0.972898  0
H  H14  1  0.91127512  0.76232039  0.04816042  1  0  0.085613  0  0.912236  0  0  0.101474  0  0.972147  0  0  0.10253  0  0.971294  0  0  0.11104  0.100792  0  0.97287  0
H  H15  1  0.00382047  0.37566777  0.46201110  1  0  0.102639  0  0.97438  0  0  0.112262  0  1.035705  0  0  0.11488  0  1.034316  0  0  0.112975  0.11039  0  1.0366  0
H  H16  1  0.99618042  0.62433348  0.53798858  1  0  0.102643  0  0.974383  0  0  0.112265  0  1.035709  0  0  0.114884  0  1.03432  0  0  0.112975  0.1104  0  1.036593  0
H  H17  1  0.67475933  0.18057043  0.40572459  1  0  0.103729  0  0.951548  0  0  0.107302  0  1.024094  0  0  0.110123  0  1.020412  0  0  0.129958  0.104771  0  1.027539  0
H  H18  1  0.32524081  0.81942966  0.59427631  1  0  0.103755  0  0.951507  0  0  0.107323  0  1.024062  0  0  0.110144  0  1.02038  0  0  0.129957  0.104795  0  1.027501  0
H  H19  1  0.44957769  0.59771808  0.36891122  1  0  0.092548  0  0.93398  0  0  0.105491  0  0.99809  0  0  0.106206  0  0.998247  0  0  0.113602  0.104596  0  0.998662  0
H  H20  1  0.55042245  0.40228201  0.63108791  1  0  0.092483  0  0.934057  0  0  0.10545  0  0.998133  0  0  0.106163  0  0.998292  0  0  0.11359  0.104558  0  0.998703  0
H  H21  1  0.46381465  0.40835539  0.34079184  1  0  0.106088  0  0.939287  0  0  0.119739  0  1.00414  0  0  0.12144  0  1.002473  0  0  0.11568  0.118134  0  1.005951  0
H  H22  1  0.53618549  0.59164469  0.65920817  1  0  0.106093  0  0.939283  0  0  0.119738  0  1.004144  0  0  0.121439  0  1.002477  0  0  0.115675  0.118136  0  1.005952  0
H  H23  1  0.74656818  0.60868615  0.38601491  1  0  0.122206  0  0.966927  0  0  0.131114  0  1.02977  0  0  0.134011  0  1.027505  0  0  0.119321  0.128578  0  1.032427  0
H  H24  1  0.25343149  0.39131511  0.61398599  1  0  0.122175  0  0.96692  0  0  0.131081  0  1.029772  0  0  0.133979  0  1.027507  0  0  0.119305  0.12854  0  1.032438  0
H  H25  1  0.09226707  0.24406428  0.63318107  1  0  0.094422  0  0.961412  0  0  0.101272  0  1.032871  0  0  0.104299  0  1.02865  0  0  0.13039  0.098973  0  1.036036  0
H  H26  1  0.90773260  0.75593697  0.36681807  1  0  0.094426  0  0.961414  0  0  0.101274  0  1.032878  0  0  0.1043  0  1.028657  0  0  0.130384  0.098972  0  1.036042  0
H  H27  1  0.83145141  0.93222158  0.80611598  1  0  0.106459  0  0.9495  0  0  0.116015  0  1.008577  0  0  0.118493  0  1.007472  0  0  0.114895  0.114019  0  1.009687  0
H  H28  1  0.16854825  0.06777967  0.19388317  1  0  0.106463  0  0.949462  0  0  0.116017  0  1.008543  0  0  0.118496  0  1.007437  0  0  0.114902  0.114025  0  1.009656  0
C  C29  1  0.52693905  0.01738467  0.26931038  1  0  0.670267  0  3.604005  0  0  0.59947  0  3.947719  0  0  0.627267  0  3.919971  0  0  0.294453  0.578694  0  3.968981  0
C  C30  1  0.47306062  0.98261658  0.73068965  1  0  0.670351  0  3.603736  0  0  0.599541  0  3.947474  0  0  0.627352  0  3.9197  0  0  0.294492  0.578766  0  3.968734  0
C  C31  1  0.89238897  0.09552398  0.89246052  1  0  -0.077738  0  3.68595  0  0  -0.119039  0  3.952926  0  0  -0.117907  0  3.971172  0  0  -0.006417  -0.119624  0  3.940826  0
C  C32  1  0.10761239  0.90447611  0.10753914  1  0  -0.077761  0  3.685958  0  0  -0.119065  0  3.952933  0  0  -0.117931  0  3.97118  0  0  -0.006437  -0.119654  0  3.940845  0
C  C33  1  0.77545364  0.40379896  0.10507687  1  0  -0.168833  0  3.725512  0  0  -0.197479  0  3.968961  0  0  -0.201157  0  3.991231  0  0  -0.09774  -0.194955  0  3.953948  0
C  C34  1  0.22454744  0.59619880  0.89492224  1  0  -0.168832  0  3.72546  0  0  -0.197462  0  3.968918  0  0  -0.20114  0  3.991187  0  0  -0.097709  -0.194939  0  3.953903  0
C  C35  1  0.89749442  0.36973058  0.43894193  1  0  -0.006084  0  3.754058  0  0  -0.036178  0  4.01655  0  0  -0.034903  0  4.036674  0  0  -0.006956  -0.03677  0  4.002699  0
C  C36  1  0.10250525  0.63027067  0.56105810  1  0  -0.006091  0  3.754044  0  0  -0.036181  0  4.016535  0  0  -0.034907  0  4.036659  0  0  -0.006957  -0.036779  0  4.002671  0
C  C37  1  0.73315123  0.26245979  0.41015061  1  0  0.161288  0  3.643598  0  0  0.098774  0  3.91762  0  0  0.112808  0  3.928258  0  0  0.137852  0.089494  0  3.911256  0
C  C38  1  0.26684938  0.73753913  0.58984851  1  0  0.161231  0  3.643668  0  0  0.098724  0  3.917686  0  0  0.112757  0  3.928323  0  0  0.137832  0.089438  0  3.911315  0
C  C39  1  0.88782186  0.02003536  0.79829929  1  0  0.003224  0  3.75595  0  0  -0.031354  0  4.027675  0  0  -0.028963  0  4.046141  0  0  -0.004647  -0.032634  0  4.014876  0
C  C40  1  0.11217875  0.97996356  0.20170072  1  0  0.003268  0  3.755895  0  0  -0.031311  0  4.02762  0  0  -0.02892  0  4.046087  0  0  -0.004625  -0.03259  0  4.014827  0
C  C41  1  0.53909313  0.48561306  0.32148650  1  0  -0.055664  0  3.6436  0  0  -0.122402  0  3.887896  0  0  -0.118375  0  3.898499  0  0  -0.049188  -0.124801  0  3.880831  0
C  C42  1  0.46090531  0.51438819  0.67851300  1  0  -0.055611  0  3.643658  0  0  -0.122339  0  3.887933  0  0  -0.11831  0  3.898535  0  0  -0.04913  -0.12475  0  3.880886  0
C  C43  1  0.61599927  0.50979533  0.18088899  1  0  0.075914  0  3.758977  0  0  0.099436  0  3.995486  0  0  0.098863  0  4.019714  0  0  -0.014405  0.099866  0  3.978968  0
C  C44  1  0.38399918  0.49020592  0.81911139  1  0  0.075904  0  3.759013  0  0  0.099385  0  3.995575  0  0  0.098811  0  4.019802  0  0  -0.014466  0.099816  0  3.979058  0
C  C45  1  0.01914507  0.18232909  0.70515071  1  0  0.161767  0  3.654494  0  0  0.099009  0  3.924937  0  0  0.112578  0  3.936709  0  0  0.137313  0.090218  0  3.91699  0
C  C46  1  0.98085554  0.81766983  0.29484930  1  0  0.161735  0  3.654527  0  0  0.098973  0  3.924969  0  0  0.112542  0  3.936743  0  0  0.1373  0.090189  0  3.917012  0
C  C47  1  0.84228603  0.42508787  0.97449667  1  0  0.06794  0  3.779227  0  0  0.093  0  4.014696  0  0  0.091912  0  4.040257  0  0  -0.017248  0.093763  0  3.997384  0
C  C48  1  0.15771505  0.57490989  0.02550332  1  0  0.067927  0  3.779211  0  0  0.092993  0  4.014669  0  0  0.091905  0  4.040229  0  0  -0.01727  0.093759  0  3.997358  0
C  C49  1  0.01032413  0.30560527  0.89408553  1  0  -0.034139  0  3.65969  0  0  -0.105764  0  3.915066  0  0  -0.100547  0  3.924499  0  0  -0.047904  -0.109457  0  3.908851  0
C  C50  1  0.98967554  0.69439598  0.10591449  1  0  -0.034146  0  3.659505  0  0  -0.10574  0  3.914924  0  0  -0.100523  0  3.924357  0  0  -0.047901  -0.109434  0  3.908708  0
C  C51  1  0.52399295  0.63856048  0.12453430  1  0  -0.111463  0  3.732324  0  0  -0.135957  0  3.980952  0  0  -0.138688  0  4.002985  0  0  -0.091977  -0.133971  0  3.965877  0
C  C52  1  0.47600596  0.36143961  0.87546607  1  0  -0.111471  0  3.732312  0  0  -0.13595  0  3.980948  0  0  -0.138681  0  4.002983  0  0  -0.091955  -0.133961  0  3.965866  0
C  C53  1  0.77645887  0.48453152  0.39666216  1  0  -0.076757  0  3.67856  0  0  -0.118901  0  3.943888  0  0  -0.117461  0  3.962633  0  0  -0.00494  -0.120027  0  3.931877  0
C  C54  1  0.22354080  0.51546973  0.60333698  1  0  -0.076731  0  3.678505  0  0  -0.118875  0  3.943835  0  0  -0.117441  0  3.962586  0  0  -0.004939  -0.120002  0  3.931827  0
C  C55  1  0.74869081  0.55437984  0.91880104  1  0  -0.12348  0  3.745523  0  0  -0.145263  0  3.988573  0  0  -0.148505  0  4.011233  0  0  -0.096471  -0.142828  0  3.973089  0
C  C56  1  0.25130689  0.44562024  0.08119968  1  0  -0.123547  0  3.745539  0  0  -0.145328  0  3.988582  0  0  -0.148571  0  4.011245  0  0  -0.096483  -0.142899  0  3.973101  0
C  C57  1  0.59003767  0.66049935  0.99410535  1  0  -0.053995  0  3.78851  0  0  -0.066139  0  4.0412  0  0  -0.067861  0  4.06363  0  0  -0.093996  -0.065239  0  4.02648  0
C  C58  1  0.40996247  0.33950074  0.00589467  1  0  -0.053989  0  3.788456  0  0  -0.066125  0  4.041141  0  0  -0.067856  0  4.063569  0  0  -0.094008  -0.065219  0  4.026417  0
C  C59  1  0.34983105  0.10008388  0.37827034  1  0  0.494523  0  4.060735  0  0  0.447085  0  4.36355  0  0  0.476371  0  4.357169  0  0  0.189035  0.427202  0  4.367496  0
C  C60  1  0.65016740  0.89991737  0.62173004  1  0  0.494535  0  4.060632  0  0  0.44709  0  4.363471  0  0  0.476376  0  4.357081  0  0  0.189036  0.427214  0  4.367408  0
N  N61  1  0.97674896  0.19787315  0.83173987  1  0  -0.068524  0  3.574404  0  0  0.025023  0  3.795836  0  0  0.010187  0  3.822175  0  0  -0.245965  0.034777  0  3.778109  0
N  N62  1  0.02325071  0.80212810  0.16826015  1  0  -0.068533  0  3.574372  0  0  0.025026  0  3.795785  0  0  0.010189  0  3.822125  0  0  -0.245977  0.034778  0  3.778056  0
N  N63  1  0.67347555  0.41445013  0.37859512  1  0  -0.06039  0  3.592893  0  0  0.032793  0  3.812904  0  0  0.018264  0  3.83928  0  0  -0.247769  0.0425  0  3.794581  0
N  N64  1  0.32652459  0.58554996  0.62140577  1  0  -0.060347  0  3.592879  0  0  0.032832  0  3.812899  0  0  0.018303  0  3.839275  0  0  -0.24776  0.042535  0  3.79458  0
N  N65  1  0.96689285  0.07553931  0.68207897  1  0  -0.366366  0  3.278657  0  0  -0.29479  0  3.562991  0  0  -0.313199  0  3.579019  0  0  -0.345981  -0.282302  0  3.551886  0
N  N66  1  0.03310484  0.92446077  0.31792087  1  0  -0.366358  0  3.278633  0  0  -0.294774  0  3.562958  0  0  -0.313185  0  3.578987  0  0  -0.345958  -0.282289  0  3.551851  0
N  N67  1  0.86874752  0.23183790  0.44713864  1  0  -0.366568  0  3.269053  0  0  -0.293955  0  3.549146  0  0  -0.312339  0  3.565119  0  0  -0.345647  -0.281558  0  3.538497  0
N  N68  1  0.13125215  0.76816335  0.55286139  1  0  -0.366557  0  3.269131  0  0  -0.29395  0  3.54922  0  0  -0.312334  0  3.565192  0  0  -0.345639  -0.281543  0  3.538553  0
O  O69  1  0.32413300  0.23008741  0.41676092  1  0  -0.561105  0  1.959143  0  0  -0.53772  0  2.183864  0  0  -0.55756  0  2.176433  0  0  -0.324784  -0.523747  0  2.189023  0
O  O70  1  0.67586836  0.76991268  0.58323874  1  0  -0.561099  0  1.959176  0  0  -0.537701  0  2.183895  0  0  -0.557543  0  2.176462  0  0  -0.324767  -0.523733  0  2.189049  0
O  O71  1  0.25697621  0.01621386  0.41136678  1  0  -0.585098  0  2.126883  0  0  -0.541886  0  2.397608  0  0  -0.566361  0  2.387665  0  0  -0.318956  -0.524525  0  2.404342  0
O  O72  1  0.74302346  0.98378740  0.58863325  1  0  -0.585147  0  2.126794  0  0  -0.541936  0  2.397524  0  0  -0.56641  0  2.387578  0  0  -0.318977  -0.524579  0  2.404259  0
F  F73  1  0.64169641  0.09512278  0.23313594  1  0  -0.262568  0  1.18966  0  0  -0.220745  0  1.359445  0  0  -0.231541  0  1.345772  0  0  -0.100022  -0.210243  0  1.366013  0
F  F74  1  0.35830298  0.90487615  0.76686617  1  0  -0.262588  0  1.189557  0  0  -0.220739  0  1.35932  0  0  -0.23154  0  1.345642  0  0  -0.100019  -0.210245  0  1.365895  0
F  F75  1  0.61310568  0.87164276  0.30433671  1  0  -0.257498  0  1.188016  0  0  -0.212079  0  1.355002  0  0  -0.221776  0  1.340072  0  0  -0.100227  -0.205417  0  1.366241  0
F  F76  1  0.38689324  0.12835732  0.69566366  1  0  -0.257483  0  1.187962  0  0  -0.212083  0  1.354971  0  0  -0.221782  0  1.340035  0  0  -0.100227  -0.20542  0  1.366214  0
F  F77  1  0.50017101  0.99918491  0.16186693  1  0  -0.256199  0  1.165254  0  0  -0.212552  0  1.324285  0  0  -0.221715  0  1.308818  0  0  -0.100512  -0.20613  0  1.335672  0
F  F78  1  0.49982866  0.00081634  0.83813397  1  0  -0.256243  0  1.165198  0  0  -0.212594  0  1.324238  0  0  -0.221762  0  1.308766  0  0  -0.100544  -0.206172  0  1.335625  0
