# generated using pymatgen
data_LiMoH25C21S(N3O4)2
_symmetry_space_group_name_H-M   'P 1'
_cell_length_a   10.44763483
_cell_length_b   10.75919951
_cell_length_c   11.68500000
_cell_angle_alpha   90.15650493
_cell_angle_beta   99.51960570
_cell_angle_gamma   94.36957938
_symmetry_Int_Tables_number   1
_chemical_formula_structural   LiMoH25C21S(N3O4)2
_chemical_formula_sum   'Li2 Mo2 H50 C42 S2 N12 O16'
_cell_volume   1291.47940161
_cell_formula_units_Z   2
loop_
 _symmetry_equiv_pos_site_id
 _symmetry_equiv_pos_as_xyz
  1  'x, y, z'
loop_
 _atom_site_type_symbol
 _atom_site_label
 _atom_site_symmetry_multiplicity
 _atom_site_fract_x
 _atom_site_fract_y
 _atom_site_fract_z
 _atom_site_occupancy
 _atom_site_hle17_bader_spin_density
 _atom_site_hle17_ddec_charge
 _atom_site_hle17_ddec_spin_density
 _atom_site_hle17_ddec_sum_bond_order
 _atom_site_hle17_magmom
 _atom_site_hse06_10hf_bader_spin_density
 _atom_site_hse06_10hf_ddec_charge
 _atom_site_hse06_10hf_ddec_spin_density
 _atom_site_hse06_10hf_ddec_sum_bond_order
 _atom_site_hse06_10hf_magmom
 _atom_site_hse06_bader_spin_density
 _atom_site_hse06_ddec_charge
 _atom_site_hse06_ddec_spin_density
 _atom_site_hse06_ddec_sum_bond_order
 _atom_site_hse06_magmom
 _atom_site_pbe_bader_charge
 _atom_site_pbe_bader_spin_density
 _atom_site_pbe_cm5_charge
 _atom_site_pbe_ddec_charge
 _atom_site_pbe_ddec_spin_density
 _atom_site_pbe_ddec_sum_bond_order
 _atom_site_pbe_magmom
Li  Li0  1  0.88783150  0.21124357  0.63107978  1  0  0.8318  0  0.445721  0  0  0.786187  0  0.559557  0  0  0.795937  0  0.542712  0  0.863368  0  0.543816  0.779025  0  0.571557  0
Li  Li1  1  0.11216773  0.78875529  0.36891942  1  0  0.831797  0  0.445724  0  0  0.786185  0  0.559555  0  0  0.795935  0  0.54271  0  0.863368  0  0.543818  0.779022  0  0.571555  0
Mo  Mo2  1  0.70242359  0.55937926  0.81409032  1  0  0.32744  0  5.175264  0  0  0.278799  0  5.786941  0  0  0.249033  0  5.841764  0  1.429455  0  0.839575  0.299365  0  5.747929  0
Mo  Mo3  1  0.29757668  0.44062053  0.18590904  1  0  0.327392  0  5.175433  0  0  0.27877  0  5.787103  0  0  0.249002  0  5.841921  0  1.429413  0  0.839588  0.299329  0  5.748091  0
H  H4  1  0.01991289  0.64446663  0.92936820  1  0  0.11105  0  0.964899  0  0  0.118581  0  1.027744  0  0  0.121217  0  1.025098  0  0.147573  0  0.128061  0.116561  0  1.029813  0
H  H5  1  0.98008843  0.35553410  0.07063132  1  0  0.111064  0  0.96488  0  0  0.118593  0  1.027725  0  0  0.121229  0  1.025079  0  0.147561  0  0.128064  0.116574  0  1.029791  0
H  H6  1  0.92562622  0.02267815  0.84721012  1  0  0.122092  0  0.970452  0  0  0.12973  0  1.033472  0  0  0.133033  0  1.029989  0  0.171784  0  0.135518  0.127297  0  1.035955  0
H  H7  1  0.07437315  0.97732257  0.15278910  1  0  0.12206  0  0.97052  0  0  0.1297  0  1.033536  0  0  0.133002  0  1.030054  0  0.171788  0  0.135503  0.127267  0  1.036015  0
H  H8  1  0.12444882  0.88751145  0.95134070  1  0  0.138496  0  0.959783  0  0  0.14866  0  1.015618  0  0  0.15196  0  1.014945  0  0.126094  0  0.115191  0.146179  0  1.016589  0
H  H9  1  0.87555153  0.11248928  0.04865953  1  0  0.138514  0  0.95979  0  0  0.148682  0  1.015618  0  0  0.151981  0  1.014946  0  0.126117  0  0.115203  0.1462  0  1.016589  0
H  H10  1  0.61675592  0.53901218  0.51752701  1  0  0.099803  0  0.94269  0  0  0.111565  0  1.002979  0  0  0.113377  0  1.001371  0  0.118844  0  0.126483  0.110179  0  1.004205  0
H  H11  1  0.38324338  0.46098762  0.48247306  1  0  0.099803  0  0.942681  0  0  0.111564  0  1.002971  0  0  0.113377  0  1.001364  0  0.118885  0  0.126476  0.110177  0  1.004198  0
H  H12  1  0.61434549  0.94111453  0.52907193  1  0  0.127549  0  0.959359  0  0  0.137893  0  1.01756  0  0  0.141065  0  1.013935  0  0.182777  0  0.134449  0.135501  0  1.020267  0
H  H13  1  0.38565471  0.05888433  0.47092826  1  0  0.12757  0  0.959318  0  0  0.13789  0  1.017541  0  0  0.141063  0  1.013918  0  0.182755  0  0.13444  0.135497  0  1.02025  0
H  H14  1  0.56936721  0.74301303  0.37742716  1  0  0.143466  0  0.989182  0  0  0.149397  0  1.049798  0  0  0.15324  0  1.04866  0  0.1651  0  0.113917  0.146584  0  1.050727  0
H  H15  1  0.43063202  0.25698584  0.62257375  1  0  0.143462  0  0.989175  0  0  0.149389  0  1.049795  0  0  0.153234  0  1.048657  0  0.165097  0  0.113905  0.146576  0  1.050726  0
H  H16  1  0.46701326  0.60744472  0.97643615  1  0  0.10157  0  0.955063  0  0  0.111267  0  1.018824  0  0  0.112692  0  1.017535  0  0.129207  0  0.126432  0.110155  0  1.019795  0
H  H17  1  0.53298604  0.39255508  0.02356391  1  0  0.101606  0  0.955015  0  0  0.111285  0  1.018791  0  0  0.112694  0  1.017521  0  0.129202  0  0.126443  0.110172  0  1.019764  0
H  H18  1  0.50537446  0.99292394  0.87371151  1  0  0.118984  0  0.978728  0  0  0.127733  0  1.04124  0  0  0.130388  0  1.038845  0  0.158896  0  0.130335  0.125823  0  1.042828  0
H  H19  1  0.49462387  0.00707585  0.12628841  1  0  0.118996  0  0.978714  0  0  0.127749  0  1.04122  0  0  0.130404  0  1.038825  0  0.158898  0  0.130341  0.125838  0  1.042809  0
H  H20  1  0.37035225  0.83419364  0.00343359  1  0  0.148304  0  0.973025  0  0  0.158136  0  1.026861  0  0  0.161736  0  1.025782  0  0.160687  0  0.114839  0.155507  0  1.028011  0
H  H21  1  0.62964706  0.16580616  0.99656477  1  0  0.148274  0  0.973037  0  0  0.15811  0  1.026877  0  0  0.16171  0  1.025799  0  0.160685  0  0.114825  0.155479  0  1.028028  0
H  H22  1  0.97650577  0.24050814  0.33523030  1  0  0.044836  0  0.93452  0  0  0.058246  0  1.001427  0  0  0.058296  0  1.0021  0  0.044075  0  0.092738  0.058104  0  1.001145  0
H  H23  1  0.02349457  0.75949258  0.66476907  1  0  0.044827  0  0.93454  0  0  0.058237  0  1.001444  0  0  0.058264  0  1.00214  0  0.044084  0  0.092727  0.058094  0  1.001163  0
H  H24  1  0.04014417  0.31868373  0.47061106  1  0  0.055986  0  0.931835  0  0  0.06871  0  0.998233  0  0  0.069462  0  0.997038  0  0.052974  0  0.109191  0.067911  0  0.999638  0
H  H25  1  0.95985610  0.68131606  0.52938830  1  0  0.055986  0  0.931826  0  0  0.068702  0  0.99823  0  0  0.069455  0  0.997029  0  0.053244  0  0.109192  0.067903  0  0.999636  0
H  H26  1  0.88675806  0.48034506  0.42898169  1  0  0.069146  0  0.937666  0  0  0.08866  0  0.995889  0  0  0.089322  0  0.99648  0  0.021091  0  0.094656  0.088216  0  0.995415  0
H  H27  1  0.11324318  0.51965473  0.57101952  1  0  0.069138  0  0.937679  0  0  0.088649  0  0.995909  0  0  0.089311  0  0.9965  0  0.02124  0  0.094647  0.088204  0  0.995435  0
H  H28  1  0.92385217  0.45412712  0.28760760  1  0  0.092734  0  0.940047  0  0  0.11095  0  1.000132  0  0  0.111668  0  1.000863  0  0.073681  0  0.102275  0.110353  0  0.999762  0
H  H29  1  0.07614915  0.54587361  0.71239362  1  0  0.092751  0  0.940041  0  0  0.110962  0  1.000125  0  0  0.11168  0  1.000856  0  0.073689  0  0.102289  0.110365  0  0.999756  0
H  H30  1  0.73325840  0.31122472  0.23380242  1  0  0.075508  0  0.957632  0  0  0.089877  0  1.024044  0  0  0.090194  0  1.025668  0  0.017883  0  0.089019  0.089415  0  1.023397  0
H  H31  1  0.26674203  0.68877694  0.76619782  1  0  0.075489  0  0.957637  0  0  0.08986  0  1.024046  0  0  0.090179  0  1.025671  0  0.017907  0  0.089005  0.089399  0  1.023399  0
H  H32  1  0.66932508  0.42107384  0.31729229  1  0  0.08145  0  0.939191  0  0  0.100069  0  0.99786  0  0  0.100374  0  0.99883  0  0.051821  0  0.094705  0.099738  0  0.997333  0
H  H33  1  0.33067631  0.57892782  0.68270809  1  0  0.081459  0  0.939192  0  0  0.100084  0  0.997852  0  0  0.100388  0  0.998824  0  0.051903  0  0.094721  0.099752  0  0.997326  0
H  H34  1  0.67779447  0.28349279  0.48097570  1  0  0.043701  0  0.93847  0  0  0.055176  0  1.007735  0  0  0.055295  0  1.008003  0  0.04152  0  0.10115  0.054866  0  1.007933  0
H  H35  1  0.32220685  0.71650794  0.51902381  1  0  0.043714  0  0.938496  0  0  0.055171  0  1.007772  0  0  0.05529  0  1.008038  0  0.041506  0  0.101147  0.054863  0  1.007962  0
H  H36  1  0.67489504  0.16529714  0.37289153  1  0  0.05662  0  0.922616  0  0  0.073095  0  0.981656  0  0  0.073283  0  0.981809  0  0.045946  0  0.099937  0.072893  0  0.981689  0
H  H37  1  0.32510531  0.83470359  0.62710783  1  0  0.056646  0  0.922578  0  0  0.073122  0  0.981605  0  0  0.073308  0  0.981758  0  0.045943  0  0.099963  0.072889  0  0.981671  0
H  H38  1  0.09099134  0.30994939  0.82844343  1  0  0.062146  0  0.92897  0  0  0.076594  0  0.992082  0  0  0.07678  0  0.991826  0  0.073432  0  0.109483  0.076279  0  0.992582  0
H  H39  1  0.90900803  0.69005134  0.17155751  1  0  0.062161  0  0.928971  0  0  0.076609  0  0.992078  0  0  0.076797  0  0.991822  0  0.073388  0  0.109494  0.076294  0  0.992579  0
H  H40  1  0.22037943  0.32199792  0.74480215  1  0  0.055787  0  0.92864  0  0  0.070947  0  0.98998  0  0  0.071847  0  0.989175  0  0.043147  0  0.099715  0.070156  0  0.990816  0
H  H41  1  0.77961995  0.67800281  0.25519794  1  0  0.055783  0  0.928664  0  0  0.070928  0  0.990011  0  0  0.071826  0  0.989209  0  0.04315  0  0.099719  0.070137  0  0.990846  0
H  H42  1  0.16212133  0.11530657  0.91274415  1  0  0.064551  0  0.95108  0  0  0.081584  0  1.01454  0  0  0.081352  0  1.016594  0  0.012131  0  0.08485  0.081692  0  1.013123  0
H  H43  1  0.83787902  0.88469416  0.08725607  1  0  0.064525  0  0.95109  0  0  0.08157  0  1.014554  0  0  0.081333  0  1.016615  0  0.01211  0  0.084847  0.081678  0  1.013136  0
H  H44  1  0.31560151  0.19419907  0.90103379  1  0  0.084618  0  0.968214  0  0  0.0997  0  1.033997  0  0  0.099836  0  1.035932  0  0.082759  0  0.093091  0.099537  0  1.032642  0
H  H45  1  0.68439787  0.80580166  0.09896629  1  0  0.084552  0  0.968226  0  0  0.099669  0  1.033986  0  0  0.099806  0  1.035918  0  0.08277  0  0.093082  0.099505  0  1.032632  0
H  H46  1  0.33227850  0.08398170  0.72696846  1  0  0.084019  0  0.956118  0  0  0.101754  0  1.016178  0  0  0.102588  0  1.016839  0  0.086894  0  0.091996  0.101199  0  1.015526  0
H  H47  1  0.66772080  0.91601809  0.27303246  1  0  0.084067  0  0.956048  0  0  0.10181  0  1.016112  0  0  0.102645  0  1.016772  0  0.08689  0  0.092014  0.101272  0  1.015433  0
H  H48  1  0.23955281  0.96592663  0.78953589  1  0  0.068276  0  0.954826  0  0  0.085301  0  1.019643  0  0  0.085225  0  1.021687  0  0.012323  0  0.088922  0.085125  0  1.018693  0
H  H49  1  0.76044665  0.03407503  0.21046335  1  0  0.06827  0  0.954821  0  0  0.085292  0  1.019638  0  0  0.085216  0  1.021681  0  0.012304  0  0.088908  0.085114  0  1.018693  0
H  H50  1  0.15554025  0.08808551  0.57448816  1  0  0.049586  0  0.928073  0  0  0.062536  0  0.99248  0  0  0.063226  0  0.99168  0  0.061911  0  0.0992  0.061842  0  0.993395  0
H  H51  1  0.84445921  0.91191615  0.42551280  1  0  0.049556  0  0.928078  0  0  0.062517  0  0.992477  0  0  0.063206  0  0.991678  0  0.06189  0  0.099185  0.061821  0  0.993394  0
H  H52  1  0.04881307  0.99947866  0.65369165  1  0  0.048767  0  0.936809  0  0  0.059339  0  1.007124  0  0  0.060155  0  1.00594  0  0.037638  0  0.102406  0.058866  0  1.007678  0
H  H53  1  0.95118631  0.00052207  0.34630843  1  0  0.04877  0  0.936815  0  0  0.059332  0  1.007145  0  0  0.060148  0  1.005963  0  0.03763  0  0.102412  0.058859  0  1.007699  0
C  C54  1  0.75898934  0.48797747  0.96413487  1  0  0.020323  0  3.476501  0  0  -0.018468  0  3.832559  0  0  0.005538  0  3.846916  0  0.678876  0  -0.070396  -0.034228  0  3.821845  0
C  C55  1  0.24101288  0.51202232  0.03586563  1  0  0.020334  0  3.476516  0  0  -0.018446  0  3.832568  0  0  0.005555  0  3.846929  0  0.678845  0  -0.070405  -0.034207  0  3.821855  0
C  C56  1  0.55646015  0.43441728  0.79420326  1  0  0.007802  0  3.4887  0  0  -0.033796  0  3.854385  0  0  -0.010374  0  3.868883  0  0.673821  0  -0.075284  -0.04907  0  3.843349  0
C  C57  1  0.44353916  0.56558252  0.20579766  1  0  0.007846  0  3.488689  0  0  -0.033751  0  3.854376  0  0  -0.010334  0  3.868876  0  0.673841  0  -0.075289  -0.049028  0  3.84334  0
C  C58  1  0.79584808  0.43812021  0.74837469  1  0  0.020426  0  3.499843  0  0  -0.019131  0  3.86484  0  0  0.003143  0  3.880179  0  0.608639  0  -0.082226  -0.033727  0  3.853443  0
C  C59  1  0.20415324  0.56188052  0.25162568  1  0  0.02038  0  3.49991  0  0  -0.019177  0  3.864896  0  0  0.003102  0  3.880227  0  0.608652  0  -0.082254  -0.03377  0  3.853497  0
C  C60  1  0.69064427  0.86627364  0.76624231  1  0  0.187608  0  3.526125  0  0  0.136088  0  3.797237  0  0  0.147427  0  3.809148  0  0.95041  0  0.301625  0.128016  0  3.790111  0
C  C61  1  0.30935510  0.13372709  0.23375862  1  0  0.187585  0  3.526022  0  0  0.136066  0  3.797149  0  0  0.14741  0  3.809057  0  0.950408  0  0.301604  0.127991  0  3.790029  0
C  C62  1  0.97445419  0.72889954  0.90126782  1  0  0.073852  0  3.682737  0  0  0.032393  0  3.955291  0  0  0.042658  0  3.965084  0  0.454628  0  0.034945  0.025699  0  3.948839  0
C  C63  1  0.02554608  0.27110025  0.09873325  1  0  0.073795  0  3.682768  0  0  0.032343  0  3.955323  0  0  0.042605  0  3.965115  0  0.454262  0  0.03491  0.025648  0  3.948873  0
C  C64  1  0.92880367  0.92338015  0.85873866  1  0  0.020963  0  3.659133  0  0  -0.034481  0  3.935956  0  0  -0.023441  0  3.947378  0  0.284684  0  0.024556  -0.041525  0  3.927905  0
C  C65  1  0.07119563  0.07661965  0.14126140  1  0  0.020993  0  3.6592  0  0  -0.034447  0  3.936038  0  0  -0.023406  0  3.947461  0  0.284656  0  0.024569  -0.041489  0  3.927983  0
C  C66  1  0.02741499  0.85332548  0.91040208  1  0  -0.198811  0  3.75974  0  0  -0.212092  0  4.023254  0  0  -0.22134  0  4.041515  0  0.002326  0  -0.107231  -0.206238  0  4.011404  0
C  C67  1  0.97258625  0.14667432  0.08959742  1  0  -0.198821  0  3.759699  0  0  -0.212105  0  4.02322  0  0  -0.221352  0  4.04148  0  0.002325  0  -0.107226  -0.20625  0  4.01137  0
C  C68  1  0.62254271  0.63717542  0.54094967  1  0  0.05446  0  3.710403  0  0  0.014085  0  3.983005  0  0  0.023521  0  3.994742  0  0.388397  0  0.027794  0.0079  0  3.975638  0
C  C69  1  0.37745749  0.36282344  0.45905053  1  0  0.054402  0  3.710485  0  0  0.014018  0  3.983097  0  0  0.023453  0  3.994834  0  0.388399  0  0.027758  0.007833  0  3.97573  0
C  C70  1  0.62158670  0.84306782  0.54551956  1  0  0.039374  0  3.632735  0  0  -0.016865  0  3.901819  0  0  -0.00549  0  3.912645  0  0.264914  0  0.025811  -0.024354  0  3.894942  0
C  C71  1  0.37841357  0.15693197  0.45448151  1  0  0.039351  0  3.632667  0  0  -0.016846  0  3.901724  0  0  -0.005474  0  3.912548  0  0.264918  0  0.025855  -0.024338  0  3.894853  0
C  C72  1  0.59954274  0.74147200  0.47055377  1  0  -0.195186  0  3.763077  0  0  -0.210206  0  4.027012  0  0  -0.219539  0  4.045558  0  0.065279  0  -0.108992  -0.204257  0  4.015262  0
C  C73  1  0.40045656  0.25852780  0.52944544  1  0  -0.195078  0  3.763178  0  0  -0.210096  0  4.027086  0  0  -0.21943  0  4.045635  0  0.065281  0  -0.108916  -0.204149  0  4.015336  0
C  C74  1  0.49371822  0.69654919  0.94066737  1  0  0.090428  0  3.686609  0  0  0.04675  0  3.96118  0  0  0.057831  0  3.97089  0  0.459401  0  0.039627  0.03945  0  3.954808  0
C  C75  1  0.50628101  0.30344967  0.05933269  1  0  0.090347  0  3.686643  0  0  0.046688  0  3.96125  0  0  0.057782  0  3.970964  0  0.459429  0  0.039611  0.039388  0  3.954875  0
C  C76  1  0.51167026  0.89454069  0.88911733  1  0  0.023095  0  3.652749  0  0  -0.029885  0  3.921399  0  0  -0.019108  0  3.933638  0  0.24314  0  0.023876  -0.036739  0  3.912994  0
C  C77  1  0.48832808  0.10545911  0.11088174  1  0  0.023089  0  3.652691  0  0  -0.029909  0  3.921356  0  0  -0.019131  0  3.933595  0  0.24314  0  0.023875  -0.036764  0  3.912953  0
C  C78  1  0.44383671  0.81272090  0.95250689  1  0  -0.20128  0  3.747913  0  0  -0.215578  0  4.010326  0  0  -0.22479  0  4.027737  0  0.069564  0  -0.10817  -0.209784  0  3.999097  0
C  C79  1  0.55616356  0.18727890  0.04749333  1  0  -0.201255  0  3.747833  0  0  -0.215541  0  4.01023  0  0  -0.224754  0  4.027637  0  0.069563  0  -0.108173  -0.209748  0  3.999004  0
C  C80  1  0.95199682  0.29743287  0.40613011  1  0  0.104307  0  3.604055  0  0  0.04768  0  3.880788  0  0  0.054808  0  3.886106  0  0.374031  0  -0.065366  0.043014  0  3.877065  0
C  C81  1  0.04800346  0.70256693  0.59386924  1  0  0.104319  0  3.604052  0  0  0.047704  0  3.880763  0  0  0.054848  0  3.886082  0  0.373755  0  -0.065341  0.043037  0  3.877041  0
C  C82  1  0.88242332  0.41038548  0.35928841  1  0  -0.150144  0  3.681091  0  0  -0.191481  0  3.941125  0  0  -0.193605  0  3.954696  0  -0.018903  0  -0.164371  -0.189636  0  3.931252  0
C  C83  1  0.11757703  0.58961525  0.64071096  1  0  -0.150134  0  3.6811  0  0  -0.191469  0  3.941104  0  0  -0.193593  0  3.954672  0  -0.019042  0  -0.164377  -0.189623  0  3.931232  0
C  C84  1  0.74276186  0.35285945  0.32092219  1  0  -0.145752  0  3.663998  0  0  -0.184903  0  3.921063  0  0  -0.186974  0  3.935233  0  -0.013794  0  -0.167988  -0.183327  0  3.911259  0
C  C85  1  0.25723760  0.64714221  0.67907876  1  0  -0.145725  0  3.664005  0  0  -0.184867  0  3.921032  0  0  -0.186944  0  3.935205  0  -0.013897  0  -0.167978  -0.183287  0  3.911215  0
C  C86  1  0.72716836  0.25218936  0.41104950  1  0  0.099725  0  3.573328  0  0  0.045744  0  3.843019  0  0  0.052672  0  3.848907  0  0.366123  0  -0.068441  0.041131  0  3.838973  0
C  C87  1  0.27283191  0.74781043  0.58894985  1  0  0.099617  0  3.57336  0  0  0.045635  0  3.843069  0  0  0.052572  0  3.848947  0  0.366127  0  -0.068493  0.041045  0  3.839017  0
C  C88  1  0.15176175  0.25688702  0.78125428  1  0  0.104763  0  3.593585  0  0  0.048764  0  3.863953  0  0  0.055913  0  3.868885  0  0.386026  0  -0.065485  0.043848  0  3.860924  0
C  C89  1  0.84823859  0.74311371  0.21874595  1  0  0.104743  0  3.593597  0  0  0.048766  0  3.863974  0  0  0.055917  0  3.868902  0  0.386017  0  -0.065493  0.043849  0  3.860945  0
C  C90  1  0.22227040  0.15661874  0.85169535  1  0  -0.140666  0  3.657945  0  0  -0.179616  0  3.914609  0  0  -0.181387  0  3.928468  0  -0.033297  0  -0.170778  -0.178055  0  3.904858  0
C  C91  1  0.77773092  0.84338199  0.14830502  1  0  -0.140541  0  3.657898  0  0  -0.179546  0  3.914604  0  0  -0.181314  0  3.928464  0  -0.033213  0  -0.170745  -0.177987  0  3.904856  0
C  C92  1  0.23964745  0.06175010  0.75765833  1  0  -0.149798  0  3.647211  0  0  -0.188161  0  3.900756  0  0  -0.190856  0  3.915197  0  -0.044696  0  -0.169008  -0.186226  0  3.890672  0
C  C93  1  0.76035192  0.93825063  0.24234261  1  0  -0.149858  0  3.647161  0  0  -0.188218  0  3.900738  0  0  -0.190914  0  3.91518  0  -0.044682  0  -0.169017  -0.186292  0  3.890642  0
C  C94  1  0.12461312  0.07699162  0.65969701  1  0  0.107194  0  3.574078  0  0  0.053988  0  3.844703  0  0  0.061179  0  3.849934  0  0.366869  0  -0.063646  0.049138  0  3.840937  0
C  C95  1  0.87538716  0.92300818  0.34030405  1  0  0.107225  0  3.574083  0  0  0.054016  0  3.844713  0  0  0.061208  0  3.849945  0  0.366877  0  -0.063647  0.049166  0  3.840952  0
S  S96  1  0.68334186  0.04281870  0.74011837  1  0  1.225461  0  5.718437  0  0  1.126707  0  6.254309  0  0  1.172817  0  6.234941  0  3.321967  0  0.540555  1.094988  0  6.266824  0
S  S97  1  0.31665744  0.95718110  0.25988084  1  0  1.22542  0  5.718454  0  0  1.126658  0  6.254346  0  0  1.172767  0  6.234976  0  3.322034  0  0.540512  1.094941  0  6.266859  0
N  N98  1  0.85091129  0.72179945  0.84712179  1  0  -0.189005  0  3.22667  0  0  -0.156666  0  3.517338  0  0  -0.161866  0  3.535183  0  -0.746177  0  -0.270462  -0.153459  0  3.505304  0
N  N99  1  0.14908898  0.27820035  0.15287756  1  0  -0.188992  0  3.226794  0  0  -0.156654  0  3.517471  0  0  -0.161846  0  3.535306  0  -0.745796  0  -0.270439  -0.153447  0  3.505438  0
N  N100  1  0.82278516  0.84188478  0.82082231  1  0  -0.026852  0  3.491419  0  0  0.04792  0  3.724763  0  0  0.03539  0  3.748905  0  -0.788931  0  -0.14091  0.056325  0  3.708644  0
N  N101  1  0.17721511  0.15811501  0.17917705  1  0  -0.026806  0  3.491371  0  0  0.047949  0  3.724747  0  0  0.035414  0  3.748888  0  -0.788934  0  -0.140899  0.056352  0  3.708628  0
N  N102  1  0.65570679  0.67113578  0.65293270  1  0  -0.189436  0  3.219466  0  0  -0.158863  0  3.509459  0  0  -0.163829  0  3.527501  0  -0.763432  0  -0.270859  -0.155959  0  3.497813  0
N  N103  1  0.34429155  0.32886401  0.34706722  1  0  -0.189397  0  3.219429  0  0  -0.158814  0  3.509414  0  0  -0.16378  0  3.527456  0  -0.763409  0  -0.270834  -0.155909  0  3.497767  0
N  N104  1  0.65601708  0.79862699  0.65523163  1  0  -0.024941  0  3.487648  0  0  0.053051  0  3.715974  0  0  0.040424  0  3.740416  0  -0.765071  0  -0.138676  0.061172  0  3.700043  0
N  N105  1  0.34398312  0.20137187  0.34476857  1  0  -0.025002  0  3.487573  0  0  0.052971  0  3.71591  0  0  0.040344  0  3.74035  0  -0.765115  0  -0.138745  0.061092  0  3.699979  0
N  N106  1  0.58657400  0.70529659  0.87446121  1  0  -0.195945  0  3.226012  0  0  -0.161617  0  3.513657  0  0  -0.166924  0  3.53116  0  -0.785461  0  -0.273982  -0.158206  0  3.501932  0
N  N107  1  0.41342634  0.29470414  0.12553902  1  0  -0.195855  0  3.225972  0  0  -0.161569  0  3.513652  0  0  -0.166874  0  3.531146  0  -0.785499  0  -0.273975  -0.158152  0  3.50192  0
N  N108  1  0.59785122  0.82765757  0.84276260  1  0  -0.027039  0  3.498279  0  0  0.048082  0  3.729525  0  0  0.035251  0  3.754176  0  -0.770789  0  -0.142037  0.056589  0  3.713107  0
N  N109  1  0.40214808  0.17234223  0.15723747  1  0  -0.027029  0  3.498208  0  0  0.048122  0  3.729457  0  0  0.03529  0  3.754108  0  -0.770784  0  -0.142009  0.056628  0  3.713037  0
O  O110  1  0.79676250  0.44767867  0.05701234  1  0  -0.264419  0  2.25966  0  0  -0.209663  0  2.489735  0  0  -0.228417  0  2.490491  0  -1.169331  0  -0.212083  -0.196851  0  2.48873  0
O  O111  1  0.20324076  0.55232205  0.94298746  1  0  -0.264438  0  2.259619  0  0  -0.209699  0  2.4897  0  0  -0.228454  0  2.49046  0  -1.169302  0  -0.212099  -0.196887  0  2.4887  0
O  O112  1  0.46656779  0.35880634  0.78736838  1  0  -0.262034  0  2.277372  0  0  -0.210306  0  2.514231  0  0  -0.228381  0  2.514268  0  -1.161187  0  -0.213066  -0.197781  0  2.513232  0
O  O113  1  0.53343346  0.64119346  0.21263198  1  0  -0.262067  0  2.277335  0  0  -0.210332  0  2.51417  0  0  -0.228415  0  2.514229  0  -1.161181  0  -0.21307  -0.197814  0  2.513191  0
O  O114  1  0.84916117  0.35958477  0.70553864  1  0  -0.37685  0  2.313702  0  0  -0.327267  0  2.565802  0  0  -0.34465  0  2.56182  0  -1.21257  0  -0.300777  -0.315146  0  2.567749  0
O  O115  1  0.15083813  0.64041502  0.29446143  1  0  -0.376796  0  2.313727  0  0  -0.32722  0  2.565833  0  0  -0.344603  0  2.561848  0  -1.21257  0  -0.300748  -0.315098  0  2.567773  0
O  O116  1  0.72247567  0.09700444  0.85563323  1  0  -0.604679  0  1.981334  0  0  -0.558074  0  2.21887  0  0  -0.578248  0  2.208219  0  -1.317952  0  -0.308672  -0.544152  0  2.226045  0
O  O117  1  0.27752549  0.90299442  0.14436711  1  0  -0.60465  0  1.981388  0  0  -0.558034  0  2.218917  0  0  -0.578208  0  2.208269  0  -1.317968  0  -0.308628  -0.544112  0  2.226089  0
O  O118  1  0.77885749  0.06586603  0.66234577  1  0  -0.698307  0  2.021835  0  0  -0.660559  0  2.287568  0  0  -0.678158  0  2.272262  0  -1.354735  0  -0.386617  -0.647831  0  2.296832  0
O  O119  1  0.22114182  0.93413377  0.33765430  1  0  -0.698304  0  2.021812  0  0  -0.660544  0  2.287527  0  0  -0.678152  0  2.272242  0  -1.354794  0  -0.386622  -0.647816  0  2.296787  0
O  O120  1  0.54942838  0.05316119  0.68621740  1  0  -0.599386  0  1.984847  0  0  -0.555611  0  2.23261  0  0  -0.576098  0  2.222496  0  -1.315657  0  -0.307929  -0.541221  0  2.238737  0
O  O121  1  0.45057084  0.94683767  0.31378265  1  0  -0.599395  0  1.984842  0  0  -0.555628  0  2.232617  0  0  -0.576113  0  2.222502  0  -1.31564  0  -0.307935  -0.541239  0  2.238746  0
O  O122  1  0.85885507  0.22516967  0.46397335  1  0  -0.416314  0  2.19313  0  0  -0.346595  0  2.443794  0  0  -0.36105  0  2.441229  0  -1.041649  0  -0.308079  -0.336488  0  2.445331  0
O  O123  1  0.14114520  0.77483012  0.53602686  1  0  -0.416283  0  2.193122  0  0  -0.346561  0  2.443775  0  0  -0.361015  0  2.441198  0  -1.041652  0  -0.308073  -0.336452  0  2.445299  0
O  O124  1  0.06545345  0.18897748  0.68767392  1  0  -0.43123  0  2.229465  0  0  -0.361865  0  2.48535  0  0  -0.376628  0  2.482484  0  -1.06847  0  -0.319209  -0.351376  0  2.487019  0
O  O125  1  0.93454593  0.81102325  0.31232616  1  0  -0.431247  0  2.229472  0  0  -0.36188  0  2.48535  0  0  -0.376642  0  2.482482  0  -1.068473  0  -0.319223  -0.351392  0  2.487019  0
