# generated using pymatgen
data_HgH16C22Br2N6(OF)2
_symmetry_space_group_name_H-M   'P 1'
_cell_length_a   4.18831121
_cell_length_b   10.79804740
_cell_length_c   13.12787212
_cell_angle_alpha   105.04700775
_cell_angle_beta   93.60957347
_cell_angle_gamma   94.59318895
_symmetry_Int_Tables_number   1
_chemical_formula_structural   HgH16C22Br2N6(OF)2
_chemical_formula_sum   'Hg1 H16 C22 Br2 N6 O2 F2'
_cell_volume   569.35062716
_cell_formula_units_Z   1
loop_
 _symmetry_equiv_pos_site_id
 _symmetry_equiv_pos_as_xyz
  1  'x, y, z'
loop_
 _atom_site_type_symbol
 _atom_site_label
 _atom_site_symmetry_multiplicity
 _atom_site_fract_x
 _atom_site_fract_y
 _atom_site_fract_z
 _atom_site_occupancy
 _atom_site_hle17_bader_spin_density
 _atom_site_hle17_ddec_charge
 _atom_site_hle17_ddec_spin_density
 _atom_site_hle17_ddec_sum_bond_order
 _atom_site_hle17_magmom
 _atom_site_hse06_10hf_bader_spin_density
 _atom_site_hse06_10hf_ddec_charge
 _atom_site_hse06_10hf_ddec_spin_density
 _atom_site_hse06_10hf_ddec_sum_bond_order
 _atom_site_hse06_10hf_magmom
 _atom_site_hse06_bader_spin_density
 _atom_site_hse06_ddec_charge
 _atom_site_hse06_ddec_spin_density
 _atom_site_hse06_ddec_sum_bond_order
 _atom_site_hse06_magmom
 _atom_site_pbe_bader_spin_density
 _atom_site_pbe_cm5_charge
 _atom_site_pbe_ddec_charge
 _atom_site_pbe_ddec_spin_density
 _atom_site_pbe_ddec_sum_bond_order
 _atom_site_pbe_magmom
Hg  Hg0  1  0.50000406  0.00000051  0.49999959  1  0  0.635648  0  2.10524  0  0  0.48787  0  2.600463  0  0  0.539717  0  2.5675  0  0  0.422126  0.452511  0  2.622944  0
H  H1  1  0.00556312  0.06575382  0.10181662  1  0  0.08509  0  0.954616  0  0  0.085272  0  1.030621  0  0  0.089574  0  1.026913  0  0  0.110774  0.082041  0  1.03373  0
H  H2  1  0.99444149  0.93424482  0.89818399  1  0  0.085096  0  0.954559  0  0  0.085251  0  1.030589  0  0  0.089509  0  1.026961  0  0  0.110777  0.08202  0  1.033699  0
H  H3  1  0.11196810  0.10548213  0.30137101  1  0  0.089501  0  0.961863  0  0  0.089856  0  1.039395  0  0  0.093681  0  1.03554  0  0  0.103861  0.087348  0  1.041731  0
H  H4  1  0.88804210  0.89452044  0.69862831  1  0  0.089531  0  0.961875  0  0  0.089886  0  1.039405  0  0  0.09357  0  1.035789  0  0  0.103889  0.087377  0  1.041741  0
H  H5  1  0.62003250  0.78326060  0.25410402  1  0  0.097637  0  0.95111  0  0  0.099416  0  1.026244  0  0  0.103356  0  1.022734  0  0  0.114011  0.096457  0  1.029065  0
H  H6  1  0.37996712  0.21673705  0.74589627  1  0  0.097623  0  0.95112  0  0  0.099401  0  1.026257  0  0  0.103353  0  1.022724  0  0  0.114017  0.096444  0  1.029082  0
H  H7  1  0.51190345  0.61137363  0.57688264  1  0  0.117314  0  0.958702  0  0  0.126596  0  1.023178  0  0  0.129663  0  1.021195  0  0  0.099979  0.124371  0  1.024756  0
H  H8  1  0.48810273  0.38863274  0.42311820  1  0  0.117272  0  0.958766  0  0  0.126534  0  1.023261  0  0  0.129594  0  1.021261  0  0  0.099953  0.124305  0  1.024847  0
H  H9  1  0.83823046  0.42363347  0.57373894  1  0  0.087136  0  0.966418  0  0  0.098589  0  1.027258  0  0  0.101065  0  1.026453  0  0  0.088965  0.096815  0  1.02801  0
H  H10  1  0.16176537  0.57636898  0.42626005  1  0  0.087189  0  0.966412  0  0  0.098642  0  1.02725  0  0  0.101107  0  1.026472  0  0  0.089009  0.096864  0  1.027998  0
H  H11  1  0.00189446  0.37371717  0.74301970  1  0  0.092436  0  0.962166  0  0  0.099868  0  1.031037  0  0  0.102661  0  1.029673  0  0  0.093283  0.097774  0  1.032318  0
H  H12  1  0.99809600  0.62628236  0.25697777  1  0  0.092453  0  0.962179  0  0  0.099883  0  1.031056  0  0  0.102666  0  1.029715  0  0  0.093286  0.09779  0  1.032332  0
H  H13  1  0.84841062  0.50515577  0.91301380  1  0  0.12792  0  0.961875  0  0  0.133366  0  1.025972  0  0  0.137465  0  1.02264  0  0  0.108613  0.130433  0  1.028451  0
H  H14  1  0.15158126  0.49483895  0.08698339  1  0  0.128007  0  0.961802  0  0  0.133386  0  1.025958  0  0  0.137474  0  1.02265  0  0  0.108599  0.130452  0  1.028439  0
H  H15  1  0.34468994  0.77928298  0.92321942  1  0  0.28381  0  0.920121  0  0  0.2557  0  1.004736  0  0  0.264452  0  0.996652  0  0  0.307071  0.24949  0  1.010504  0
H  H16  1  0.65531285  0.22071854  0.07678179  1  0  0.283808  0  0.920104  0  0  0.255712  0  1.0047  0  0  0.26458  0  0.996453  0  0  0.307066  0.249505  0  1.010461  0
C  C17  1  0.14512647  0.00307544  0.13616909  1  0  0.081426  0  3.678608  0  0  0.055667  0  3.947748  0  0  0.056471  0  3.963085  0  0  0.047643  0.054642  0  3.938083  0
C  C18  1  0.85487574  0.99692318  0.86383146  1  0  0.081527  0  3.678638  0  0  0.055818  0  3.947732  0  0  0.056558  0  3.963222  0  0  0.047645  0.054811  0  3.938029  0
C  C19  1  0.20150358  0.02460221  0.24577167  1  0  0.086848  0  3.674357  0  0  0.053261  0  3.936671  0  0  0.058926  0  3.952024  0  0  0.048996  0.049706  0  3.925879  0
C  C20  1  0.79850103  0.97539645  0.75422818  1  0  0.086785  0  3.674388  0  0  0.053185  0  3.9367  0  0  0.058674  0  3.952382  0  0  0.049004  0.049628  0  3.925914  0
C  C21  1  0.48394775  0.84714417  0.22020649  1  0  0.080507  0  3.654857  0  0  0.046653  0  3.901728  0  0  0.050844  0  3.919679  0  0  0.061878  0.043785  0  3.890092  0
C  C22  1  0.51605445  0.15285444  0.77979483  1  0  0.080524  0  3.654707  0  0  0.046687  0  3.901592  0  0  0.050922  0  3.919431  0  0  0.061904  0.043819  0  3.889967  0
C  C23  1  0.43179849  0.82732463  0.11055444  1  0  0.063014  0  3.7501  0  0  0.072895  0  3.992873  0  0  0.070082  0  4.012153  0  0  0.122493  0.074357  0  3.980092  0
C  C24  1  0.56820370  0.17267398  0.88944688  1  0  0.063155  0  3.749814  0  0  0.07299  0  3.992677  0  0  0.070196  0  4.011918  0  0  0.122506  0.074442  0  3.979913  0
C  C25  1  0.57860957  0.72011649  0.03670095  1  0  0.512817  0  3.84393  0  0  0.464492  0  4.130957  0  0  0.493479  0  4.130296  0  0  0.242402  0.445115  0  4.130766  0
C  C26  1  0.42139005  0.27988115  0.96329934  1  0  0.512819  0  3.843809  0  0  0.464481  0  4.13088  0  0  0.493434  0  4.130269  0  0  0.242437  0.445105  0  4.130694  0
C  C27  1  0.59166014  0.63128940  0.84188343  1  0  0.149158  0  3.81349  0  0  0.136612  0  4.065632  0  0  0.141469  0  4.08753  0  0  0.087568  0.133269  0  4.051069  0
C  C28  1  0.40833728  0.36870919  0.15811626  1  0  0.14933  0  3.813399  0  0  0.136631  0  4.065726  0  0  0.141521  0  4.087476  0  0  0.087573  0.133286  0  4.051158  0
C  C29  1  0.49987974  0.65590420  0.74497455  1  0  0.205609  0  3.760718  0  0  0.192329  0  4.039253  0  0  0.198799  0  4.052775  0  0  0.08661  0.187701  0  4.030464  0
C  C30  1  0.50012345  0.34409925  0.25502634  1  0  0.205663  0  3.760585  0  0  0.192422  0  4.039168  0  0  0.199461  0  4.051885  0  0  0.086696  0.187799  0  4.03038  0
C  C31  1  0.58488149  0.58484404  0.64880117  1  0  -0.177402  0  3.798357  0  0  -0.204881  0  4.058956  0  0  -0.208001  0  4.079022  0  0  -0.107237  -0.202514  0  4.045191  0
C  C32  1  0.41512169  0.41515941  0.35119972  1  0  -0.177303  0  3.798303  0  0  -0.204745  0  4.058887  0  0  -0.207709  0  4.078589  0  0  -0.107198  -0.202386  0  4.045132  0
C  C33  1  0.76613351  0.48153354  0.64816206  1  0  -0.059432  0  3.789314  0  0  -0.075286  0  4.047269  0  0  -0.078283  0  4.071  0  0  -0.099761  -0.073129  0  4.030753  0
C  C34  1  0.23386233  0.51846893  0.35183617  1  0  -0.059545  0  3.78938  0  0  -0.07542  0  4.047366  0  0  -0.078493  0  4.071163  0  0  -0.099843  -0.073251  0  4.030835  0
C  C35  1  0.85754077  0.45318940  0.74303363  1  0  -0.066038  0  3.777534  0  0  -0.086874  0  4.040015  0  0  -0.089087  0  4.063537  0  0  -0.098543  -0.085115  0  4.023787  0
C  C36  1  0.14244949  0.54680916  0.25696438  1  0  -0.066049  0  3.777634  0  0  -0.086866  0  4.040035  0  0  -0.089136  0  4.063699  0  0  -0.098522  -0.085112  0  4.0238  0
C  C37  1  0.77365245  0.52709246  0.83957345  1  0  -0.121825  0  3.684929  0  0  -0.145041  0  3.943498  0  0  -0.147834  0  3.962639  0  0  -0.090828  -0.142988  0  3.930356  0
C  C38  1  0.22633761  0.47290513  0.16042434  1  0  -0.121988  0  3.6849  0  0  -0.145083  0  3.943492  0  0  -0.147978  0  3.962781  0  0  -0.090855  -0.143031  0  3.930349  0
Br  Br39  1  0.14696562  0.18565552  0.52348060  1  0  -0.364439  0  1.120635  0  0  -0.30746  0  1.443036  0  0  -0.327418  0  1.42331  0  0  -0.182233  -0.294262  0  1.457172  0
Br  Br40  1  0.85304200  0.81434607  0.47651768  1  0  -0.36444  0  1.120639  0  0  -0.307463  0  1.443044  0  0  -0.327398  0  1.423361  0  0  -0.182233  -0.294268  0  1.457176  0
N  N41  1  0.26100383  0.90515260  0.06873789  1  0  -0.284248  0  3.102035  0  0  -0.25409  0  3.367894  0  0  -0.260369  0  3.383097  0  0  -0.29573  -0.249258  0  3.357478  0
N  N42  1  0.73899799  0.09484409  0.93126223  1  0  -0.284428  0  3.102062  0  0  -0.254282  0  3.367943  0  0  -0.260556  0  3.383111  0  0  -0.295791  -0.24945  0  3.357529  0
N  N43  1  0.37006657  0.94631833  0.28702684  1  0  -0.257201  0  3.187115  0  0  -0.195602  0  3.451023  0  0  -0.211668  0  3.471119  0  0  -0.294432  -0.184342  0  3.436983  0
N  N44  1  0.62993583  0.05368125  0.71297393  1  0  -0.257225  0  3.187068  0  0  -0.195622  0  3.45097  0  0  -0.211643  0  3.471057  0  0  -0.294458  -0.184363  0  3.436934  0
N  N45  1  0.49339709  0.71213459  0.93321783  1  0  -0.411294  0  3.416156  0  0  -0.359915  0  3.666181  0  0  -0.381544  0  3.675056  0  0  -0.392997  -0.345163  0  3.659962  0
N  N46  1  0.50659812  0.28786494  0.06678278  1  0  -0.411381  0  3.416246  0  0  -0.359929  0  3.66627  0  0  -0.381567  0  3.675046  0  0  -0.392989  -0.345175  0  3.660043  0
O  O47  1  0.76146935  0.65254987  0.07055411  1  0  -0.510132  0  1.932197  0  0  -0.463869  0  2.148959  0  0  -0.483975  0  2.145681  0  0  -0.275224  -0.449946  0  2.150835  0
O  O48  1  0.23853344  0.34745165  0.92944635  1  0  -0.510136  0  1.932104  0  0  -0.46387  0  2.148876  0  0  -0.48399  0  2.145618  0  0  -0.27524  -0.449947  0  2.150757  0
F  F49  1  0.31420714  0.75634543  0.74774246  1  0  -0.226041  0  1.231789  0  0  -0.161473  0  1.395668  0  0  -0.173561  0  1.390193  0  0  -0.098233  -0.152828  0  1.399507  0
F  F50  1  0.68579862  0.24365900  0.25225946  1  0  -0.226111  0  1.231719  0  0  -0.161578  0  1.395631  0  0  -0.174112  0  1.390142  0  0  -0.098289  -0.152934  0  1.399475  0
