# generated using pymatgen
data_Cd3H26(CO)22
_symmetry_space_group_name_H-M   'P 1'
_cell_length_a   6.66182004
_cell_length_b   12.83225467
_cell_length_c   11.73227445
_cell_angle_alpha   124.29107461
_cell_angle_beta   91.19785712
_cell_angle_gamma   98.86211022
_symmetry_Int_Tables_number   1
_chemical_formula_structural   Cd3H26(CO)22
_chemical_formula_sum   'Cd3 H26 C22 O22'
_cell_volume   811.57205337
_cell_formula_units_Z   1
loop_
 _symmetry_equiv_pos_site_id
 _symmetry_equiv_pos_as_xyz
  1  'x, y, z'
loop_
 _atom_site_type_symbol
 _atom_site_label
 _atom_site_symmetry_multiplicity
 _atom_site_fract_x
 _atom_site_fract_y
 _atom_site_fract_z
 _atom_site_occupancy
 _atom_site_hle17_bader_spin_density
 _atom_site_hle17_ddec_charge
 _atom_site_hle17_ddec_spin_density
 _atom_site_hle17_ddec_sum_bond_order
 _atom_site_hle17_magmom
 _atom_site_hse06_10hf_bader_spin_density
 _atom_site_hse06_10hf_ddec_charge
 _atom_site_hse06_10hf_ddec_spin_density
 _atom_site_hse06_10hf_ddec_sum_bond_order
 _atom_site_hse06_10hf_magmom
 _atom_site_hse06_bader_spin_density
 _atom_site_hse06_ddec_charge
 _atom_site_hse06_ddec_spin_density
 _atom_site_hse06_ddec_sum_bond_order
 _atom_site_hse06_magmom
 _atom_site_pbe_bader_spin_density
 _atom_site_pbe_cm5_charge
 _atom_site_pbe_ddec_charge
 _atom_site_pbe_ddec_spin_density
 _atom_site_pbe_ddec_sum_bond_order
 _atom_site_pbe_magmom
Cd  Cd0  1  0.00000741  0.00000443  0.49999920  1  0  1.374198  0  1.60519  0  0  1.215366  0  2.067034  0  0  1.266562  0  2.003769  0  0  0.808116  1.17801  0  2.111245  0
Cd  Cd1  1  0.04166266  0.27438546  0.89532752  1  0  1.229227  0  1.537485  0  0  1.053433  0  1.965988  0  0  1.113634  0  1.907421  0  0  0.767258  1.010588  0  2.005955  0
Cd  Cd2  1  0.95836698  0.72558586  0.10466652  1  0  1.229258  0  1.537346  0  0  1.053486  0  1.965821  0  0  1.113687  0  1.90726  0  0  0.767281  1.010633  0  2.005808  0
H  H3  1  0.49215828  0.25656139  0.89127121  1  0  0.43932  0  0.846423  0  0  0.409905  0  0.904493  0  0  0.420607  0  0.889065  0  0  0.296905  0.40228  0  0.915475  0
H  H4  1  0.50784419  0.74343025  0.10872696  1  0  0.439237  0  0.846537  0  0  0.409828  0  0.904604  0  0  0.420529  0  0.889178  0  0  0.296868  0.402208  0  0.915578  0
H  H5  1  0.34502419  0.22148897  0.97806135  1  0  0.425328  0  0.875997  0  0  0.393482  0  0.939356  0  0  0.404879  0  0.922922  0  0  0.291538  0.385403  0  0.951003  0
H  H6  1  0.65494562  0.77850365  0.02192857  1  0  0.425248  0  0.876084  0  0  0.393436  0  0.939377  0  0  0.404829  0  0.922952  0  0  0.291538  0.385363  0  0.951015  0
H  H7  1  0.75224250  0.41690380  0.88539822  1  0  0.435095  0  0.855709  0  0  0.402475  0  0.922419  0  0  0.413444  0  0.906584  0  0  0.29617  0.394663  0  0.933688  0
H  H8  1  0.24774195  0.58309415  0.11461124  1  0  0.435194  0  0.855595  0  0  0.402534  0  0.922373  0  0  0.413509  0  0.906527  0  0  0.296209  0.394722  0  0.933643  0
H  H9  1  0.74645183  0.42985937  0.02401919  1  0  0.445734  0  0.847177  0  0  0.414045  0  0.910829  0  0  0.425472  0  0.894229  0  0  0.300892  0.406001  0  0.92247  0
H  H10  1  0.25353478  0.57015737  0.97599605  1  0  0.445555  0  0.847369  0  0  0.413916  0  0.910951  0  0  0.42534  0  0.894356  0  0  0.300881  0.405875  0  0.922587  0
H  H11  1  0.31222325  0.92433013  0.60000040  1  0  0.429759  0  0.864037  0  0  0.399378  0  0.924202  0  0  0.41006  0  0.908639  0  0  0.302343  0.391796  0  0.935218  0
H  H12  1  0.68777445  0.07566851  0.40000537  1  0  0.429739  0  0.864068  0  0  0.39936  0  0.924208  0  0  0.410053  0  0.908636  0  0  0.302325  0.391779  0  0.935218  0
H  H13  1  0.27531095  0.05800056  0.72934419  1  0  0.437404  0  0.862253  0  0  0.40687  0  0.924167  0  0  0.417091  0  0.909373  0  0  0.288818  0.399637  0  0.934621  0
H  H14  1  0.72469415  0.94199237  0.27065832  1  0  0.437481  0  0.862132  0  0  0.406912  0  0.92409  0  0  0.417135  0  0.909295  0  0  0.288836  0.399679  0  0.934543  0
H  H15  1  0.38358223  0.66014965  0.34314127  1  0  0.124367  0  0.931372  0  0  0.137794  0  0.986913  0  0  0.141666  0  0.984672  0  0  0.110343  0.134968  0  0.98874  0
H  H16  1  0.61639512  0.33981615  0.65681102  1  0  0.124257  0  0.931219  0  0  0.137667  0  0.986814  0  0  0.14154  0  0.984573  0  0  0.110295  0.13484  0  0.988644  0
H  H17  1  0.38596728  0.72092374  0.74502360  1  0  0.142985  0  0.933461  0  0  0.153356  0  0.991344  0  0  0.157773  0  0.988201  0  0  0.116275  0.150206  0  0.993692  0
H  H18  1  0.61401868  0.27905650  0.25499302  1  0  0.142797  0  0.933648  0  0  0.153251  0  0.991455  0  0  0.157666  0  0.988316  0  0  0.116279  0.150103  0  0.993804  0
H  H19  1  0.16028712  0.34224577  0.36948944  1  0  0.115197  0  0.962729  0  0  0.124104  0  1.027819  0  0  0.127622  0  1.026091  0  0  0.105963  0.121617  0  1.029181  0
H  H20  1  0.83975175  0.65778121  0.63053558  1  0  0.11537  0  0.962434  0  0  0.12423  0  1.027586  0  0  0.127746  0  1.025853  0  0  0.106055  0.121744  0  1.02895  0
H  H21  1  0.68536801  0.85154677  0.75940156  1  0  0.109317  0  0.9147  0  0  0.120701  0  0.975879  0  0  0.12289  0  0.973571  0  0  0.11856  0.119067  0  0.977716  0
H  H22  1  0.31463408  0.14845281  0.24059301  1  0  0.10931  0  0.914647  0  0  0.120691  0  0.975872  0  0  0.122877  0  0.97356  0  0  0.118557  0.119063  0  0.977713  0
H  H23  1  0.49707011  0.94989290  0.81918531  1  0  0.098373  0  0.900293  0  0  0.11091  0  0.956073  0  0  0.113344  0  0.953614  0  0  0.115413  0.109082  0  0.958037  0
H  H24  1  0.50293290  0.05009743  0.18080791  1  0  0.098341  0  0.900214  0  0  0.11091  0  0.955987  0  0  0.113339  0  0.95352  0  0  0.115427  0.109096  0  0.957957  0
H  H25  1  0.25537845  0.29947986  0.52203318  1  0  0.09307  0  0.956518  0  0  0.100543  0  1.023753  0  0  0.101956  0  1.023002  0  0  0.112297  0.099492  0  1.024438  0
H  H26  1  0.74461982  0.70052739  0.47796598  1  0  0.09304  0  0.956529  0  0  0.100583  0  1.023729  0  0  0.102  0  1.022975  0  0  0.112303  0.099531  0  1.024415  0
H  H27  1  0.99963938  0.32688887  0.53614975  1  0  0.089589  0  0.956986  0  0  0.098694  0  1.021847  0  0  0.099466  0  1.022522  0  0  0.108055  0.098107  0  1.021503  0
H  H28  1  0.00036005  0.67311054  0.46384278  1  0  0.08961  0  0.956905  0  0  0.098724  0  1.021788  0  0  0.099506  0  1.022455  0  0  0.108062  0.098138  0  1.021443  0
C  C29  1  0.26531947  0.49207059  0.34168447  1  0  0.002924  0  3.771478  0  0  0.023933  0  4.012209  0  0  0.022319  0  4.030387  0  0  -0.015051  0.024962  0  4.00014  0
C  C30  1  0.73471973  0.50794823  0.65833024  1  0  0.00286  0  3.771166  0  0  0.023702  0  4.012157  0  0  0.022087  0  4.030333  0  0  -0.015089  0.024728  0  4.000091  0
C  C31  1  0.34655953  0.62206663  0.40452326  1  0  -0.214262  0  3.723604  0  0  -0.253807  0  3.989827  0  0  -0.257266  0  4.005091  0  0  -0.111903  -0.251555  0  3.979853  0
C  C32  1  0.65348232  0.37794001  0.59547664  1  0  -0.214295  0  3.722911  0  0  -0.253751  0  3.989237  0  0  -0.257211  0  4.004506  0  0  -0.111932  -0.251485  0  3.979225  0
C  C33  1  0.39281704  0.70370408  0.54983261  1  0  0.27246  0  3.848325  0  0  0.262313  0  4.118664  0  0  0.273831  0  4.13361  0  0  0.075179  0.25443  0  4.108424  0
C  C34  1  0.60720204  0.29630242  0.45016703  1  0  0.272386  0  3.848052  0  0  0.262185  0  4.11852  0  0  0.273699  0  4.133474  0  0  0.074976  0.254312  0  4.108269  0
C  C35  1  0.34922672  0.65922314  0.63233623  1  0  -0.287166  0  3.708175  0  0  -0.322183  0  3.970842  0  0  -0.32888  0  3.986432  0  0  -0.111604  -0.317724  0  3.960559  0
C  C36  1  0.65076868  0.34078945  0.36767239  1  0  -0.286741  0  3.707615  0  0  -0.321825  0  3.970403  0  0  -0.328518  0  3.985989  0  0  -0.111466  -0.317374  0  3.960123  0
C  C37  1  0.26368415  0.52838461  0.56706374  1  0  0.299672  0  3.820488  0  0  0.294073  0  4.081298  0  0  0.305803  0  4.098336  0  0  0.086592  0.285949  0  4.06986  0
C  C38  1  0.73631774  0.47163586  0.43295130  1  0  0.29959  0  3.819986  0  0  0.293909  0  4.080919  0  0  0.305639  0  4.097957  0  0  0.086541  0.285777  0  4.069486  0
C  C39  1  0.22334157  0.44422133  0.42235473  1  0  -0.231893  0  3.742311  0  0  -0.268436  0  3.99997  0  0  -0.274938  0  4.021243  0  0  -0.112142  -0.26424  0  3.986115  0
C  C40  1  0.77668429  0.55579834  0.57766018  1  0  -0.231944  0  3.7423  0  0  -0.268451  0  4.000206  0  0  -0.274939  0  4.021458  0  0  -0.112095  -0.264262  0  3.986367  0
C  C41  1  0.23077543  0.39950160  0.18655022  1  0  0.668649  0  3.863984  0  0  0.616913  0  4.156014  0  0  0.65167  0  4.147153  0  0  0.212767  0.593384  0  4.161048  0
C  C42  1  0.76924241  0.60050025  0.81345979  1  0  0.668824  0  3.86443  0  0  0.617187  0  4.156401  0  0  0.651945  0  4.147541  0  0  0.212924  0.59366  0  4.161433  0
C  C43  1  0.60006795  0.90780000  0.73911738  1  0  -0.066268  0  3.580542  0  0  -0.123598  0  3.839906  0  0  -0.120652  0  3.840283  0  0  -0.06195  -0.12567  0  3.839686  0
C  C44  1  0.39993684  0.09219866  0.26087693  1  0  -0.066205  0  3.580375  0  0  -0.123633  0  3.839869  0  0  -0.120656  0  3.840199  0  0  -0.061952  -0.125746  0  3.839701  0
C  C45  1  0.74982555  0.01571916  0.74727031  1  0  0.692562  0  3.883757  0  0  0.640774  0  4.190516  0  0  0.67527  0  4.183656  0  0  0.206094  0.617218  0  4.194558  0
C  C46  1  0.25013806  0.98428493  0.25271480  1  0  0.692851  0  3.883547  0  0  0.641095  0  4.19027  0  0  0.675586  0  4.183416  0  0  0.206375  0.617549  0  4.194313  0
C  C47  1  0.15395551  0.35937393  0.59398271  1  0  -0.074723  0  3.652268  0  0  -0.126304  0  3.905623  0  0  -0.123985  0  3.908227  0  0  -0.066825  -0.127838  0  3.90358  0
C  C48  1  0.84603998  0.64062475  0.40601256  1  0  -0.074579  0  3.652503  0  0  -0.126332  0  3.906033  0  0  -0.124044  0  3.908676  0  0  -0.066811  -0.12787  0  3.903987  0
C  C49  1  0.14332337  0.33671295  0.70666668  1  0  0.706531  0  3.83906  0  0  0.652876  0  4.138191  0  0  0.687011  0  4.130771  0  0  0.214305  0.629503  0  4.142538  0
C  C50  1  0.85666763  0.66328200  0.29332797  1  0  0.70633  0  3.839126  0  0  0.652668  0  4.138368  0  0  0.686804  0  4.130946  0  0  0.21412  0.629296  0  4.142712  0
O  O51  1  0.36533125  0.19905279  0.88249114  1  0  -0.851219  0  1.884738  0  0  -0.778954  0  2.05716  0  0  -0.803222  0  2.02299  0  0  -0.566167  -0.761858  0  2.080941  0
O  O52  1  0.63465721  0.80094301  0.11750289  1  0  -0.851118  0  1.884743  0  0  -0.778868  0  2.057149  0  0  -0.803126  0  2.022972  0  0  -0.566148  -0.761778  0  2.08092  0
O  O53  1  0.73729845  0.36258662  0.92185351  1  0  -0.836029  0  1.830997  0  0  -0.76544  0  2.005558  0  0  -0.790153  0  1.970981  0  0  -0.562058  -0.747972  0  2.029564  0
O  O54  1  0.26271965  0.63742162  0.07816765  1  0  -0.835953  0  1.831188  0  0  -0.765407  0  2.005742  0  0  -0.790123  0  1.971164  0  0  -0.562072  -0.747908  0  2.029675  0
O  O55  1  0.20802269  0.97799195  0.63856848  1  0  -0.865039  0  1.851309  0  0  -0.80316  0  2.044666  0  0  -0.826026  0  2.009842  0  0  -0.593276  -0.786756  0  2.068851  0
O  O56  1  0.79197201  0.02200297  0.36143680  1  0  -0.865092  0  1.851307  0  0  -0.803166  0  2.044768  0  0  -0.826049  0  2.009905  0  0  -0.593267  -0.786763  0  2.068977  0
O  O57  1  0.17850658  0.44207735  0.11520904  1  0  -0.694394  0  2.033121  0  0  -0.619487  0  2.280434  0  0  -0.651246  0  2.268157  0  0  -0.333639  -0.597281  0  2.288003  0
O  O58  1  0.82149884  0.55791175  0.88479149  1  0  -0.694523  0  2.033141  0  0  -0.619656  0  2.280442  0  0  -0.651418  0  2.268165  0  0  -0.333761  -0.597447  0  2.288016  0
O  O59  1  0.25222834  0.28526875  0.13264087  1  0  -0.618077  0  1.913626  0  0  -0.562808  0  2.121089  0  0  -0.587502  0  2.11038  0  0  -0.314443  -0.545575  0  2.127975  0
O  O60  1  0.74777929  0.71472398  0.86737037  1  0  -0.618004  0  1.914078  0  0  -0.562766  0  2.121484  0  0  -0.587458  0  2.110776  0  0  -0.314433  -0.545534  0  2.128369  0
O  O61  1  0.48679537  0.82831806  0.60190664  1  0  -0.292419  0  2.418355  0  0  -0.213299  0  2.643313  0  0  -0.23161  0  2.644894  0  0  -0.182316  -0.200294  0  2.64174  0
O  O62  1  0.51321694  0.17168327  0.39808627  1  0  -0.292417  0  2.418105  0  0  -0.213248  0  2.643078  0  0  -0.231572  0  2.644661  0  0  -0.182297  -0.20024  0  2.641515  0
O  O63  1  0.75691629  0.01372353  0.63879717  1  0  -0.673761  0  2.042165  0  0  -0.615495  0  2.299561  0  0  -0.642302  0  2.284399  0  0  -0.341293  -0.596639  0  2.309507  0
O  O64  1  0.24304163  0.98627777  0.36118772  1  0  -0.673887  0  2.042247  0  0  -0.615609  0  2.299615  0  0  -0.642418  0  2.284454  0  0  -0.341371  -0.596753  0  2.309566  0
O  O65  1  0.85224085  0.09995819  0.86678262  1  0  -0.641061  0  1.956926  0  0  -0.575716  0  2.196491  0  0  -0.607049  0  2.184356  0  0  -0.335285  -0.553951  0  2.204268  0
O  O66  1  0.14771520  0.90004367  0.13319809  1  0  -0.641289  0  1.956559  0  0  -0.57596  0  2.196094  0  0  -0.607297  0  2.18397  0  0  -0.335505  -0.554192  0  2.203865  0
O  O67  1  0.22937162  0.49230602  0.65552061  1  0  -0.25251  0  2.35358  0  0  -0.185619  0  2.582861  0  0  -0.203268  0  2.587021  0  0  -0.175129  -0.172978  0  2.579248  0
O  O68  1  0.77061797  0.50770641  0.34448659  1  0  -0.252596  0  2.353937  0  0  -0.185548  0  2.583218  0  0  -0.203189  0  2.587381  0  0  -0.175097  -0.172902  0  2.5796  0
O  O69  1  0.05052828  0.22431400  0.66954749  1  0  -0.717024  0  2.072835  0  0  -0.6379  0  2.341816  0  0  -0.672176  0  2.328409  0  0  -0.338174  -0.61354  0  2.350016  0
O  O70  1  0.94946111  0.77568424  0.33045393  1  0  -0.717059  0  2.072671  0  0  -0.637917  0  2.341641  0  0  -0.67219  0  2.328231  0  0  -0.338205  -0.613557  0  2.349837  0
O  O71  1  0.21815070  0.42254236  0.83088377  1  0  -0.628815  0  2.00977  0  0  -0.572022  0  2.245793  0  0  -0.598788  0  2.233734  0  0  -0.308591  -0.553478  0  2.253348  0
O  O72  1  0.78182979  0.57744988  0.16911202  1  0  -0.628676  0  2.010037  0  0  -0.571847  0  2.246071  0  0  -0.598615  0  2.234014  0  0  -0.308387  -0.553299  0  2.253627  0
