# generated using pymatgen
data_Zn4H27C45O16
_symmetry_space_group_name_H-M   'P 1'
_cell_length_a   18.18397911
_cell_length_b   18.30231761
_cell_length_c   18.36027370
_cell_angle_alpha   90.31573886
_cell_angle_beta   119.31438726
_cell_angle_gamma   120.33482766
_symmetry_Int_Tables_number   1
_chemical_formula_structural   Zn4H27C45O16
_chemical_formula_sum   'Zn8 H54 C90 O32'
_cell_volume   4331.35298555
_cell_formula_units_Z   2
loop_
 _symmetry_equiv_pos_site_id
 _symmetry_equiv_pos_as_xyz
  1  'x, y, z'
loop_
 _atom_site_type_symbol
 _atom_site_label
 _atom_site_symmetry_multiplicity
 _atom_site_fract_x
 _atom_site_fract_y
 _atom_site_fract_z
 _atom_site_occupancy
 _atom_site_pbe_bader_charge
 _atom_site_pbe_bader_spin_density
 _atom_site_pbe_cm5_charge
 _atom_site_pbe_ddec_charge
 _atom_site_pbe_ddec_spin_density
 _atom_site_pbe_ddec_sum_bond_order
 _atom_site_pbe_magmom
Zn  Zn0  1  0.57988592  0.19905575  0.79087957  1  1.308095  0  0.669491  0.957839  0  2.400631  0
Zn  Zn1  1  0.42009068  0.80088958  0.20905289  1  1.30797  0  0.669715  0.958223  0  2.39999  0
Zn  Zn2  1  0.58443409  0.37854082  0.79101598  1  1.318852  0  0.674469  0.967335  0  2.373287  0
Zn  Zn3  1  0.41561200  0.62141447  0.20903368  1  1.318314  0  0.674329  0.967404  0  2.37304  0
Zn  Zn4  1  0.40966400  0.20253531  0.79263420  1  1.317334  0  0.66824  0.953063  0  2.403923  0
Zn  Zn5  1  0.59033500  0.79745037  0.20734360  1  1.316838  0  0.668305  0.953275  0  2.403857  0
Zn  Zn6  1  0.41012001  0.20359518  0.61683947  1  1.299552  0  0.6653  0.958412  0  2.366879  0
Zn  Zn7  1  0.58987843  0.79638111  0.38312877  1  1.300023  0  0.665179  0.958301  0  2.366763  0
H  H8  1  0.45312166  0.85440646  0.52087378  1  0.084515  0  0.103054  0.104826  0  0.983829  0
H  H9  1  0.26636364  0.49418236  0.33745546  1  0.029532  0  0.098309  0.097343  0  0.996609  0
H  H10  1  0.89792338  0.58748125  0.81387652  1  0.036722  0  0.094  0.087112  0  1.01052  0
H  H11  1  0.10256063  0.41385537  0.18632445  1  0.020292  0  0.093521  0.086332  0  1.009818  0
H  H12  1  0.63893793  0.66278304  0.56116320  1  0.080512  0  0.108474  0.120471  0  0.997187  0
H  H13  1  0.36082670  0.33728064  0.43895344  1  0.10412  0  0.108434  0.120159  0  0.996847  0
H  H14  1  0.00898677  0.13728792  0.68703427  1  0.053555  0  0.09748  0.088392  0  1.017038  0
H  H15  1  0.99107855  0.86270349  0.31295404  1  0.052119  0  0.097525  0.08843  0  1.017093  0
H  H16  1  0.12160123  0.23898785  0.64144426  1  0.055075  0  0.100926  0.096835  0  1.000272  0
H  H17  1  0.87838221  0.76114769  0.35854111  1  0.054386  0  0.100806  0.096642  0  1.000621  0
H  H18  1  0.30320850  0.36759405  0.75529407  1  0.045739  0  0.101377  0.100981  0  0.994586  0
H  H19  1  0.54688341  0.14557580  0.47904651  1  0.085147  0  0.103005  0.104736  0  0.983651  0
H  H20  1  0.69677576  0.63255223  0.24470752  1  0.040323  0  0.101267  0.100598  0  0.994882  0
H  H21  1  0.08003796  0.16498616  0.84783691  1  0.037297  0  0.096571  0.089896  0  1.002613  0
H  H22  1  0.92009731  0.83485838  0.15214854  1  0.047515  0  0.096438  0.08987  0  1.002896  0
H  H23  1  0.78961227  0.06056343  0.82005348  1  0.04574  0  0.103508  0.110381  0  1.002822  0
H  H24  1  0.21022409  0.93934083  0.17979480  1  0.04697  0  0.103099  0.109891  0  1.003027  0
H  H25  1  0.92250245  0.32976775  0.81046441  1  0.072725  0  0.109121  0.130041  0  0.980099  0
H  H26  1  0.07766940  0.67020559  0.18957354  1  0.07369  0  0.109186  0.130277  0  0.979753  0
H  H27  1  0.10111970  0.43961850  0.02171515  1  0.122476  0  0.112294  0.124463  0  0.998831  0
H  H28  1  0.89889992  0.56033645  0.97823229  1  0.123073  0  0.112442  0.124765  0  0.999219  0
H  H29  1  0.38270435  0.97502037  0.34266106  1  0.061286  0  0.095942  0.098228  0  1.013294  0
H  H30  1  0.93945300  0.71008592  0.91989824  1  0.064639  0  0.093405  0.088278  0  1.037271  0
H  H31  1  0.61730720  0.02496596  0.65726839  1  0.062827  0  0.096026  0.098285  0  1.013155  0
H  H32  1  0.32822186  0.85753636  0.92944611  1  0.055269  0  0.100226  0.089461  0  0.991222  0
H  H33  1  0.67182442  0.14247102  0.07054442  1  0.075001  0  0.100427  0.08972  0  0.990958  0
H  H34  1  0.44874777  0.92117674  0.85747291  1  0.062984  0  0.100337  0.086369  0  0.992008  0
H  H35  1  0.55129367  0.07882525  0.14251308  1  0.062672  0  0.100269  0.086196  0  0.991934  0
H  H36  1  0.62608626  0.96878164  0.02650842  1  0.077318  0  0.099362  0.088017  0  0.992324  0
H  H37  1  0.37396260  0.03122107  0.97348172  1  0.073755  0  0.099387  0.088114  0  0.992169  0
H  H38  1  0.92506376  0.06766686  0.52703623  1  0.064274  0  0.099962  0.08812  0  0.993617  0
H  H39  1  0.07492888  0.93229137  0.47295365  1  0.064339  0  0.099961  0.088225  0  0.993368  0
H  H40  1  0.94270686  0.97261582  0.34430616  1  0.069531  0  0.09861  0.090535  0  1.001037  0
H  H41  1  0.05979286  0.29010559  0.08060456  1  0.075687  0  0.093267  0.088259  0  1.037991  0
H  H42  1  0.05728295  0.02734576  0.65568834  1  0.069267  0  0.098633  0.090717  0  1.000936  0
H  H43  1  0.26195908  0.29354608  0.96146248  1  0.066052  0  0.101491  0.101301  0  0.998701  0
H  H44  1  0.73817246  0.70631184  0.03853318  1  0.065636  0  0.101427  0.100899  0  0.998925  0
H  H45  1  0.25173493  0.86788934  0.39377835  1  0.610325  0  0.300629  0.343135  0  0.977609  0
H  H46  1  0.74827744  0.13206425  0.60617699  1  0.611352  0  0.300595  0.343051  0  0.977864  0
H  H47  1  0.34541400  0.45830221  0.99521317  1  0.090425  0  0.107406  0.114672  0  1.004334  0
H  H48  1  0.65461078  0.54168432  0.00478535  1  0.090306  0  0.107387  0.114591  0  1.004337  0
H  H49  1  0.79881884  0.11079703  0.95286971  1  0.092395  0  0.113299  0.129962  0  0.970661  0
H  H50  1  0.20090914  0.88909315  0.04691704  1  0.08843  0  0.113095  0.12968  0  0.970875  0
H  H51  1  0.88461754  0.33092910  0.03885564  1  0.604155  0  0.321831  0.348414  0  0.912542  0
H  H52  1  0.81594634  0.75172220  0.87356684  1  0.060445  0  0.097499  0.091686  0  0.998718  0
H  H53  1  0.11543824  0.66906018  0.96109589  1  0.604709  0  0.321892  0.352213  0  0.908063  0
H  H54  1  0.83934955  0.10926055  0.72575756  1  0.62038  0  0.341534  0.366551  0  0.869221  0
H  H55  1  0.16070239  0.89068993  0.27421214  1  0.603521  0  0.341666  0.366941  0  0.86879  0
H  H56  1  0.06338237  0.14396572  0.47307296  1  0.068479  0  0.099149  0.086598  0  0.990724  0
H  H57  1  0.93660539  0.85599182  0.52691998  1  0.068202  0  0.099136  0.08649  0  0.991118  0
H  H58  1  0.18226163  0.24727545  0.12708513  1  0.058591  0  0.097553  0.092011  0  0.998929  0
H  H59  1  0.65326104  0.67235169  0.72148661  1  0.061673  0  0.099749  0.099318  0  0.996845  0
H  H60  1  0.34522191  0.32666648  0.27898775  1  0.049901  0  0.099914  0.09892  0  0.998856  0
H  H61  1  0.73429981  0.50705923  0.66260330  1  0.038374  0  0.098186  0.097319  0  0.997379  0
C  C62  1  0.50354659  0.38601998  0.60866353  1  1.548464  0  0.227365  0.607074  0  4.16696  0
C  C63  1  0.49602021  0.05115707  0.94698574  1  0.015066  0  -0.008264  -0.030951  0  3.655485  0
C  C64  1  0.57024936  0.98310574  0.01416676  1  -0.020202  0  -0.077869  -0.067995  0  3.646476  0
C  C65  1  0.42979607  0.01689561  0.98582170  1  -0.01601  0  -0.077864  -0.068261  0  3.646446  0
C  C66  1  0.03391197  0.07939603  0.48426780  1  -0.021818  0  -0.074001  -0.067545  0  3.637799  0
C  C67  1  0.96607914  0.92056087  0.51572678  1  -0.022461  0  -0.074016  -0.070553  0  3.633491  0
C  C68  1  0.96035826  0.03873487  0.51625657  1  -0.043124  0  -0.071684  -0.070078  0  3.620923  0
C  C69  1  0.03962503  0.96121594  0.48372927  1  -0.043701  0  -0.07148  -0.067056  0  3.625318  0
C  C70  1  0.89524753  0.94428334  0.44470941  1  0.027759  0  -0.008809  -0.013615  0  3.630575  0
C  C71  1  0.10474388  0.05567021  0.55528366  1  0.026544  0  -0.008964  -0.033625  0  3.665495  0
C  C72  1  0.96935985  0.98553317  0.41378966  1  -0.015284  0  -0.079889  -0.075751  0  3.644158  0
C  C73  1  0.49635025  0.61399744  0.39138827  1  1.548693  0  0.227656  0.607708  0  4.165732  0
C  C74  1  0.03063361  0.01442441  0.58620442  1  -0.014658  0  -0.079655  -0.072701  0  3.64897  0
C  C75  1  0.79859036  0.69841811  0.82727260  1  -0.104614  0  -0.097054  -0.085144  0  4.048251  0
C  C76  1  0.20018733  0.30110231  0.17323561  1  -0.10153  0  -0.097492  -0.08604  0  4.049673  0
C  C77  1  0.49579804  0.10733670  0.88926809  1  1.521537  0  0.226002  0.604525  0  4.181489  0
C  C78  1  0.50423755  0.89267263  0.11072323  1  1.519893  0  0.225875  0.604263  0  4.181738  0
C  C79  1  0.70734940  0.65415534  0.74181527  1  -0.059325  0  -0.093391  -0.133195  0  3.982081  0
C  C80  1  0.29155434  0.34535486  0.25859359  1  -0.055417  0  -0.093047  -0.132092  0  3.982498  0
C  C81  1  0.68285550  0.58442180  0.68196657  1  0.060643  0  -0.009218  0.076645  0  4.008901  0
C  C82  1  0.31675584  0.41571361  0.31828480  1  0.034546  0  -0.009678  0.076441  0  4.006783  0
C  C83  1  0.75234999  0.56081424  0.70897812  1  -0.025764  0  -0.094517  -0.132877  0  3.983667  0
C  C84  1  0.43448015  0.98671059  0.41276254  1  -0.036971  0  -0.092401  -0.148737  0  3.682544  0
C  C85  1  0.24779795  0.43995167  0.29120301  1  -0.046135  0  -0.094212  -0.132545  0  3.981935  0
C  C86  1  0.84408770  0.60589586  0.79392641  1  -0.017957  0  -0.096194  -0.073338  0  4.038153  0
C  C87  1  0.15594718  0.39490443  0.20634628  1  0.016924  0  -0.096018  -0.072494  0  4.036255  0
C  C88  1  0.86751501  0.67472983  0.85356096  1  -0.050913  0  -0.09938  -0.091477  0  4.020184  0
C  C89  1  0.13181945  0.32543995  0.14687544  1  -0.017401  0  -0.098993  -0.091658  0  4.01963  0
C  C90  1  0.57732418  0.59114302  0.53526616  1  -0.032749  0  -0.079304  -0.141474  0  3.944355  0
C  C91  1  0.42244296  0.40892537  0.46485498  1  -0.014587  0  -0.079518  -0.14164  0  3.943751  0
C  C92  1  0.49280502  0.55376216  0.44642390  1  0.008201  0  -0.011151  -0.06835  0  3.930957  0
C  C93  1  0.50698614  0.44630432  0.55368225  1  0.004362  0  -0.010763  -0.067721  0  3.931497  0
C  C94  1  0.41252944  0.46071777  0.40984255  1  -0.041564  0  0.006168  0.062389  0  3.957506  0
C  C95  1  0.56552458  0.01326833  0.58716356  1  -0.037542  0  -0.09233  -0.148671  0  3.682431  0
C  C96  1  0.58719507  0.53936919  0.59030746  1  0.002242  0  0.005892  0.061911  0  3.957915  0
C  C97  1  0.15235245  0.25041851  0.71164740  1  0.00347  0  -0.093525  -0.078553  0  4.028154  0
C  C98  1  0.84766845  0.74966436  0.28833971  1  -0.018211  0  -0.093418  -0.078482  0  4.028613  0
C  C99  1  0.25458196  0.32248366  0.77558103  1  -0.081442  0  -0.091141  -0.12626  0  3.977179  0
C  C100  1  0.74543658  0.67759853  0.22441092  1  -0.051941  0  -0.090857  -0.125461  0  3.97741  0
C  C101  1  0.77456005  0.38701973  0.88802246  1  1.578074  0  0.226037  0.599708  0  4.176175  0
C  C102  1  0.22546131  0.61296330  0.11190141  1  1.576829  0  0.225927  0.59985  0  4.175434  0
C  C103  1  0.29520389  0.33895181  0.86622184  1  -0.064697  0  -0.007262  0.075866  0  4.004165  0
C  C104  1  0.70484018  0.66104753  0.13376705  1  -0.064922  0  -0.007441  0.074935  0  4.004097  0
C  C105  1  0.23086267  0.28157328  0.89115833  1  -0.041794  0  -0.09074  -0.131152  0  3.976031  0
C  C106  1  0.47157973  0.95538161  0.92147909  1  -0.007901  0  -0.07136  -0.062682  0  3.628944  0
C  C107  1  0.76923553  0.71834537  0.10883489  1  -0.047327  0  -0.090408  -0.129527  0  3.975202  0
C  C108  1  0.12869374  0.20920986  0.82717326  1  -0.015653  0  -0.097393  -0.086119  0  4.055072  0
C  C109  1  0.87141008  0.79070681  0.17281997  1  -0.020794  0  -0.097561  -0.087043  0  4.056017  0
C  C110  1  0.08901812  0.19351305  0.73721163  1  -0.041928  0  -0.095895  -0.092971  0  4.041406  0
C  C111  1  0.91104769  0.80648573  0.26277586  1  -0.04187  0  -0.095925  -0.092753  0  4.041528  0
C  C112  1  0.41338928  0.47520350  0.99752671  1  -0.013661  0  -0.07944  -0.137717  0  3.94692  0
C  C113  1  0.58663913  0.52479509  0.00246817  1  -0.014572  0  -0.079419  -0.137498  0  3.946434  0
C  C114  1  0.50895630  0.55533612  0.06118983  1  -0.03929  0  -0.010965  -0.066382  0  3.940138  0
C  C115  1  0.49106965  0.44466446  0.93880277  1  -0.038786  0  -0.01119  -0.066882  0  3.940268  0
C  C116  1  0.59874901  0.58137395  0.06520356  1  0.05512  0  0.004049  0.059149  0  3.968279  0
C  C117  1  0.52846838  0.04462377  0.07851015  1  -0.007282  0  -0.071312  -0.062286  0  3.62849  0
C  C118  1  0.40128381  0.41862935  0.93478967  1  0.053423  0  0.004241  0.059462  0  3.96813  0
C  C119  1  0.82618065  0.15831987  0.92140983  1  0.011118  0  -0.09967  -0.164973  0  3.999864  0
C  C120  1  0.17366046  0.84159245  0.07844078  1  0.010907  0  -0.099651  -0.164954  0  3.999679  0
C  C121  1  0.86469430  0.24736945  0.95561833  1  0.459448  0  0.0732  0.25222  0  4.076641  0
C  C122  1  0.13520274  0.75255394  0.04426226  1  0.464168  0  0.073178  0.252186  0  4.077104  0
C  C123  1  0.89944333  0.31015055  0.91568513  1  0.005179  0  -0.022875  -0.036312  0  4.026102  0
C  C124  1  0.10056911  0.68979365  0.08425987  1  -0.000324  0  -0.022816  -0.03641  0  4.025782  0
C  C125  1  0.21950477  0.11355660  0.61204763  1  1.521706  0  0.226356  0.608566  0  4.177302  0
C  C126  1  0.78048577  0.88639092  0.38794392  1  1.523042  0  0.226265  0.603998  0  4.177005  0
C  C127  1  0.89501474  0.28199015  0.84169777  1  0.048679  0  -0.102668  -0.22648  0  3.953877  0
C  C128  1  0.40438419  0.92143137  0.95987898  1  -0.039128  0  -0.069975  -0.061287  0  3.617124  0
C  C129  1  0.10506674  0.71796587  0.15828742  1  0.062227  0  -0.102891  -0.227102  0  3.953778  0
C  C130  1  0.85545492  0.19254379  0.80730504  1  0.360835  0  0.060958  0.283109  0  4.113785  0
C  C131  1  0.14457217  0.80740251  0.19264820  1  0.348549  0  0.06104  0.283259  0  4.113803  0
C  C132  1  0.82116904  0.13071739  0.84716694  1  -0.000664  0  -0.113465  -0.22659  0  4.08128  0
C  C133  1  0.17872676  0.86920130  0.15271358  1  0.001285  0  -0.112721  -0.225643  0  4.081084  0
C  C134  1  0.05554465  0.46549180  0.01097940  1  -0.090265  0  -0.076492  -0.134017  0  3.933707  0
C  C135  1  0.94447180  0.53446313  0.98896595  1  -0.08741  0  -0.076668  -0.134267  0  3.934297  0
C  C136  1  0.10895017  0.55705111  0.05398936  1  0.015358  0  -0.01133  -0.077123  0  3.934616  0
C  C137  1  0.89107336  0.44290118  0.94595617  1  0.014976  0  -0.011194  -0.076738  0  3.93445  0
C  C138  1  0.05287617  0.59330678  0.04334567  1  -0.008415  0  0.001561  0.056496  0  3.975586  0
C  C139  1  0.59566266  0.07857400  0.04011182  1  -0.058645  0  -0.070033  -0.061412  0  3.616478  0
C  C140  1  0.94714810  0.40664284  0.95660129  1  -0.004722  0  0.001391  0.056608  0  3.974315  0
C  C141  1  0.49253278  0.38652917  0.88280859  1  1.580165  0  0.228675  0.607491  0  4.17741  0
C  C142  1  0.50748083  0.61346331  0.11718070  1  1.579384  0  0.228707  0.607521  0  4.177055  0
C  C143  1  0.49165043  0.10151714  0.60962005  1  1.554505  0  0.226241  0.624957  0  4.157382  0
C  C144  1  0.50834824  0.89845841  0.39030909  1  1.553871  0  0.226459  0.625018  0  4.158586  0
C  C145  1  0.40075635  0.95188464  0.47648747  1  0.603205  0  0.088217  0.301037  0  3.729282  0
C  C146  1  0.59924961  0.04809898  0.52344034  1  0.601988  0  0.088309  0.301223  0  3.730149  0
C  C147  1  0.47421687  0.91977252  0.51259506  1  -0.052043  0  -0.079858  -0.13043  0  3.627478  0
C  C148  1  0.52578909  0.08021109  0.48732948  1  -0.051523  0  -0.079792  -0.130185  0  3.626984  0
C  C149  1  0.50548430  0.95367627  0.44666941  1  -0.006567  0  -0.01458  -0.082989  0  3.65409  0
C  C150  1  0.50402563  0.94884964  0.05300512  1  0.015758  0  -0.008176  -0.031129  0  3.655977  0
C  C151  1  0.49452543  0.04631205  0.55325643  1  -0.007621  0  -0.014565  -0.082855  0  3.653729  0
O  O152  1  0.49708423  0.24700077  0.74753029  1  -1.227008  0  -0.573181  -1.032311  0  2.544326  0
O  O153  1  0.56245027  0.86637763  0.12954550  1  -1.158878  0  -0.315242  -0.544531  0  2.327354  0
O  O154  1  0.45131136  0.30216939  0.56830297  1  -1.163666  0  -0.316264  -0.546993  0  2.317256  0
O  O155  1  0.54850699  0.69784747  0.43167848  1  -1.164446  0  -0.316362  -0.547107  0  2.316825  0
O  O156  1  0.55497890  0.12478787  0.86349315  1  -1.161363  0  -0.319476  -0.549768  0  2.325127  0
O  O157  1  0.44511911  0.87527543  0.13654724  1  -1.160246  0  -0.319294  -0.549409  0  2.325541  0
O  O158  1  0.73357609  0.42954722  0.86328084  1  -1.165067  0  -0.305774  -0.530185  0  2.343384  0
O  O159  1  0.26647201  0.57045567  0.13680533  1  -1.164874  0  -0.305739  -0.530372  0  2.342449  0
O  O160  1  0.26314150  0.12374306  0.69450616  1  -1.168366  0  -0.313889  -0.541098  0  2.336807  0
O  O161  1  0.73685098  0.87626606  0.30549631  1  -1.167546  0  -0.313928  -0.54198  0  2.33933  0
O  O162  1  0.55804590  0.42755448  0.86322496  1  -1.173953  0  -0.317186  -0.547112  0  2.339379  0
O  O163  1  0.50290665  0.75295474  0.25243857  1  -1.227443  0  -0.573266  -1.032464  0  2.544388  0
O  O164  1  0.44197845  0.57242671  0.13678042  1  -1.173807  0  -0.317181  -0.547281  0  2.339011  0
O  O165  1  0.42432600  0.11824939  0.56986023  1  -1.171009  0  -0.319513  -0.551291  0  2.317326  0
O  O166  1  0.57578876  0.88184992  0.43006696  1  -1.170655  0  -0.319723  -0.551318  0  2.318046  0
O  O167  1  0.43184943  0.30194241  0.86250917  1  -1.18007  0  -0.30632  -0.536191  0  2.371425  0
O  O168  1  0.56814466  0.69804725  0.13746299  1  -1.179895  0  -0.306368  -0.536187  0  2.371541  0
O  O169  1  0.55900738  0.12936254  0.69329754  1  -1.177509  0  -0.318221  -0.550874  0  2.330474  0
O  O170  1  0.44087141  0.87047319  0.30664417  1  -1.177435  0  -0.318146  -0.550964  0  2.331006  0
O  O171  1  0.30182726  0.90606050  0.45659235  1  -1.147366  0  -0.396085  -0.50727  0  2.244553  0
O  O172  1  0.69818560  0.09393255  0.54334974  1  -1.148108  0  -0.396286  -0.507589  0  2.244906  0
O  O173  1  0.86774438  0.27049776  0.02874368  1  -1.128209  0  -0.359884  -0.44679  0  2.265906  0
O  O174  1  0.72723897  0.30248731  0.86943883  1  -1.173411  0  -0.300866  -0.537131  0  2.417867  0
O  O175  1  0.13208127  0.72941312  0.97109559  1  -1.128015  0  -0.359978  -0.450638  0  2.261385  0
O  O176  1  0.85136936  0.16788125  0.73284075  1  -1.148154  0  -0.353346  -0.465793  0  2.290142  0
O  O177  1  0.14871136  0.83208213  0.26714409  1  -1.13135  0  -0.353703  -0.46641  0  2.289205  0
O  O178  1  0.27274951  0.69746374  0.13031207  1  -1.173657  0  -0.30077  -0.536944  0  2.418259  0
O  O179  1  0.26438229  0.14669419  0.57267962  1  -1.169068  0  -0.32353  -0.556049  0  2.306169  0
O  O180  1  0.73559962  0.85317695  0.42729225  1  -1.171096  0  -0.323486  -0.556814  0  2.308584  0
O  O181  1  0.55042489  0.42317086  0.69116121  1  -1.179895  0  -0.307325  -0.540043  0  2.385556  0
O  O182  1  0.44966079  0.57681550  0.30892797  1  -1.178414  0  -0.307603  -0.540637  0  2.384254  0
O  O183  1  0.43753478  0.13357379  0.87040362  1  -1.159741  0  -0.315125  -0.544392  0  2.327802  0
