# generated using pymatgen
data_Gd2H8C5S2N2O15
_symmetry_space_group_name_H-M   'P 1'
_cell_length_a   6.44287464
_cell_length_b   13.31412028
_cell_length_c   18.23150000
_cell_angle_alpha   90.00000000
_cell_angle_beta   93.80238470
_cell_angle_gamma   90.00000000
_symmetry_Int_Tables_number   1
_chemical_formula_structural   Gd2H8C5S2N2O15
_chemical_formula_sum   'Gd8 H32 C20 S8 N8 O60'
_cell_volume   1560.47744870
_cell_formula_units_Z   4
loop_
 _symmetry_equiv_pos_site_id
 _symmetry_equiv_pos_as_xyz
  1  'x, y, z'
loop_
 _atom_site_type_symbol
 _atom_site_label
 _atom_site_symmetry_multiplicity
 _atom_site_fract_x
 _atom_site_fract_y
 _atom_site_fract_z
 _atom_site_occupancy
 _atom_site_hle17_bader_spin_density
 _atom_site_hle17_ddec_charge
 _atom_site_hle17_ddec_spin_density
 _atom_site_hle17_ddec_sum_bond_order
 _atom_site_hle17_magmom
 _atom_site_hse06_10hf_bader_spin_density
 _atom_site_hse06_10hf_ddec_charge
 _atom_site_hse06_10hf_ddec_spin_density
 _atom_site_hse06_10hf_ddec_sum_bond_order
 _atom_site_hse06_10hf_magmom
 _atom_site_hse06_bader_spin_density
 _atom_site_hse06_ddec_charge
 _atom_site_hse06_ddec_spin_density
 _atom_site_hse06_ddec_sum_bond_order
 _atom_site_hse06_magmom
 _atom_site_pbe_bader_charge
 _atom_site_pbe_bader_spin_density
 _atom_site_pbe_cm5_charge
 _atom_site_pbe_ddec_charge
 _atom_site_pbe_ddec_spin_density
 _atom_site_pbe_ddec_sum_bond_order
 _atom_site_pbe_magmom
Gd  Gd0  1  0.26106088  0.30651969  0.71285475  1  0  2.174853  0  1.824093  0  0  2.071081  0  2.196034  0  0  2.12541  0  2.138365  0  2.182301  0  1.517449  2.028454  0  2.242792  0
Gd  Gd1  1  0.23893819  0.80651893  0.78714528  1  0  2.174829  0  1.824139  0  0  2.071069  0  2.196079  0  0  2.125393  0  2.138415  0  2.182287  0  1.517458  2.028475  0  2.242774  0
Gd  Gd2  1  0.73893881  0.69348029  0.28714535  1  0  2.174866  0  1.824097  0  0  2.071096  0  2.196044  0  0  2.125428  0  2.138365  0  2.182392  0  1.517441  2.028472  0  2.242793  0
Gd  Gd3  1  0.76106150  0.19348105  0.21285482  1  0  2.174825  0  1.824146  0  0  2.071049  0  2.196092  0  0  2.125385  0  2.138403  0  2.182317  0  1.517459  2.028472  0  2.242763  0
Gd  Gd4  1  0.09547354  0.16955307  0.90164782  1  0  2.259631  0  1.687464  0  0  2.182041  0  2.011908  0  0  2.223896  0  1.973549  0  2.217898  0  1.478454  2.14779  0  2.045536  0
Gd  Gd5  1  0.40452708  0.66955306  0.59835170  1  0  2.25966  0  1.687449  0  0  2.182089  0  2.011863  0  0  2.223942  0  1.973506  0  2.217895  0  1.478467  2.147823  0  2.045518  0
Gd  Gd6  1  0.90452615  0.83044616  0.09835173  1  0  2.259669  0  1.687387  0  0  2.182072  0  2.011831  0  0  2.223925  0  1.973474  0  2.217898  0  1.478455  2.147815  0  2.045472  0
Gd  Gd7  1  0.59547261  0.33044692  0.40164840  1  0  2.259652  0  1.68745  0  0  2.182088  0  2.011854  0  0  2.22394  0  1.973495  0  2.217893  0  1.478465  2.147822  0  2.045508  0
H  H8  1  0.30621003  0.01174017  0.49539269  1  0  0.325626  0  0.83867  0  0  0.312624  0  0.885873  0  0  0.320047  0  0.880698  0  0.529047  0  0.347612  0.307293  0  0.889779  0
H  H9  1  0.19378748  0.51174016  0.00460675  1  0  0.325657  0  0.838587  0  0  0.312653  0  0.885795  0  0  0.32008  0  0.880618  0  0.529062  0  0.347627  0.307321  0  0.8897  0
H  H10  1  0.69378965  0.98825981  0.50460631  1  0  0.32565  0  0.838618  0  0  0.312655  0  0.88582  0  0  0.320075  0  0.880644  0  0.529069  0  0.347627  0.307323  0  0.889725  0
H  H11  1  0.80621066  0.48825907  0.99539331  1  0  0.325665  0  0.838588  0  0  0.312672  0  0.885788  0  0  0.320092  0  0.880613  0  0.529068  0  0.347628  0.30734  0  0.889693  0
H  H12  1  0.22931881  0.19751436  0.51452153  1  0  0.113078  0  0.94097  0  0  0.121375  0  1.000198  0  0  0.124551  0  0.996395  0  0.184003  0  0.152838  0.118963  0  1.002996  0
H  H13  1  0.27068026  0.69751586  0.98547851  1  0  0.11309  0  0.940972  0  0  0.12139  0  1.000193  0  0  0.124566  0  0.996391  0  0.184081  0  0.152832  0.11898  0  1.00299  0
H  H14  1  0.77067932  0.80248411  0.48547744  1  0  0.113094  0  0.940979  0  0  0.121386  0  1.000206  0  0  0.124561  0  0.996405  0  0.183996  0  0.152828  0.118973  0  1.003005  0
H  H15  1  0.72932099  0.30248487  0.01452218  1  0  0.113114  0  0.94098  0  0  0.121411  0  1.0002  0  0  0.124588  0  0.996398  0  0.183987  0  0.152841  0.118999  0  1.002998  0
H  H16  1  0.57003353  0.19657476  0.87791974  1  0  0.447097  0  0.843039  0  0  0.41876  0  0.901876  0  0  0.428857  0  0.887058  0  0.644955  0  0.314711  0.41158  0  0.912391  0
H  H17  1  0.92996523  0.69657400  0.62208040  1  0  0.447094  0  0.843031  0  0  0.418756  0  0.901878  0  0  0.428852  0  0.88706  0  0.644956  0  0.314711  0.411576  0  0.912393  0
H  H18  1  0.42996616  0.80342597  0.12207982  1  0  0.447101  0  0.842992  0  0  0.418763  0  0.901863  0  0  0.428859  0  0.887045  0  0.644961  0  0.314707  0.411584  0  0.912378  0
H  H19  1  0.07003135  0.30342673  0.37792073  1  0  0.447131  0  0.842946  0  0  0.418796  0  0.901812  0  0  0.428891  0  0.886996  0  0.644966  0  0.314738  0.411617  0  0.912327  0
H  H20  1  0.53234779  0.08626706  0.89962603  1  0  0.459824  0  0.79084  0  0  0.437104  0  0.851646  0  0  0.446272  0  0.840682  0  0.621914  0  0.330979  0.430492  0  0.859542  0
H  H21  1  0.96765563  0.58626555  0.60037421  1  0  0.459823  0  0.790835  0  0  0.437105  0  0.851638  0  0  0.446274  0  0.840672  0  0.621954  0  0.330973  0.430494  0  0.85953  0
H  H22  1  0.46765190  0.91373517  0.10037407  1  0  0.459825  0  0.790815  0  0  0.437105  0  0.851626  0  0  0.446274  0  0.840658  0  0.621939  0  0.330971  0.430492  0  0.859525  0
H  H23  1  0.03234717  0.41373518  0.39962651  1  0  0.459798  0  0.790864  0  0  0.437078  0  0.851671  0  0  0.446247  0  0.840705  0  0.621894  0  0.330964  0.430467  0  0.859567  0
H  H24  1  0.17533116  0.19485403  0.06315950  1  0  0.445787  0  0.841504  0  0  0.420391  0  0.894204  0  0  0.430121  0  0.879938  0  0.627111  0  0.309904  0.413445  0  0.90438  0
H  H25  1  0.32466947  0.69485327  0.43684003  1  0  0.44578  0  0.841507  0  0  0.420382  0  0.894213  0  0  0.430112  0  0.879946  0  0.627105  0  0.309896  0.413435  0  0.90439  0
H  H26  1  0.82466853  0.80514595  0.93684006  1  0  0.445775  0  0.841517  0  0  0.420377  0  0.894221  0  0  0.430106  0  0.879957  0  0.627312  0  0.309889  0.41343  0  0.904397  0
H  H27  1  0.67532867  0.30514596  0.56315949  1  0  0.445778  0  0.841509  0  0  0.420383  0  0.894211  0  0  0.430114  0  0.879944  0  0.627105  0  0.309905  0.413437  0  0.904387  0
H  H28  1  0.39874830  0.17435474  0.03851137  1  0  0.453319  0  0.837476  0  0  0.42603  0  0.893737  0  0  0.436092  0  0.87899  0  0.644695  0  0.305145  0.418858  0  0.904255  0
H  H29  1  0.10125077  0.67435548  0.46148867  1  0  0.453328  0  0.837458  0  0  0.426043  0  0.893713  0  0  0.436107  0  0.878964  0  0.644694  0  0.305153  0.41887  0  0.904234  0
H  H30  1  0.60124983  0.82564449  0.96148870  1  0  0.453327  0  0.837456  0  0  0.426043  0  0.893712  0  0  0.436106  0  0.878963  0  0.644694  0  0.305151  0.41887  0  0.904232  0
H  H31  1  0.89874892  0.32564450  0.53851144  1  0  0.453338  0  0.837441  0  0  0.426043  0  0.893714  0  0  0.436107  0  0.878964  0  0.644699  0  0.305146  0.418871  0  0.904232  0
H  H32  1  0.87844464  0.97415674  0.85276450  1  0  0.450908  0  0.84069  0  0  0.420061  0  0.903277  0  0  0.430379  0  0.888148  0  0.663317  0  0.311536  0.412692  0  0.914087  0
H  H33  1  0.62155412  0.47415525  0.64723618  1  0  0.450903  0  0.840688  0  0  0.420054  0  0.903284  0  0  0.430373  0  0.888153  0  0.663307  0  0.311538  0.412686  0  0.914092  0
H  H34  1  0.12155350  0.02584399  0.14723611  1  0  0.450899  0  0.840701  0  0  0.420049  0  0.903294  0  0  0.430368  0  0.888164  0  0.663311  0  0.311528  0.412682  0  0.914101  0
H  H35  1  0.37844557  0.52584398  0.35276392  1  0  0.450899  0  0.8407  0  0  0.420052  0  0.90329  0  0  0.430371  0  0.88816  0  0.663312  0  0.31153  0.412684  0  0.914097  0
H  H36  1  0.77887073  0.05568900  0.79857839  1  0  0.453917  0  0.78681  0  0  0.435084  0  0.841307  0  0  0.443378  0  0.831869  0  0.627224  0  0.334671  0.429088  0  0.848153  0
H  H37  1  0.72112959  0.55568823  0.70142233  1  0  0.453887  0  0.786857  0  0  0.435051  0  0.841361  0  0  0.443345  0  0.831922  0  0.627214  0  0.33465  0.429054  0  0.848208  0
H  H38  1  0.22112741  0.94431098  0.20142223  1  0  0.4539  0  0.786837  0  0  0.435064  0  0.841341  0  0  0.443358  0  0.831902  0  0.627218  0  0.334658  0.429068  0  0.848187  0
H  H39  1  0.27887166  0.44431174  0.29857781  1  0  0.453902  0  0.786828  0  0  0.435067  0  0.84133  0  0  0.44336  0  0.831893  0  0.627218  0  0.334663  0.429071  0  0.848176  0
C  C40  1  0.23699533  0.14067471  0.55717572  1  0  0.29776  0  3.602694  0  0  0.233131  0  3.888632  0  0  0.248922  0  3.895971  0  1.024877  0  0.179002  0.222834  0  3.88331  0
C  C41  1  0.26300529  0.64067470  0.94282435  1  0  0.297723  0  3.602704  0  0  0.23309  0  3.888637  0  0  0.248887  0  3.895977  0  1.024792  0  0.179006  0.222791  0  3.88332  0
C  C42  1  0.76300436  0.85932452  0.44282384  1  0  0.297729  0  3.602713  0  0  0.233127  0  3.888634  0  0  0.248913  0  3.895971  0  1.024858  0  0.179023  0.22283  0  3.883314  0
C  C43  1  0.73699596  0.35932378  0.05717634  1  0  0.297639  0  3.602817  0  0  0.233018  0  3.88875  0  0  0.248807  0  3.896087  0  1.024863  0  0.178973  0.22272  0  3.883432  0
C  C44  1  0.28031830  0.99097573  0.61014340  1  0  0.031238  0  3.637943  0  0  0.018932  0  3.88847  0  0  0.017553  0  3.905852  0  0.359919  0  0.102538  0.019581  0  3.877216  0
C  C45  1  0.21968388  0.49097574  0.88985616  1  0  0.031284  0  3.637803  0  0  0.018971  0  3.888381  0  0  0.017592  0  3.905768  0  0.360089  0  0.102547  0.019622  0  3.877125  0
C  C46  1  0.71968450  0.00902425  0.38985623  1  0  0.031207  0  3.637728  0  0  0.018889  0  3.888302  0  0  0.017501  0  3.905685  0  0.360303  0  0.102542  0.01954  0  3.877048  0
C  C47  1  0.78031737  0.50902499  0.11014398  1  0  0.031294  0  3.637808  0  0  0.018957  0  3.888415  0  0  0.017572  0  3.905801  0  0.360088  0  0.102539  0.019606  0  3.877157  0
C  C48  1  0.24080015  0.06355733  0.66236869  1  0  0.033772  0  3.695844  0  0  0.029246  0  3.9458  0  0  0.027534  0  3.964843  0  0.495237  0  0.101343  0.030225  0  3.933292  0
C  C49  1  0.25920358  0.56356108  0.83763255  1  0  0.033821  0  3.695986  0  0  0.02926  0  3.946006  0  0  0.027549  0  3.965047  0  0.495464  0  0.1013  0.030238  0  3.933497  0
C  C50  1  0.75920265  0.93644039  0.33763094  1  0  0.033858  0  3.695925  0  0  0.02934  0  3.94589  0  0  0.027627  0  3.964931  0  0.495245  0  0.101334  0.030317  0  3.933382  0
C  C51  1  0.74080077  0.43644190  0.16236876  1  0  0.033832  0  3.695679  0  0  0.029309  0  3.945684  0  0  0.027592  0  3.964729  0  0.495518  0  0.101356  0.030287  0  3.933175  0
C  C52  1  0.33424995  0.88357997  0.60932520  1  0  0.670358  0  3.92193  0  0  0.624519  0  4.221941  0  0  0.660122  0  4.209495  0  1.599302  0  0.220119  0.600341  0  4.229493  0
C  C53  1  0.16575067  0.38358148  0.89067433  1  0  0.670333  0  3.921846  0  0  0.624488  0  4.221887  0  0  0.660093  0  4.209443  0  1.59896  0  0.220126  0.600308  0  4.22944  0
C  C54  1  0.66575285  0.11641926  0.39067443  1  0  0.670509  0  3.92178  0  0  0.624682  0  4.221789  0  0  0.660286  0  4.209344  0  1.599563  0  0.220188  0.600501  0  4.229345  0
C  C55  1  0.83424902  0.61641850  0.10932523  1  0  0.670431  0  3.921892  0  0  0.624588  0  4.221935  0  0  0.660192  0  4.209495  0  1.598896  0  0.220175  0.600414  0  4.229479  0
C  C56  1  0.23059745  0.05925589  0.74296715  1  0  0.736351  0  3.843631  0  0  0.690928  0  4.136909  0  0  0.727827  0  4.121864  0  1.607599  0  0.249677  0.66565  0  4.146468  0
C  C57  1  0.26940317  0.55925588  0.75703237  1  0  0.736295  0  3.843647  0  0  0.690883  0  4.136925  0  0  0.727786  0  4.121878  0  1.607632  0  0.249715  0.665606  0  4.146479  0
C  C58  1  0.76940224  0.94074409  0.25703186  1  0  0.73632  0  3.843712  0  0  0.69089  0  4.137004  0  0  0.727797  0  4.121949  0  1.607615  0  0.249714  0.665613  0  4.146558  0
C  C59  1  0.73059963  0.44074410  0.24296835  1  0  0.736294  0  3.843745  0  0  0.690848  0  4.137071  0  0  0.727755  0  4.122016  0  1.607624  0  0.249651  0.665571  0  4.146621  0
S  S60  1  0.72198668  0.28611654  0.76353331  1  0  1.632179  0  5.800875  0  0  1.51898  0  6.341552  0  0  1.575768  0  6.303122  0  3.81933  0  0.569865  1.479458  0  6.366535  0
S  S61  1  0.77801363  0.78611653  0.73646687  1  0  1.632168  0  5.800824  0  0  1.518975  0  6.341506  0  0  1.575764  0  6.303072  0  3.819284  0  0.569865  1.479452  0  6.366492  0
S  S62  1  0.27801301  0.71388344  0.23646625  1  0  1.632143  0  5.800925  0  0  1.518942  0  6.341615  0  0  1.575732  0  6.303185  0  3.819269  0  0.569827  1.47942  0  6.366597  0
S  S63  1  0.22198606  0.21388420  0.26353324  1  0  1.632122  0  5.800876  0  0  1.518924  0  6.341564  0  0  1.57571  0  6.303138  0  3.819315  0  0.569841  1.479402  0  6.366552  0
S  S64  1  0.31019996  0.40090595  0.55890885  1  0  1.639497  0  5.78451  0  0  1.513023  0  6.330225  0  0  1.569102  0  6.293296  0  3.846132  0  0.595514  1.474351  0  6.35364  0
S  S65  1  0.18979911  0.90090669  0.94109119  1  0  1.639554  0  5.784418  0  0  1.513105  0  6.330104  0  0  1.56918  0  6.293176  0  3.845879  0  0.595568  1.474428  0  6.353526  0
S  S66  1  0.68979817  0.59909403  0.44109067  1  0  1.639499  0  5.784484  0  0  1.513057  0  6.330173  0  0  1.569131  0  6.293249  0  3.845977  0  0.595537  1.474381  0  6.353593  0
S  S67  1  0.81019903  0.09909404  0.05890888  1  0  1.639554  0  5.784439  0  0  1.513082  0  6.330153  0  0  1.569161  0  6.293222  0  3.846224  0  0.595539  1.474409  0  6.353573  0
N  N68  1  0.21609372  0.15567532  0.62829985  1  0  -0.462156  0  3.171496  0  0  -0.425792  0  3.453498  0  0  -0.442347  0  3.469066  0  -1.196529  0  -0.399563  -0.414228  0  3.442952  0
N  N69  1  0.28390845  0.65567531  0.87169916  1  0  -0.462193  0  3.17183  0  0  -0.425819  0  3.453852  0  0  -0.442373  0  3.469415  0  -1.19662  0  -0.399583  -0.414262  0  3.443309  0
N  N70  1  0.78390596  0.84432465  0.37169861  1  0  -0.462232  0  3.171782  0  0  -0.42588  0  3.453784  0  0  -0.442436  0  3.469352  0  -1.196664  0  -0.399598  -0.414318  0  3.443241  0
N  N71  1  0.71609590  0.34432316  0.12829995  1  0  -0.462174  0  3.171506  0  0  -0.425806  0  3.453511  0  0  -0.442362  0  3.469079  0  -1.196578  0  -0.399581  -0.41425  0  3.442966  0
N  N72  1  0.27669548  0.04281770  0.54455429  1  0  -0.288106  0  3.423201  0  0  -0.232899  0  3.666689  0  0  -0.247045  0  3.677992  0  -1.279845  0  -0.363395  -0.223471  0  3.659156  0
N  N73  1  0.22330515  0.54281844  0.95544469  1  0  -0.288122  0  3.423167  0  0  -0.232904  0  3.666659  0  0  -0.247064  0  3.677974  0  -1.279884  0  -0.363388  -0.223475  0  3.659125  0
N  N74  1  0.72330577  0.95718153  0.45544476  1  0  -0.288075  0  3.423194  0  0  -0.232893  0  3.666708  0  0  -0.247025  0  3.678001  0  -1.27984  0  -0.363386  -0.223464  0  3.659174  0
N  N75  1  0.77669610  0.45718079  0.04455545  1  0  -0.288091  0  3.423098  0  0  -0.232893  0  3.666614  0  0  -0.247032  0  3.67791  0  -1.279895  0  -0.363374  -0.223464  0  3.65908  0
O  O76  1  0.17473850  0.14178706  0.77288425  1  0  -0.799283  0  2.151161  0  0  -0.760805  0  2.408547  0  0  -0.787154  0  2.39689  0  -1.187079  0  -0.405823  -0.741522  0  2.41589  0
O  O77  1  0.32526212  0.64178930  0.72711582  1  0  -0.799271  0  2.151164  0  0  -0.760807  0  2.408563  0  0  -0.787154  0  2.396906  0  -1.187109  0  -0.405867  -0.741525  0  2.415906  0
O  O78  1  0.82526119  0.85821217  0.22711531  1  0  -0.799303  0  2.151234  0  0  -0.760802  0  2.408577  0  0  -0.787155  0  2.39692  0  -1.187081  0  -0.405852  -0.741517  0  2.415918  0
O  O79  1  0.67473757  0.35821218  0.27288483  1  0  -0.799256  0  2.151161  0  0  -0.760761  0  2.408526  0  0  -0.787115  0  2.396868  0  -1.187096  0  -0.405826  -0.741482  0  2.41587  0
O  O80  1  0.59431219  0.37827058  0.76936056  1  0  -0.769096  0  1.939071  0  0  -0.72736  0  2.186606  0  0  -0.749857  0  2.17082  0  -1.336167  0  -0.399796  -0.711083  0  2.197114  0
O  O81  1  0.90568812  0.87827057  0.73063961  1  0  -0.769092  0  1.939089  0  0  -0.727357  0  2.186626  0  0  -0.749848  0  2.170829  0  -1.336165  0  -0.399799  -0.711084  0  2.197133  0
O  O82  1  0.40568750  0.62172940  0.23063954  1  0  -0.769102  0  1.93908  0  0  -0.727363  0  2.186612  0  0  -0.749856  0  2.170815  0  -1.336169  0  -0.399813  -0.711086  0  2.197121  0
O  O83  1  0.09431312  0.12172941  0.26935998  1  0  -0.769089  0  1.939065  0  0  -0.727352  0  2.186601  0  0  -0.749846  0  2.170808  0  -1.336152  0  -0.399794  -0.71108  0  2.197108  0
O  O84  1  0.79570930  0.25050547  0.83893406  1  0  -0.818075  0  2.042298  0  0  -0.763246  0  2.297158  0  0  -0.785845  0  2.279452  0  -1.346193  0  -0.40336  -0.746833  0  2.308728  0
O  O85  1  0.70429101  0.75050546  0.66106611  1  0  -0.818091  0  2.042329  0  0  -0.763272  0  2.297194  0  0  -0.785871  0  2.279486  0  -1.346186  0  -0.403361  -0.746857  0  2.308765  0
O  O86  1  0.20429195  0.74949375  0.16106608  1  0  -0.818068  0  2.042361  0  0  -0.763237  0  2.297218  0  0  -0.785839  0  2.279515  0  -1.346202  0  -0.403329  -0.746825  0  2.308792  0
O  O87  1  0.29570868  0.24949452  0.33893399  1  0  -0.818084  0  2.042315  0  0  -0.763258  0  2.297167  0  0  -0.785856  0  2.27946  0  -1.346174  0  -0.403359  -0.746843  0  2.308738  0
O  O88  1  0.90159553  0.30498448  0.71903450  1  0  -0.776797  0  2.025242  0  0  -0.731757  0  2.296203  0  0  -0.754233  0  2.276785  0  -1.34645  0  -0.4227  -0.715155  0  2.309315  0
O  O89  1  0.59840478  0.80498447  0.78096567  1  0  -0.776779  0  2.025163  0  0  -0.731734  0  2.296097  0  0  -0.754208  0  2.276677  0  -1.34645  0  -0.422727  -0.715139  0  2.309208  0
O  O90  1  0.09840415  0.69501625  0.28096505  1  0  -0.776789  0  2.025198  0  0  -0.731739  0  2.296132  0  0  -0.754216  0  2.276713  0  -1.346443  0  -0.422705  -0.715138  0  2.309245  0
O  O91  1  0.40159647  0.19501626  0.21903447  1  0  -0.776758  0  2.025173  0  0  -0.731721  0  2.296122  0  0  -0.754196  0  2.276701  0  -1.346444  0  -0.422713  -0.715127  0  2.309231  0
O  O92  1  0.58119754  0.20799647  0.72818658  1  0  -0.784795  0  1.921525  0  0  -0.741028  0  2.168796  0  0  -0.763373  0  2.152496  0  -1.336429  0  -0.411535  -0.724726  0  2.179707  0
O  O93  1  0.91880277  0.70799571  0.77181359  1  0  -0.784792  0  1.921514  0  0  -0.74102  0  2.168783  0  0  -0.763366  0  2.152482  0  -1.336398  0  -0.411526  -0.724723  0  2.179693  0
O  O94  1  0.41880215  0.79200351  0.27181352  1  0  -0.784775  0  1.921534  0  0  -0.741013  0  2.168808  0  0  -0.763359  0  2.152508  0  -1.336378  0  -0.411503  -0.724711  0  2.17972  0
O  O95  1  0.08119692  0.29200427  0.22818706  1  0  -0.784767  0  1.921553  0  0  -0.740992  0  2.168819  0  0  -0.763338  0  2.152519  0  -1.336453  0  -0.411525  -0.724696  0  2.179728  0
O  O96  1  0.34102116  0.35002913  0.48853497  1  0  -0.785139  0  2.06762  0  0  -0.73578  0  2.340996  0  0  -0.757677  0  2.32308  0  -1.352385  0  -0.409068  -0.719908  0  2.352605  0
O  O97  1  0.15897791  0.85002912  0.01146506  1  0  -0.785131  0  2.067572  0  0  -0.735787  0  2.340974  0  0  -0.75768  0  2.323057  0  -1.352378  0  -0.409074  -0.719917  0  2.352584  0
O  O98  1  0.65897853  0.64997084  0.51146513  1  0  -0.785116  0  2.067589  0  0  -0.735754  0  2.340952  0  0  -0.757648  0  2.323036  0  -1.352375  0  -0.409064  -0.719883  0  2.352563  0
O  O99  1  0.84102178  0.14997085  0.98853450  1  0  -0.785129  0  2.067557  0  0  -0.735775  0  2.340955  0  0  -0.757677  0  2.323041  0  -1.352382  0  -0.409068  -0.719905  0  2.352563  0
O  O100  1  0.11376031  0.36633138  0.58952777  1  0  -0.763453  0  2.009817  0  0  -0.70797  0  2.259124  0  0  -0.730668  0  2.24208  0  -1.335399  0  -0.371636  -0.691783  0  2.270549  0
O  O101  1  0.38624031  0.86633137  0.91047176  1  0  -0.763464  0  2.009737  0  0  -0.708042  0  2.259079  0  0  -0.730737  0  2.242035  0  -1.335386  0  -0.371663  -0.691847  0  2.270492  0
O  O102  1  0.88623938  0.63366785  0.41047234  1  0  -0.763478  0  2.009804  0  0  -0.708041  0  2.259118  0  0  -0.73074  0  2.242079  0  -1.335445  0  -0.371657  -0.691842  0  2.27053  0
O  O103  1  0.61376093  0.13366861  0.08952784  1  0  -0.763459  0  2.009822  0  0  -0.707978  0  2.259105  0  0  -0.730675  0  2.242061  0  -1.335389  0  -0.37165  -0.691796  0  2.270528  0
O  O104  1  0.47956412  0.36836456  0.61555876  1  0  -0.825594  0  2.070017  0  0  -0.763292  0  2.314029  0  0  -0.787253  0  2.297727  0  -1.333964  0  -0.383941  -0.745891  0  2.324428  0
O  O105  1  0.02043495  0.86836454  0.88444072  1  0  -0.825585  0  2.070008  0  0  -0.763277  0  2.314018  0  0  -0.787232  0  2.297708  0  -1.333966  0  -0.383934  -0.74588  0  2.324418  0
O  O106  1  0.52043557  0.63163542  0.38444079  1  0  -0.825582  0  2.070031  0  0  -0.763284  0  2.314042  0  0  -0.787245  0  2.297739  0  -1.333986  0  -0.383939  -0.745882  0  2.324441  0
O  O107  1  0.97956474  0.13163543  0.11555938  1  0  -0.825621  0  2.069996  0  0  -0.763311  0  2.314002  0  0  -0.787269  0  2.297693  0  -1.333959  0  -0.383948  -0.745914  0  2.324398  0
O  O108  1  0.31063395  0.51051064  0.54938332  1  0  -0.777603  0  2.048791  0  0  -0.730515  0  2.321093  0  0  -0.751469  0  2.30194  0  -1.354201  0  -0.407801  -0.715272  0  2.333522  0
O  O109  1  0.18936512  0.01051065  0.95061726  1  0  -0.777624  0  2.048793  0  0  -0.73053  0  2.321082  0  0  -0.751484  0  2.301931  0  -1.353991  0  -0.407802  -0.71529  0  2.333514  0
O  O110  1  0.68936418  0.48948934  0.45061729  1  0  -0.777593  0  2.048763  0  0  -0.730516  0  2.321061  0  0  -0.751469  0  2.301909  0  -1.354008  0  -0.407799  -0.715274  0  2.333494  0
O  O111  1  0.81063457  0.98948933  0.04938285  1  0  -0.777621  0  2.048761  0  0  -0.73053  0  2.32106  0  0  -0.751483  0  2.301906  0  -1.354285  0  -0.407795  -0.715288  0  2.333488  0
O  O112  1  0.46434796  0.15183504  0.89756017  1  0  -0.885307  0  1.892356  0  0  -0.847745  0  2.092576  0  0  -0.865227  0  2.065096  0  -1.232298  0  -0.636134  -0.83483  0  2.111669  0
O  O113  1  0.03565266  0.65183503  0.60243990  1  0  -0.885304  0  1.892343  0  0  -0.847749  0  2.092564  0  0  -0.865232  0  2.065085  0  -1.232337  0  -0.636131  -0.834829  0  2.111661  0
O  O114  1  0.53565173  0.84816494  0.10243884  1  0  -0.885325  0  1.892309  0  0  -0.847748  0  2.09251  0  0  -0.865232  0  2.065033  0  -1.232327  0  -0.636117  -0.834831  0  2.111605  0
O  O115  1  0.96434858  0.34816570  0.39756243  1  0  -0.885331  0  1.892327  0  0  -0.84776  0  2.092533  0  0  -0.865243  0  2.065054  0  -1.23229  0  -0.636144  -0.834841  0  2.11163  0
O  O116  1  0.26356995  0.20466467  0.02165556  1  0  -0.900367  0  1.851218  0  0  -0.864684  0  2.03117  0  0  -0.882636  0  2.000912  0  -1.244898  0  -0.648331  -0.851429  0  2.052259  0
O  O117  1  0.23643068  0.70466466  0.47834451  1  0  -0.900385  0  1.851186  0  0  -0.864708  0  2.031137  0  0  -0.882655  0  2.000869  0  -1.244888  0  -0.648351  -0.851453  0  2.052229  0
O  O118  1  0.73643130  0.79533606  0.97834457  1  0  -0.900377  0  1.851205  0  0  -0.864688  0  2.031152  0  0  -0.882644  0  2.000905  0  -1.2451  0  -0.64834  -0.851434  0  2.052244  0
O  O119  1  0.76356746  0.29533532  0.52165501  1  0  -0.900385  0  1.851186  0  0  -0.864713  0  2.031148  0  0  -0.88266  0  2.00088  0  -1.244893  0  -0.648346  -0.851456  0  2.052238  0
O  O120  1  0.83282416  0.04525045  0.84921450  1  0  -0.875992  0  1.853648  0  0  -0.836907  0  2.042149  0  0  -0.854142  0  2.014778  0  -1.257746  0  -0.605634  -0.824316  0  2.061335  0
O  O121  1  0.66717615  0.54525044  0.65078567  1  0  -0.875969  0  1.853677  0  0  -0.836883  0  2.042169  0  0  -0.854118  0  2.014796  0  -1.257724  0  -0.605618  -0.824289  0  2.061355  0
O  O122  1  0.16717553  0.95474952  0.15078560  1  0  -0.875964  0  1.853664  0  0  -0.836882  0  2.04217  0  0  -0.854119  0  2.014803  0  -1.25773  0  -0.605613  -0.824288  0  2.061356  0
O  O123  1  0.33282354  0.45474953  0.34921443  1  0  -0.875967  0  1.853668  0  0  -0.836889  0  2.042167  0  0  -0.854124  0  2.014795  0  -1.257734  0  -0.605619  -0.824295  0  2.061353  0
O  O124  1  0.43348165  0.85224482  0.55655872  1  0  -0.63103  0  1.962327  0  0  -0.600528  0  2.199509  0  0  -0.622459  0  2.189086  0  -1.155816  0  -0.335129  -0.585039  0  2.206141  0
O  O125  1  0.06652209  0.35224558  0.94344197  1  0  -0.631051  0  1.962239  0  0  -0.600554  0  2.199442  0  0  -0.622484  0  2.189018  0  -1.155785  0  -0.335152  -0.585065  0  2.206074  0
O  O126  1  0.56652115  0.14775441  0.44344091  1  0  -0.63108  0  1.962204  0  0  -0.600599  0  2.199409  0  0  -0.622531  0  2.188987  0  -1.156371  0  -0.33515  -0.585109  0  2.206043  0
O  O127  1  0.93347605  0.64775440  0.05655754  1  0  -0.631087  0  1.962263  0  0  -0.600575  0  2.199455  0  0  -0.622505  0  2.189033  0  -1.155729  0  -0.33514  -0.585088  0  2.206085  0
O  O128  1  0.27714502  0.82274155  0.65922955  1  0  -0.792828  0  2.175416  0  0  -0.746752  0  2.428328  0  0  -0.774103  0  2.418116  0  -1.201393  0  -0.438991  -0.726725  0  2.43453  0
O  O129  1  0.22285404  0.32274081  0.84077048  1  0  -0.792798  0  2.175435  0  0  -0.746719  0  2.428374  0  0  -0.774062  0  2.418141  0  -1.201416  0  -0.438989  -0.726688  0  2.434579  0
O  O130  1  0.72285622  0.17725918  0.34077059  1  0  -0.792893  0  2.175438  0  0  -0.746831  0  2.428377  0  0  -0.774174  0  2.418137  0  -1.201443  0  -0.439043  -0.726805  0  2.434582  0
O  O131  1  0.77714254  0.67725917  0.15922900  1  0  -0.792854  0  2.175388  0  0  -0.74679  0  2.428345  0  0  -0.774128  0  2.418098  0  -1.20142  0  -0.439045  -0.726761  0  2.434551  0
O  O132  1  0.27601882  0.98029984  0.77828387  1  0  -0.689603  0  2.071941  0  0  -0.656259  0  2.330809  0  0  -0.680364  0  2.317271  0  -1.198062  0  -0.378502  -0.638891  0  2.33969  0
O  O133  1  0.22398180  0.48030135  0.72171620  1  0  -0.689567  0  2.072005  0  0  -0.656218  0  2.33087  0  0  -0.680324  0  2.317332  0  -1.198015  0  -0.378482  -0.638851  0  2.339768  0
O  O134  1  0.72398087  0.01970014  0.22171569  1  0  -0.689602  0  2.071978  0  0  -0.656261  0  2.330856  0  0  -0.680368  0  2.317312  0  -1.198063  0  -0.378515  -0.6389  0  2.339747  0
O  O135  1  0.77602100  0.51970013  0.27828343  1  0  -0.689603  0  2.07207  0  0  -0.656242  0  2.330946  0  0  -0.680349  0  2.317403  0  -1.198071  0  -0.378487  -0.638883  0  2.339859  0
