# generated using pymatgen
data_AgH4C6N3O8
_symmetry_space_group_name_H-M   'P 1'
_cell_length_a   3.77648243
_cell_length_b   11.93149204
_cell_length_c   11.93155425
_cell_angle_alpha   117.09654614
_cell_angle_beta   92.25091243
_cell_angle_gamma   92.25088422
_symmetry_Int_Tables_number   1
_chemical_formula_structural   AgH4C6N3O8
_chemical_formula_sum   'Ag2 H8 C12 N6 O16'
_cell_volume   477.25737220
_cell_formula_units_Z   2
loop_
 _symmetry_equiv_pos_site_id
 _symmetry_equiv_pos_as_xyz
  1  'x, y, z'
loop_
 _atom_site_type_symbol
 _atom_site_label
 _atom_site_symmetry_multiplicity
 _atom_site_fract_x
 _atom_site_fract_y
 _atom_site_fract_z
 _atom_site_occupancy
 _atom_site_hle17_bader_spin_density
 _atom_site_hle17_ddec_charge
 _atom_site_hle17_ddec_spin_density
 _atom_site_hle17_ddec_sum_bond_order
 _atom_site_hle17_magmom
 _atom_site_hse06_10hf_bader_spin_density
 _atom_site_hse06_10hf_ddec_charge
 _atom_site_hse06_10hf_ddec_spin_density
 _atom_site_hse06_10hf_ddec_sum_bond_order
 _atom_site_hse06_10hf_magmom
 _atom_site_hse06_bader_spin_density
 _atom_site_hse06_ddec_charge
 _atom_site_hse06_ddec_spin_density
 _atom_site_hse06_ddec_sum_bond_order
 _atom_site_hse06_magmom
 _atom_site_pbe_bader_spin_density
 _atom_site_pbe_cm5_charge
 _atom_site_pbe_ddec_charge
 _atom_site_pbe_ddec_spin_density
 _atom_site_pbe_ddec_sum_bond_order
 _atom_site_pbe_magmom
Ag  Ag0  1  0.50000306  0.50000093  0.50000051  1  0  0.802006  0  1.231655  0  0  0.716454  0  1.63654  0  0  0.726495  0  1.590809  0  0  0.522078  0.710799  0  1.667948  0
Ag  Ag1  1  0.00000950  0.99999870  0.00000059  1  0  0.695209  0  1.08225  0  0  0.577526  0  1.476513  0  0  0.610172  0  1.421502  0  0  0.4099  0.555527  0  1.514963  0
H  H2  1  0.56623776  0.77504546  0.85091437  1  0  0.419058  0  0.8658  0  0  0.389683  0  0.932575  0  0  0.399843  0  0.917571  0  0  0.296236  0.382574  0  0.943077  0
H  H3  1  0.43377162  0.14908690  0.22495622  1  0  0.419102  0  0.865696  0  0  0.389703  0  0.932543  0  0  0.399864  0  0.917537  0  0  0.296229  0.382598  0  0.943042  0
H  H4  1  0.43377638  0.22495648  0.14908845  1  0  0.419069  0  0.865773  0  0  0.389675  0  0.932582  0  0  0.399837  0  0.917567  0  0  0.296222  0.382567  0  0.943083  0
H  H5  1  0.56623710  0.85091405  0.77504611  1  0  0.419058  0  0.865774  0  0  0.389678  0  0.93257  0  0  0.399839  0  0.917556  0  0  0.296235  0.38257  0  0.943071  0
H  H6  1  0.76207725  0.38488324  0.91850196  1  0  0.147884  0  0.9591  0  0  0.145591  0  1.034749  0  0  0.150681  0  1.028269  0  0  0.125268  0.141903  0  1.039318  0
H  H7  1  0.23790600  0.08150074  0.61511478  1  0  0.147855  0  0.95917  0  0  0.14554  0  1.034871  0  0  0.150626  0  1.028391  0  0  0.125261  0.141839  0  1.039457  0
H  H8  1  0.23789647  0.61511370  0.08149746  1  0  0.14791  0  0.959103  0  0  0.145583  0  1.03481  0  0  0.150687  0  1.028344  0  0  0.125275  0.141861  0  1.039413  0
H  H9  1  0.76211142  0.91850683  0.38488803  1  0  0.147831  0  0.959186  0  0  0.145513  0  1.034885  0  0  0.150619  0  1.028417  0  0  0.125253  0.141793  0  1.039494  0
C  C10  1  0.99999351  0.36801049  0.63198591  1  0  0.329166  0  3.838607  0  0  0.298671  0  4.12372  0  0  0.322202  0  4.133848  0  0  0.11438  0.283485  0  4.115846  0
C  C11  1  0.00000407  0.63198749  0.36801082  1  0  0.329112  0  3.838684  0  0  0.29863  0  4.123786  0  0  0.322161  0  4.13397  0  0  0.114367  0.283443  0  4.115914  0
C  C12  1  0.86592867  0.41470784  0.75797050  1  0  -0.049092  0  3.609847  0  0  -0.067054  0  3.869384  0  0  -0.082293  0  3.894009  0  0  0.059091  -0.058241  0  3.854205  0
C  C13  1  0.13406342  0.24202507  0.58529117  1  0  -0.049203  0  3.609903  0  0  -0.067164  0  3.869459  0  0  -0.082405  0  3.894084  0  0  0.059097  -0.058334  0  3.854254  0
C  C14  1  0.13406645  0.58529110  0.24202831  1  0  -0.049004  0  3.60971  0  0  -0.066978  0  3.869278  0  0  -0.082215  0  3.893977  0  0  0.059119  -0.058172  0  3.854113  0
C  C15  1  0.86593380  0.75797008  0.41470431  1  0  -0.049258  0  3.609943  0  0  -0.067184  0  3.869521  0  0  -0.082423  0  3.894225  0  0  0.059072  -0.058341  0  3.854294  0
C  C16  1  0.86662948  0.34621869  0.82550874  1  0  -0.072547  0  3.698512  0  0  -0.117274  0  3.973455  0  0  -0.10584  0  3.98759  0  0  -0.06027  -0.123888  0  3.963198  0
C  C17  1  0.13334537  0.17448946  0.65378402  1  0  -0.072444  0  3.698577  0  0  -0.117153  0  3.973478  0  0  -0.105713  0  3.987606  0  0  -0.060249  -0.123758  0  3.963241  0
C  C18  1  0.13334990  0.65378111  0.17449198  1  0  -0.072603  0  3.698714  0  0  -0.117317  0  3.973642  0  0  -0.105668  0  3.986934  0  0  -0.060305  -0.123906  0  3.963417  0
C  C19  1  0.86664740  0.82551138  0.34621728  1  0  -0.072299  0  3.6985  0  0  -0.117026  0  3.9734  0  0  -0.105374  0  3.986682  0  0  -0.060204  -0.123624  0  3.963188  0
C  C20  1  0.99998131  0.22697024  0.77302926  1  0  0.063328  0  3.708439  0  0  0.050497  0  3.963603  0  0  0.037225  0  3.988375  0  0  0.070387  0.058892  0  3.946693  0
C  C21  1  0.99999804  0.77302611  0.22696680  1  0  0.063271  0  3.708533  0  0  0.050479  0  3.963702  0  0  0.041356  0  3.99106  0  0  0.070437  0.05889  0  3.946776  0
N  N22  1  0.72060094  0.53780786  0.82024067  1  0  0.488216  0  3.917428  0  0  0.545216  0  4.170829  0  0  0.568101  0  4.179818  0  0  0.049334  0.530098  0  4.164465  0
N  N23  1  0.27939869  0.17975649  0.46219020  1  0  0.488213  0  3.917481  0  0  0.545223  0  4.170878  0  0  0.568107  0  4.17987  0  0  0.049291  0.530104  0  4.164534  0
N  N24  1  0.27939619  0.46218637  0.17975523  1  0  0.488158  0  3.917413  0  0  0.54514  0  4.170883  0  0  0.568029  0  4.179865  0  0  0.049269  0.530019  0  4.164524  0
N  N25  1  0.72060981  0.82024347  0.53780918  1  0  0.488293  0  3.917281  0  0  0.545203  0  4.170783  0  0  0.568089  0  4.179771  0  0  0.049369  0.530084  0  4.164431  0
N  N26  1  0.99998688  0.15568233  0.84431893  1  0  0.473139  0  3.942166  0  0  0.531503  0  4.193215  0  0  0.553812  0  4.204875  0  0  0.046338  0.516565  0  4.185394  0
N  N27  1  0.99999914  0.84432357  0.15568559  1  0  0.473276  0  3.942126  0  0  0.531568  0  4.193251  0  0  0.539095  0  4.228814  0  0  0.046301  0.516624  0  4.185439  0
O  O28  1  0.00000113  0.43012873  0.56987070  1  0  -0.552343  0  2.278669  0  0  -0.514041  0  2.583892  0  0  -0.535247  0  2.571884  0  0  -0.311887  -0.499374  0  2.591477  0
O  O29  1  0.00000409  0.56986993  0.43012955  1  0  -0.55234  0  2.278639  0  0  -0.514046  0  2.583866  0  0  -0.535252  0  2.571858  0  0  -0.311901  -0.499377  0  2.59145  0
O  O30  1  0.33157252  0.24020278  0.40112953  1  0  -0.356309  0  1.830081  0  0  -0.343061  0  2.039097  0  0  -0.352305  0  2.029237  0  0  -0.121212  -0.337344  0  2.046353  0
O  O31  1  0.66843657  0.59887322  0.75980018  1  0  -0.356273  0  1.830235  0  0  -0.34303  0  2.039251  0  0  -0.352274  0  2.029394  0  0  -0.121213  -0.337317  0  2.0465  0
O  O32  1  0.66844638  0.75979539  0.59886998  1  0  -0.356355  0  1.830158  0  0  -0.343068  0  2.039191  0  0  -0.352315  0  2.02933  0  0  -0.121277  -0.337354  0  2.04644  0
O  O33  1  0.33156419  0.40112769  0.24020206  1  0  -0.356331  0  1.830296  0  0  -0.343061  0  2.039303  0  0  -0.352308  0  2.029442  0  0  -0.12122  -0.337347  0  2.046555  0
O  O34  1  0.64792273  0.57765839  0.93225190  1  0  -0.352931  0  1.811715  0  0  -0.344443  0  2.023202  0  0  -0.359369  0  2.021085  0  0  -0.130169  -0.334361  0  2.024557  0
O  O35  1  0.35208167  0.06775031  0.42234334  1  0  -0.352867  0  1.811932  0  0  -0.34441  0  2.02346  0  0  -0.359329  0  2.02133  0  0  -0.130119  -0.334327  0  2.024823  0
O  O36  1  0.35207232  0.42234052  0.06774522  1  0  -0.352838  0  1.811782  0  0  -0.344362  0  2.023303  0  0  -0.359304  0  2.02122  0  0  -0.130084  -0.334265  0  2.024655  0
O  O37  1  0.64792717  0.93225160  0.57765941  1  0  -0.352914  0  1.811788  0  0  -0.344395  0  2.02331  0  0  -0.359334  0  2.02123  0  0  -0.130157  -0.334319  0  2.024677  0
O  O38  1  0.84525242  0.19815333  0.94426343  1  0  -0.343418  0  1.813448  0  0  -0.336814  0  2.029499  0  0  -0.351373  0  2.024988  0  0  -0.122382  -0.32719  0  2.032879  0
O  O39  1  0.15474118  0.05573929  0.80184922  1  0  -0.343316  0  1.813324  0  0  -0.336742  0  2.029405  0  0  -0.351302  0  2.0249  0  0  -0.122329  -0.327115  0  2.032778  0
O  O40  1  0.15474839  0.80184849  0.05573754  1  0  -0.343482  0  1.813213  0  0  -0.336854  0  2.029292  0  0  -0.346345  0  2.032088  0  0  -0.122406  -0.327223  0  2.032667  0
O  O41  1  0.84527318  0.94426452  0.19815359  1  0  -0.343327  0  1.813527  0  0  -0.336707  0  2.029619  0  0  -0.346191  0  2.032419  0  0  -0.122257  -0.327079  0  2.032999  0
O  O42  1  0.54239857  0.86079659  0.86079771  1  0  -0.823805  0  1.964913  0  0  -0.757438  0  2.185873  0  0  -0.781323  0  2.148461  0  0  -0.5771  -0.739985  0  2.211558  0
O  O43  1  0.45761284  0.13920441  0.13920550  1  0  -0.823852  0  1.964763  0  0  -0.757451  0  2.185808  0  0  -0.781337  0  2.148394  0  0  -0.577069  -0.739995  0  2.21149  0
