# generated using pymatgen
data_CaH14C16(NO3)4
_symmetry_space_group_name_H-M   'P 1'
_cell_length_a   7.87859204
_cell_length_b   8.26447684
_cell_length_c   15.32263061
_cell_angle_alpha   74.64797859
_cell_angle_beta   78.91763114
_cell_angle_gamma   87.39122943
_symmetry_Int_Tables_number   1
_chemical_formula_structural   CaH14C16(NO3)4
_chemical_formula_sum   'Ca2 H28 C32 N8 O24'
_cell_volume   944.13713583
_cell_formula_units_Z   2
loop_
 _symmetry_equiv_pos_site_id
 _symmetry_equiv_pos_as_xyz
  1  'x, y, z'
loop_
 _atom_site_type_symbol
 _atom_site_label
 _atom_site_symmetry_multiplicity
 _atom_site_fract_x
 _atom_site_fract_y
 _atom_site_fract_z
 _atom_site_occupancy
 _atom_site_hle17_bader_spin_density
 _atom_site_hle17_ddec_charge
 _atom_site_hle17_ddec_spin_density
 _atom_site_hle17_ddec_sum_bond_order
 _atom_site_hle17_magmom
 _atom_site_hse06_10hf_bader_spin_density
 _atom_site_hse06_10hf_ddec_charge
 _atom_site_hse06_10hf_ddec_spin_density
 _atom_site_hse06_10hf_ddec_sum_bond_order
 _atom_site_hse06_10hf_magmom
 _atom_site_hse06_bader_spin_density
 _atom_site_hse06_ddec_charge
 _atom_site_hse06_ddec_spin_density
 _atom_site_hse06_ddec_sum_bond_order
 _atom_site_hse06_magmom
 _atom_site_pbe_bader_spin_density
 _atom_site_pbe_cm5_charge
 _atom_site_pbe_ddec_charge
 _atom_site_pbe_ddec_spin_density
 _atom_site_pbe_ddec_sum_bond_order
 _atom_site_pbe_magmom
Ca  Ca0  1  0.28389167  0.36358710  0.50150989  1  0  1.5764  0  1.070218  0  0  1.444819  0  1.425703  0  0  1.487812  0  1.37871  0  0  0.885992  1.412684  0  1.45863  0
Ca  Ca1  1  0.71610828  0.63641472  0.49848805  1  0  1.576399  0  1.070243  0  0  1.444839  0  1.42571  0  0  1.487826  0  1.378721  0  0  0.886003  1.412659  0  1.458719  0
H  H2  1  0.02666593  0.73972149  0.26826785  1  0  0.116738  0  0.937304  0  0  0.1248  0  0.997803  0  0  0.128819  0  0.995983  0  0  0.115858  0.121813  0  0.99939  0
H  H3  1  0.97333141  0.26028157  0.73173081  1  0  0.11672  0  0.937251  0  0  0.124762  0  0.997789  0  0  0.128774  0  0.99597  0  0  0.11585  0.121778  0  0.999373  0
H  H4  1  0.98071442  0.86456455  0.10654661  1  0  0.128191  0  0.943227  0  0  0.133332  0  1.008935  0  0  0.136669  0  1.006072  0  0  0.115237  0.130944  0  1.01104  0
H  H5  1  0.01928813  0.13543227  0.89345115  1  0  0.128225  0  0.943094  0  0  0.133317  0  1.008913  0  0  0.136671  0  1.00603  0  0  0.115226  0.130932  0  1.011018  0
H  H6  1  0.79117436  0.39077038  0.10006870  1  0  0.115682  0  0.998778  0  0  0.119276  0  1.070323  0  0  0.122604  0  1.067837  0  0  0.113163  0.116914  0  1.072186  0
H  H7  1  0.20882810  0.60922892  0.89993133  1  0  0.115691  0  0.998645  0  0  0.1193  0  1.070266  0  0  0.122633  0  1.067775  0  0  0.113192  0.116932  0  1.072133  0
H  H8  1  0.73146391  0.95007487  0.89461273  1  0  0.107829  0  0.997424  0  0  0.107116  0  1.077424  0  0  0.111267  0  1.073624  0  0  0.111283  0.104091  0  1.080238  0
H  H9  1  0.26853342  0.04992317  0.10538663  1  0  0.107768  0  0.997391  0  0  0.107082  0  1.077397  0  0  0.111232  0  1.0736  0  0  0.111268  0.104054  0  1.08021  0
H  H10  1  0.54694539  0.44072495  0.90924654  1  0  0.130222  0  0.933669  0  0  0.136632  0  0.996438  0  0  0.140652  0  0.992316  0  0  0.117404  0.133783  0  0.999365  0
H  H11  1  0.45305453  0.55927310  0.09075259  1  0  0.130141  0  0.93367  0  0  0.136568  0  0.996447  0  0  0.14059  0  0.992324  0  0  0.117378  0.133722  0  0.999373  0
H  H12  1  0.48251713  0.49521295  0.74952860  1  0  0.113016  0  0.934821  0  0  0.122207  0  0.993638  0  0  0.126082  0  0.992038  0  0  0.117006  0.119342  0  0.99504  0
H  H13  1  0.51748146  0.50478633  0.25047178  1  0  0.112995  0  0.934781  0  0  0.122188  0  0.99362  0  0  0.126064  0  0.992018  0  0  0.117011  0.119325  0  0.995021  0
H  H14  1  0.73780723  0.15830453  0.17044865  1  0  0.324087  0  0.924648  0  0  0.298034  0  1.00407  0  0  0.30588  0  0.997179  0  0  0.296561  0.292588  0  1.008844  0
H  H15  1  0.26219517  0.84169474  0.82955335  1  0  0.324025  0  0.924598  0  0  0.297993  0  1.004064  0  0  0.305841  0  0.997171  0  0  0.296527  0.292546  0  1.008836  0
H  H16  1  0.71330078  0.77059229  0.82736050  1  0  0.327709  0  0.90874  0  0  0.305635  0  0.982023  0  0  0.312699  0  0.976357  0  0  0.299042  0.30074  0  0.985925  0
H  H17  1  0.28669390  0.22940571  0.17264106  1  0  0.327717  0  0.908736  0  0  0.305643  0  0.982001  0  0  0.312705  0  0.976338  0  0  0.299055  0.300747  0  0.985891  0
H  H18  1  0.60617205  0.17148422  0.42934674  1  0  0.443692  0  0.831792  0  0  0.416986  0  0.888071  0  0  0.426276  0  0.874468  0  0  0.318927  0.4104  0  0.897722  0
H  H19  1  0.39382907  0.82851254  0.57065507  1  0  0.443702  0  0.831705  0  0  0.417001  0  0.888031  0  0  0.426291  0  0.874428  0  0  0.31891  0.410416  0  0.897679  0
H  H20  1  0.94332968  0.17217282  0.54932905  1  0  0.444922  0  0.815165  0  0  0.419951  0  0.876783  0  0  0.429128  0  0.86332  0  0  0.322693  0.413418  0  0.886379  0
H  H21  1  0.05667022  0.82782773  0.45067038  1  0  0.444928  0  0.815175  0  0  0.419961  0  0.876772  0  0  0.429138  0  0.863311  0  0  0.322692  0.413432  0  0.886361  0
H  H22  1  0.72532378  0.99312325  0.27182983  1  0  0.356058  0  0.910433  0  0  0.33497  0  0.973769  0  0  0.344889  0  0.965692  0  0  0.301741  0.327976  0  0.979334  0
H  H23  1  0.27467996  0.00687729  0.72817056  1  0  0.356044  0  0.910449  0  0  0.334955  0  0.973795  0  0  0.344874  0  0.96572  0  0  0.301753  0.327962  0  0.979359  0
H  H24  1  0.75510309  0.73168556  0.71706894  1  0  0.352392  0  0.907354  0  0  0.33006  0  0.974794  0  0  0.339687  0  0.967062  0  0  0.302075  0.323254  0  0.980154  0
H  H25  1  0.24489810  0.26831374  0.28293055  1  0  0.352304  0  0.907393  0  0  0.329938  0  0.974894  0  0  0.339563  0  0.967168  0  0  0.302034  0.32313  0  0.980254  0
H  H26  1  0.43300543  0.10725976  0.40911653  1  0  0.430092  0  0.873645  0  0  0.396577  0  0.941206  0  0  0.407503  0  0.925192  0  0  0.299606  0.388866  0  0.952515  0
H  H27  1  0.56699574  0.89273953  0.59088362  1  0  0.430082  0  0.873659  0  0  0.396572  0  0.941214  0  0  0.407499  0  0.925199  0  0  0.299597  0.388864  0  0.952521  0
H  H28  1  0.07737851  0.04702535  0.59758738  1  0  0.430284  0  0.869636  0  0  0.397213  0  0.935803  0  0  0.408299  0  0.91946  0  0  0.295505  0.389435  0  0.947264  0
H  H29  1  0.92262135  0.95297518  0.40241337  1  0  0.430333  0  0.86959  0  0  0.397274  0  0.935732  0  0  0.408358  0  0.919393  0  0  0.295529  0.389495  0  0.947196  0
C  C30  1  0.94843252  0.49094168  0.27272668  1  0  -0.009395  0  3.623449  0  0  -0.000928  0  3.858535  0  0  0.001741  0  3.872685  0  0  0.024502  -0.003106  0  3.849622  0
C  C31  1  0.05156608  0.50906136  0.72727318  1  0  -0.009319  0  3.623396  0  0  -0.00092  0  3.858531  0  0  0.00175  0  3.872683  0  0  0.024511  -0.00311  0  3.84963  0
C  C32  1  0.98119112  0.66211082  0.22983439  1  0  -0.065672  0  3.689985  0  0  -0.085562  0  3.942482  0  0  -0.089737  0  3.96095  0  0  -0.070934  -0.083062  0  3.93057  0
C  C33  1  0.01881131  0.33789096  0.77016660  1  0  -0.065749  0  3.690049  0  0  -0.085648  0  3.942574  0  0  -0.089812  0  3.961035  0  0  -0.070979  -0.083144  0  3.930662  0
C  C34  1  0.95565492  0.73231286  0.14064673  1  0  -0.070553  0  3.690655  0  0  -0.101478  0  3.952372  0  0  -0.098305  0  3.969514  0  0  -0.073931  -0.103276  0  3.940685  0
C  C35  1  0.04434763  0.26768772  0.85935050  1  0  -0.070465  0  3.690504  0  0  -0.101362  0  3.952347  0  0  -0.098185  0  3.969476  0  0  -0.073859  -0.103166  0  3.940662  0
C  C36  1  0.89068449  0.62910549  0.09560487  1  0  0.059716  0  3.725866  0  0  0.051948  0  3.990034  0  0  0.046278  0  4.013863  0  0  0.071099  0.055514  0  3.973857  0
C  C37  1  0.10931412  0.37089631  0.90439451  1  0  0.059724  0  3.725732  0  0  0.051906  0  3.98999  0  0  0.046194  0  4.013885  0  0  0.071056  0.055472  0  3.973811  0
C  C38  1  0.84668910  0.46185800  0.13825951  1  0  -0.10885  0  3.711834  0  0  -0.148622  0  3.973582  0  0  -0.146784  0  3.993678  0  0  -0.078146  -0.149367  0  3.95975  0
C  C39  1  0.15331207  0.53814003  0.86174081  1  0  -0.108818  0  3.711707  0  0  -0.148638  0  3.973563  0  0  -0.146783  0  3.993649  0  0  -0.078145  -0.149379  0  3.959728  0
C  C40  1  0.87737021  0.38996664  0.22730893  1  0  -0.070065  0  3.701965  0  0  -0.053917  0  3.939581  0  0  -0.061461  0  3.959865  0  0  -0.00578  -0.049304  0  3.926335  0
C  C41  1  0.12262836  0.61003514  0.77269176  1  0  -0.070139  0  3.702044  0  0  -0.053877  0  3.939615  0  0  -0.061414  0  3.959901  0  0  -0.005789  -0.049259  0  3.926366  0
C  C42  1  0.99546426  0.42843196  0.36702288  1  0  0.702698  0  3.929242  0  0  0.642029  0  4.244732  0  0  0.678286  0  4.231821  0  0  0.236088  0.617102  0  4.252637  0
C  C43  1  0.00453434  0.57157108  0.63297698  1  0  0.702667  0  3.92924  0  0  0.642036  0  4.244705  0  0  0.678282  0  4.231809  0  0  0.236065  0.61711  0  4.252612  0
C  C44  1  0.83370930  0.20996493  0.27691602  1  0  0.609836  0  3.849732  0  0  0.557216  0  4.140167  0  0  0.587124  0  4.139679  0  0  0.244685  0.537144  0  4.139895  0
C  C45  1  0.16628923  0.79003809  0.72308581  1  0  0.609798  0  3.849797  0  0  0.557094  0  4.140341  0  0  0.586996  0  4.139866  0  0  0.244654  0.537024  0  4.140065  0
C  C46  1  0.55594690  0.24775338  0.73631890  1  0  0.005921  0  3.623164  0  0  0.010884  0  3.860957  0  0  0.013408  0  3.874939  0  0  0.027713  0.008912  0  3.852057  0
C  C47  1  0.44405168  0.75224339  0.26368183  1  0  0.005813  0  3.622868  0  0  0.010757  0  3.860832  0  0  0.013278  0  3.87481  0  0  0.027728  0.008785  0  3.851934  0
C  C48  1  0.63224223  0.09397495  0.77463097  1  0  -0.065709  0  3.696093  0  0  -0.048528  0  3.930591  0  0  -0.055686  0  3.9504  0  0  -0.00127  -0.044236  0  3.917724  0
C  C49  1  0.36775511  0.90602560  0.22536804  1  0  -0.065794  0  3.695859  0  0  -0.048507  0  3.930379  0  0  -0.05566  0  3.950165  0  0  -0.001283  -0.044214  0  3.91751  0
C  C50  1  0.67063527  0.06550382  0.86245763  1  0  -0.095312  0  3.699538  0  0  -0.135478  0  3.963838  0  0  -0.133395  0  3.982165  0  0  -0.074809  -0.136331  0  3.951316  0
C  C51  1  0.32936461  0.93449421  0.13754280  1  0  -0.095629  0  3.701343  0  0  -0.135424  0  3.963808  0  0  -0.133339  0  3.982122  0  0  -0.074779  -0.136265  0  3.951274  0
C  C52  1  0.63334892  0.18885020  0.91024183  1  0  0.065138  0  3.736178  0  0  0.048715  0  3.996111  0  0  0.042912  0  4.02006  0  0  0.073477  0.052347  0  3.979823  0
C  C53  1  0.36665098  0.81114910  0.08975778  1  0  0.056416  0  3.73158  0  0  0.04865  0  3.99607  0  0  0.042848  0  4.020016  0  0  0.073436  0.052278  0  3.97979  0
C  C54  1  0.56969791  0.34616040  0.87068358  1  0  -0.062816  0  3.678312  0  0  -0.096829  0  3.944359  0  0  -0.093453  0  3.961034  0  0  -0.068228  -0.098706  0  3.932908  0
C  C55  1  0.43030322  0.65384013  0.12931770  1  0  -0.063204  0  3.680224  0  0  -0.096761  0  3.944369  0  0  -0.093387  0  3.961044  0  0  -0.068185  -0.098643  0  3.932922  0
C  C56  1  0.53304246  0.37449465  0.78283795  1  0  -0.060017  0  3.677771  0  0  -0.080156  0  3.932389  0  0  -0.084408  0  3.951007  0  0  -0.067268  -0.077624  0  3.920295  0
C  C57  1  0.46695744  0.62550339  0.21716183  1  0  -0.059882  0  3.677675  0  0  -0.080004  0  3.932386  0  0  -0.084255  0  3.951001  0  0  -0.067248  -0.077473  0  3.920293  0
C  C58  1  0.48313623  0.28104557  0.64952866  1  0  0.671573  0  3.956442  0  0  0.614117  0  4.265684  0  0  0.649307  0  4.254805  0  0  0.224328  0.590016  0  4.272181  0
C  C59  1  0.51686754  0.71895624  0.35047090  1  0  0.671633  0  3.956804  0  0  0.614084  0  4.266183  0  0  0.649275  0  4.255305  0  0  0.224305  0.589981  0  4.272678  0
C  C60  1  0.67409495  0.96959495  0.71781923  1  0  0.612094  0  3.841531  0  0  0.561085  0  4.12947  0  0  0.590818  0  4.129001  0  0  0.246133  0.541099  0  4.129246  0
C  C61  1  0.32590615  0.03040305  0.28218306  1  0  0.612277  0  3.841302  0  0  0.561138  0  4.129409  0  0  0.590889  0  4.128908  0  0  0.246167  0.541141  0  4.129198  0
N  N62  1  0.87012188  0.69886837  0.00072786  1  0  0.503249  0  3.88852  0  0  0.526641  0  4.192624  0  0  0.548898  0  4.199226  0  0  0.048182  0.511654  0  4.18831  0
N  N63  1  0.12987929  0.30113217  0.99927211  1  0  0.503282  0  3.888528  0  0  0.526698  0  4.192665  0  0  0.548967  0  4.199268  0  0  0.048175  0.51171  0  4.188353  0
N  N64  1  0.76441933  0.11432797  0.23489540  1  0  -0.664045  0  3.104086  0  0  -0.624414  0  3.345074  0  0  -0.64851  0  3.339274  0  0  -0.560942  -0.607663  0  3.34851  0
N  N65  1  0.23558182  0.88567256  0.76510523  1  0  -0.663961  0  3.104137  0  0  -0.62431  0  3.345233  0  0  -0.648405  0  3.339438  0  0  -0.560919  -0.607559  0  3.34866  0
N  N66  1  0.65931625  0.15025681  0.00486760  1  0  0.467491  0  3.939809  0  0  0.519494  0  4.197909  0  0  0.541825  0  4.204782  0  0  0.047051  0.504521  0  4.193379  0
N  N67  1  0.34068237  0.84973873  0.99513199  1  0  0.49846  0  3.892075  0  0  0.519495  0  4.197817  0  0  0.541835  0  4.20468  0  0  0.047046  0.504515  0  4.193294  0
N  N68  1  0.71163959  0.81119846  0.75879046  1  0  -0.668506  0  3.08494  0  0  -0.629588  0  3.321717  0  0  -0.654218  0  3.317958  0  0  -0.558857  -0.612442  0  3.323752  0
N  N69  1  0.28835902  0.18880083  0.24120926  1  0  -0.668457  0  3.084752  0  0  -0.629499  0  3.321642  0  0  -0.654137  0  3.317882  0  0  -0.558835  -0.612345  0  3.323664  0
O  O70  1  0.15130031  0.38109722  0.36829965  1  0  -0.688309  0  1.965354  0  0  -0.628334  0  2.205414  0  0  -0.65809  0  2.195698  0  0  -0.339288  -0.606606  0  2.211119  0
O  O71  1  0.84869829  0.61890833  0.63169986  1  0  -0.688324  0  1.965254  0  0  -0.628379  0  2.205304  0  0  -0.658129  0  2.195591  0  0  -0.339306  -0.606644  0  2.211011  0
O  O72  1  0.88485214  0.44467881  0.43534175  1  0  -0.681958  0  1.958995  0  0  -0.627447  0  2.209001  0  0  -0.65633  0  2.197752  0  0  -0.353849  -0.606157  0  2.215696  0
O  O73  1  0.11514640  0.55532045  0.56465995  1  0  -0.681916  0  1.959009  0  0  -0.627411  0  2.209002  0  0  -0.65629  0  2.197757  0  0  -0.353815  -0.606128  0  2.215691  0
O  O74  1  0.86069247  0.15510361  0.35803145  1  0  -0.591398  0  1.971205  0  0  -0.526417  0  2.176105  0  0  -0.548568  0  2.167408  0  0  -0.281514  -0.511431  0  2.181996  0
O  O75  1  0.13930868  0.84489567  0.64196936  1  0  -0.591393  0  1.971136  0  0  -0.526377  0  2.176074  0  0  -0.548532  0  2.167382  0  0  -0.281505  -0.511394  0  2.181963  0
O  O76  1  0.75902081  0.63651647  0.97083267  1  0  -0.381147  0  1.761657  0  0  -0.356583  0  1.980751  0  0  -0.368756  0  1.976675  0  0  -0.131831  -0.348678  0  1.983777  0
O  O77  1  0.24097647  0.36348029  0.02916818  1  0  -0.381144  0  1.761703  0  0  -0.35658  0  1.980827  0  0  -0.368762  0  1.976756  0  0  -0.131808  -0.34868  0  1.983854  0
O  O78  1  0.96595775  0.81792440  0.95299183  1  0  -0.36648  0  1.808561  0  0  -0.346443  0  2.039347  0  0  -0.358039  0  2.035376  0  0  -0.125098  -0.338839  0  2.042192  0
O  O79  1  0.03404090  0.18207240  0.04700694  1  0  -0.366456  0  1.808353  0  0  -0.346485  0  2.039369  0  0  -0.358071  0  2.035374  0  0  -0.125098  -0.338876  0  2.042207  0
O  O80  1  0.54605408  0.39914558  0.58125715  1  0  -0.70668  0  2.009656  0  0  -0.647609  0  2.263962  0  0  -0.676024  0  2.25275  0  0  -0.360538  -0.626881  0  2.270712  0
O  O81  1  0.45394967  0.60085872  0.41874272  1  0  -0.70672  0  2.009788  0  0  -0.647629  0  2.264176  0  0  -0.676046  0  2.252965  0  0  -0.360553  -0.626901  0  2.270924  0
O  O82  1  0.34731275  0.20062553  0.65289751  1  0  -0.662554  0  1.993506  0  0  -0.604728  0  2.226641  0  0  -0.634781  0  2.220539  0  0  -0.3293  -0.582938  0  2.229869  0
O  O83  1  0.65269245  0.79937133  0.34709804  1  0  -0.662497  0  1.993714  0  0  -0.604659  0  2.226938  0  0  -0.634711  0  2.220836  0  0  -0.329239  -0.58286  0  2.230164  0
O  O84  1  0.67305241  0.01866933  0.63303361  1  0  -0.573592  0  1.957468  0  0  -0.514146  0  2.165011  0  0  -0.5349  0  2.155798  0  0  -0.276699  -0.500091  0  2.171255  0
O  O85  1  0.32695137  0.98133249  0.36696529  1  0  -0.573688  0  1.957579  0  0  -0.514186  0  2.165175  0  0  -0.534946  0  2.155948  0  0  -0.276735  -0.500129  0  2.171427  0
O  O86  1  0.70889878  0.00773596  0.04075961  1  0  -0.350158  0  1.829197  0  0  -0.337602  0  2.040181  0  0  -0.349866  0  2.039256  0  0  -0.122103  -0.329575  0  2.040987  0
O  O87  1  0.29109727  0.99225832  0.95923974  1  0  -0.360673  0  1.814301  0  0  -0.337594  0  2.04006  0  0  -0.349838  0  2.039091  0  0  -0.122095  -0.329579  0  2.040905  0
O  O88  1  0.62602181  0.26126188  0.04735786  1  0  -0.370517  0  1.810953  0  0  -0.351893  0  2.016132  0  0  -0.36473  0  2.011245  0  0  -0.128737  -0.343696  0  2.019902  0
O  O89  1  0.37398063  0.73873490  0.95264318  1  0  -0.381022  0  1.79636  0  0  -0.351932  0  2.016222  0  0  -0.364793  0  2.01135  0  0  -0.128758  -0.343725  0  2.019995  0
O  O90  1  0.48330894  0.19540184  0.43038506  1  0  -0.894622  0  1.774965  0  0  -0.837252  0  1.955496  0  0  -0.857471  0  1.923687  0  0  -0.628612  -0.822775  0  1.977669  0
O  O91  1  0.51669482  0.80459872  0.56961468  1  0  -0.894614  0  1.774876  0  0  -0.837264  0  1.955444  0  0  -0.857479  0  1.92363  0  0  -0.628591  -0.822783  0  1.97762  0
O  O92  1  0.04995414  0.16741435  0.57327864  1  0  -0.886943  0  1.794338  0  0  -0.835757  0  1.981119  0  0  -0.855339  0  1.949569  0  0  -0.617617  -0.821728  0  2.003054  0
O  O93  1  0.95004708  0.83258747  0.42671985  1  0  -0.887005  0  1.79433  0  0  -0.835829  0  1.981102  0  0  -0.85541  0  1.949554  0  0  -0.617643  -0.821795  0  2.003042  0
