# generated using pymatgen
data_SrH4C5N2O5
_symmetry_space_group_name_H-M   'P 1'
_cell_length_a   6.17936710
_cell_length_b   9.27658703
_cell_length_c   12.04040629
_cell_angle_alpha   90.00003778
_cell_angle_beta   90.00003076
_cell_angle_gamma   99.52227902
_symmetry_Int_Tables_number   1
_chemical_formula_structural   SrH4C5N2O5
_chemical_formula_sum   'Sr4 H16 C20 N8 O20'
_cell_volume   680.68747860
_cell_formula_units_Z   4
loop_
 _symmetry_equiv_pos_site_id
 _symmetry_equiv_pos_as_xyz
  1  'x, y, z'
loop_
 _atom_site_type_symbol
 _atom_site_label
 _atom_site_symmetry_multiplicity
 _atom_site_fract_x
 _atom_site_fract_y
 _atom_site_fract_z
 _atom_site_occupancy
 _atom_site_hle17_bader_spin_density
 _atom_site_hle17_ddec_charge
 _atom_site_hle17_ddec_spin_density
 _atom_site_hle17_ddec_sum_bond_order
 _atom_site_hle17_magmom
 _atom_site_hse06_10hf_bader_spin_density
 _atom_site_hse06_10hf_ddec_charge
 _atom_site_hse06_10hf_ddec_spin_density
 _atom_site_hse06_10hf_ddec_sum_bond_order
 _atom_site_hse06_10hf_magmom
 _atom_site_hse06_bader_spin_density
 _atom_site_hse06_ddec_charge
 _atom_site_hse06_ddec_spin_density
 _atom_site_hse06_ddec_sum_bond_order
 _atom_site_hse06_magmom
 _atom_site_pbe_bader_spin_density
 _atom_site_pbe_cm5_charge
 _atom_site_pbe_ddec_charge
 _atom_site_pbe_ddec_spin_density
 _atom_site_pbe_ddec_sum_bond_order
 _atom_site_pbe_magmom
Sr  Sr0  1  0.23568931  0.00730188  0.37831368  1  0  1.629512  0  1.09081  0  0  1.490424  0  1.452972  0  0  1.526628  0  1.411356  0  0  0.947813  1.463487  0  1.483437  0
Sr  Sr1  1  0.73569050  0.00730317  0.12168620  1  0  1.629489  0  1.090821  0  0  1.490409  0  1.452963  0  0  1.526616  0  1.411342  0  0  0.947804  1.463472  0  1.483424  0
Sr  Sr2  1  0.76430912  0.99269718  0.62168702  1  0  1.62951  0  1.090795  0  0  1.49041  0  1.452976  0  0  1.526613  0  1.411361  0  0  0.947801  1.463474  0  1.483443  0
Sr  Sr3  1  0.26431143  0.99269699  0.87831367  1  0  1.629515  0  1.090793  0  0  1.490442  0  1.452923  0  0  1.526646  0  1.411304  0  0  0.947815  1.463506  0  1.483388  0
H  H4  1  0.97853823  0.74838919  0.23679632  1  0  0.392166  0  0.926233  0  0  0.348189  0  1.013409  0  0  0.359427  0  0.997024  0  0  0.291627  0.340102  0  1.025164  0
H  H5  1  0.47853715  0.74838888  0.26320400  1  0  0.392158  0  0.926246  0  0  0.348177  0  1.013427  0  0  0.359416  0  0.99704  0  0  0.291624  0.340092  0  1.02518  0
H  H6  1  0.02146344  0.25160988  0.76320438  1  0  0.392134  0  0.926273  0  0  0.348154  0  1.013452  0  0  0.359392  0  0.997068  0  0  0.291608  0.340069  0  1.025206  0
H  H7  1  0.52145992  0.25161127  0.73679587  1  0  0.392177  0  0.926216  0  0  0.348199  0  1.013393  0  0  0.359436  0  0.99701  0  0  0.29163  0.340113  0  1.025148  0
H  H8  1  0.15047603  0.84694509  0.15521842  1  0  0.424437  0  0.876121  0  0  0.39509  0  0.940699  0  0  0.405081  0  0.926042  0  0  0.311538  0.387941  0  0.951242  0
H  H9  1  0.65047537  0.84694441  0.34478186  1  0  0.424429  0  0.876159  0  0  0.395082  0  0.940718  0  0  0.405075  0  0.926058  0  0  0.311537  0.387935  0  0.951259  0
H  H10  1  0.84952564  0.15305398  0.84478311  1  0  0.424445  0  0.876164  0  0  0.395099  0  0.940701  0  0  0.405091  0  0.926042  0  0  0.311552  0.387951  0  0.951243  0
H  H11  1  0.34952332  0.15305574  0.65521801  1  0  0.424469  0  0.876193  0  0  0.39512  0  0.940682  0  0  0.405111  0  0.926025  0  0  0.311548  0.387973  0  0.951223  0
H  H12  1  0.13326474  0.59259049  0.79585620  1  0  0.311465  0  0.896072  0  0  0.287475  0  0.966091  0  0  0.296283  0  0.95869  0  0  0.330309  0.28114  0  0.97159  0
H  H13  1  0.63326442  0.59259186  0.70414342  1  0  0.311474  0  0.896094  0  0  0.287471  0  0.966131  0  0  0.29628  0  0.958729  0  0  0.330291  0.281137  0  0.971631  0
H  H14  1  0.86673369  0.40740857  0.20414283  1  0  0.311466  0  0.896108  0  0  0.287467  0  0.966145  0  0  0.296275  0  0.958743  0  0  0.330298  0.281131  0  0.971643  0
H  H15  1  0.36673427  0.40740830  0.29585645  1  0  0.311462  0  0.89609  0  0  0.287464  0  0.966119  0  0  0.296272  0  0.958716  0  0  0.330291  0.281129  0  0.971618  0
H  H16  1  0.31328478  0.59866957  0.45800799  1  0  0.139897  0  0.93357  0  0  0.149406  0  0.993162  0  0  0.152963  0  0.991121  0  0  0.120736  0.14686  0  0.994524  0
H  H17  1  0.81328452  0.59867187  0.04199220  1  0  0.139873  0  0.933581  0  0  0.149394  0  0.993159  0  0  0.152949  0  0.99112  0  0  0.120735  0.146848  0  0.994519  0
H  H18  1  0.68671824  0.40132841  0.54199187  1  0  0.139887  0  0.933577  0  0  0.149404  0  0.993159  0  0  0.152961  0  0.991119  0  0  0.120735  0.146859  0  0.994521  0
H  H19  1  0.18671391  0.40132719  0.95800767  1  0  0.139873  0  0.933587  0  0  0.14939  0  0.993171  0  0  0.152946  0  0.991131  0  0  0.120722  0.146843  0  0.994532  0
C  C20  1  0.19652953  0.28468005  0.51327846  1  0  0.634685  0  3.961915  0  0  0.587865  0  4.249887  0  0  0.620891  0  4.241427  0  0  0.216087  0.56543  0  4.255021  0
C  C21  1  0.69652958  0.28468170  0.98672102  1  0  0.634687  0  3.961909  0  0  0.587866  0  4.249866  0  0  0.620895  0  4.241409  0  0  0.216086  0.565431  0  4.254998  0
C  C22  1  0.80347240  0.71532012  0.48672141  1  0  0.634677  0  3.961926  0  0  0.587891  0  4.249846  0  0  0.620919  0  4.241387  0  0  0.2161  0.565462  0  4.25497  0
C  C23  1  0.30346885  0.71531736  0.01327884  1  0  0.634673  0  3.961835  0  0  0.58787  0  4.249781  0  0  0.620899  0  4.241323  0  0  0.216079  0.565436  0  4.254911  0
C  C24  1  0.19906739  0.41953575  0.57928540  1  0  0.014216  0  3.780543  0  0  0.015311  0  4.045898  0  0  0.01292  0  4.064211  0  0  0.079629  0.016937  0  4.0331  0
C  C25  1  0.69906573  0.41953733  0.92071415  1  0  0.014208  0  3.780553  0  0  0.015312  0  4.045896  0  0  0.012917  0  4.064215  0  0  0.079649  0.016934  0  4.033099  0
C  C26  1  0.80093616  0.58046442  0.42071529  1  0  0.014177  0  3.780514  0  0  0.01527  0  4.045852  0  0  0.012879  0  4.064163  0  0  0.079629  0.016895  0  4.033045  0
C  C27  1  0.30093134  0.58046282  0.07928572  1  0  0.014247  0  3.780504  0  0  0.015316  0  4.045889  0  0  0.01292  0  4.064208  0  0  0.079633  0.016941  0  4.033085  0
C  C28  1  0.25730040  0.56341970  0.54021700  1  0  -0.172148  0  3.700764  0  0  -0.21154  0  3.968151  0  0  -0.214436  0  3.986464  0  0  -0.087835  -0.2086  0  3.95495  0
C  C29  1  0.75729880  0.56342132  0.95978347  1  0  -0.172143  0  3.700806  0  0  -0.211543  0  3.968193  0  0  -0.214437  0  3.986514  0  0  -0.087876  -0.208598  0  3.954986  0
C  C30  1  0.74270153  0.43658046  0.45978287  1  0  -0.172086  0  3.700732  0  0  -0.211481  0  3.968112  0  0  -0.214377  0  3.986427  0  0  -0.087813  -0.208541  0  3.954908  0
C  C31  1  0.24269989  0.43657883  0.04021639  1  0  -0.172133  0  3.70073  0  0  -0.211519  0  3.96811  0  0  -0.214411  0  3.986433  0  0  -0.087828  -0.208579  0  3.954907  0
C  C32  1  0.21911354  0.65175757  0.62852467  1  0  0.050744  0  3.688677  0  0  0.03974  0  3.950909  0  0  0.040643  0  3.965355  0  0  0.100802  0.038781  0  3.941472  0
C  C33  1  0.71911344  0.65175911  0.87147584  1  0  0.050703  0  3.688656  0  0  0.039687  0  3.950932  0  0  0.040572  0  3.965387  0  0  0.100788  0.038726  0  3.941494  0
C  C34  1  0.78088975  0.34824150  0.37147603  1  0  0.05069  0  3.688623  0  0  0.039678  0  3.9509  0  0  0.040567  0  3.965341  0  0  0.100766  0.038718  0  3.941459  0
C  C35  1  0.28088687  0.34824105  0.12852403  1  0  0.050708  0  3.688621  0  0  0.039707  0  3.950883  0  0  0.04059  0  3.965348  0  0  0.100766  0.038748  0  3.94144  0
C  C36  1  0.23238277  0.81281810  0.63050055  1  0  0.67893  0  3.935477  0  0  0.628405  0  4.230116  0  0  0.663845  0  4.217045  0  0  0.241311  0.604422  0  4.237946  0
C  C37  1  0.73238591  0.81281964  0.86949920  1  0  0.678961  0  3.935347  0  0  0.628416  0  4.230045  0  0  0.663879  0  4.216947  0  0  0.241362  0.60443  0  4.237873  0
C  C38  1  0.76761378  0.18717986  0.36950014  1  0  0.679034  0  3.935387  0  0  0.628484  0  4.230082  0  0  0.663956  0  4.216967  0  0  0.241411  0.604499  0  4.23791  0
C  C39  1  0.26761576  0.18717943  0.13050066  1  0  0.678846  0  3.935471  0  0  0.628265  0  4.230222  0  0  0.66372  0  4.217139  0  0  0.241212  0.60428  0  4.238047  0
N  N40  1  0.13395353  0.41897168  0.68711398  1  0  -0.207453  0  2.95491  0  0  -0.186559  0  3.224018  0  0  -0.190993  0  3.23749  0  0  -0.199736  -0.183598  0  3.215297  0
N  N41  1  0.63395361  0.41897425  0.81288555  1  0  -0.207395  0  2.954902  0  0  -0.186504  0  3.224001  0  0  -0.190937  0  3.237473  0  0  -0.199725  -0.183541  0  3.215281  0
N  N42  1  0.86604976  0.58102740  0.31288589  1  0  -0.207392  0  2.954849  0  0  -0.186496  0  3.223956  0  0  -0.190929  0  3.237426  0  0  -0.19973  -0.183534  0  3.21523  0
N  N43  1  0.36604534  0.58102700  0.18711431  1  0  -0.207446  0  2.954921  0  0  -0.186548  0  3.224037  0  0  -0.190981  0  3.237508  0  0  -0.199743  -0.183587  0  3.215313  0
N  N44  1  0.14498499  0.56002875  0.71411892  1  0  -0.140625  0  3.438662  0  0  -0.088791  0  3.683675  0  0  -0.099155  0  3.700024  0  0  -0.253807  -0.082192  0  3.673641  0
N  N45  1  0.64498478  0.56003019  0.78588069  1  0  -0.140689  0  3.438706  0  0  -0.088838  0  3.683712  0  0  -0.0992  0  3.700064  0  0  -0.253804  -0.082242  0  3.67368  0
N  N46  1  0.85501830  0.43997033  0.28588095  1  0  -0.140673  0  3.438746  0  0  -0.088838  0  3.683769  0  0  -0.099201  0  3.70012  0  0  -0.253809  -0.082239  0  3.673731  0
N  N47  1  0.35501392  0.43996996  0.21411918  1  0  -0.140634  0  3.438664  0  0  -0.088785  0  3.683661  0  0  -0.099144  0  3.700012  0  0  -0.253777  -0.082188  0  3.673625  0
O  O48  1  0.26965279  0.29594277  0.41529756  1  0  -0.644058  0  2.048019  0  0  -0.596414  0  2.293465  0  0  -0.621032  0  2.28736  0  0  -0.328759  -0.579451  0  2.297311  0
O  O49  1  0.76965232  0.29594402  0.08470247  1  0  -0.644033  0  2.047969  0  0  -0.596398  0  2.293431  0  0  -0.621006  0  2.287296  0  0  -0.328755  -0.579437  0  2.297273  0
O  O50  1  0.73034590  0.70405738  0.58470148  1  0  -0.644047  0  2.048012  0  0  -0.596411  0  2.293444  0  0  -0.621025  0  2.287328  0  0  -0.328772  -0.579451  0  2.297289  0
O  O51  1  0.23034637  0.70405613  0.91529739  1  0  -0.644027  0  2.0479  0  0  -0.596408  0  2.293369  0  0  -0.621007  0  2.287218  0  0  -0.328757  -0.579448  0  2.297216  0
O  O52  1  0.12168272  0.15977505  0.55785416  1  0  -0.757293  0  2.035  0  0  -0.687319  0  2.272554  0  0  -0.712644  0  2.261293  0  0  -0.385604  -0.669918  0  2.280958  0
O  O53  1  0.62168406  0.15977557  0.94214524  1  0  -0.757285  0  2.034997  0  0  -0.687311  0  2.272541  0  0  -0.712635  0  2.261278  0  0  -0.385589  -0.669908  0  2.280943  0
O  O54  1  0.87831786  0.84022620  0.44214488  1  0  -0.757287  0  2.034984  0  0  -0.687332  0  2.272526  0  0  -0.712657  0  2.261262  0  0  -0.385605  -0.66993  0  2.280927  0
O  O55  1  0.37831599  0.84022349  0.05785462  1  0  -0.757298  0  2.034991  0  0  -0.68732  0  2.272525  0  0  -0.712646  0  2.261262  0  0  -0.385586  -0.669917  0  2.280927  0
O  O56  1  0.35375662  0.88390213  0.55667002  1  0  -0.731449  0  1.995821  0  0  -0.669488  0  2.247588  0  0  -0.694677  0  2.236081  0  0  -0.381378  -0.651319  0  2.254958  0
O  O57  1  0.85376581  0.88390159  0.94332980  1  0  -0.731361  0  1.995638  0  0  -0.669393  0  2.247437  0  0  -0.694592  0  2.235916  0  0  -0.381368  -0.651226  0  2.254805  0
O  O58  1  0.64623235  0.11609798  0.44332901  1  0  -0.731456  0  1.99577  0  0  -0.669484  0  2.247551  0  0  -0.694682  0  2.236025  0  0  -0.381434  -0.651317  0  2.254924  0
O  O59  1  0.14624181  0.11609532  0.05666923  1  0  -0.731373  0  1.995739  0  0  -0.669385  0  2.24753  0  0  -0.69458  0  2.236015  0  0  -0.381308  -0.651216  0  2.254897  0
O  O60  1  0.11792839  0.86864134  0.70143753  1  0  -0.719152  0  1.996511  0  0  -0.657902  0  2.246895  0  0  -0.682822  0  2.235556  0  0  -0.381621  -0.639715  0  2.254477  0
O  O61  1  0.61793196  0.86864499  0.79856472  1  0  -0.719205  0  1.996576  0  0  -0.657963  0  2.246993  0  0  -0.682889  0  2.235642  0  0  -0.381704  -0.639774  0  2.254573  0
O  O62  1  0.88206602  0.13135443  0.29856483  1  0  -0.719203  0  1.996579  0  0  -0.657961  0  2.246997  0  0  -0.682892  0  2.235644  0  0  -0.381691  -0.639772  0  2.254573  0
O  O63  1  0.38207050  0.13135736  0.20143681  1  0  -0.7191  0  1.996586  0  0  -0.65784  0  2.247006  0  0  -0.682763  0  2.23566  0  0  -0.381594  -0.639654  0  2.254584  0
O  O64  1  0.02685314  0.84921871  0.20703891  1  0  -0.903896  0  1.900064  0  0  -0.843898  0  2.101836  0  0  -0.862935  0  2.068969  0  0  -0.621078  -0.830318  0  2.125136  0
O  O65  1  0.52685404  0.84921799  0.29296133  1  0  -0.903883  0  1.900105  0  0  -0.84388  0  2.101864  0  0  -0.862919  0  2.068994  0  0  -0.621079  -0.830294  0  2.125142  0
O  O66  1  0.97314555  0.15078144  0.79296095  1  0  -0.903887  0  1.900124  0  0  -0.84389  0  2.101874  0  0  -0.862926  0  2.069006  0  0  -0.621075  -0.830301  0  2.125153  0
O  O67  1  0.47314492  0.15078326  0.70703854  1  0  -0.903913  0  1.900093  0  0  -0.84391  0  2.101783  0  0  -0.862944  0  2.068918  0  0  -0.621081  -0.830325  0  2.125078  0
