# generated using pymatgen
data_CdH12C16N4(ClO)2
_symmetry_space_group_name_H-M   'P 1'
_cell_length_a   3.74376839
_cell_length_b   14.49852605
_cell_length_c   15.74347011
_cell_angle_alpha   71.86806838
_cell_angle_beta   83.14736320
_cell_angle_gamma   82.56572173
_symmetry_Int_Tables_number   1
_chemical_formula_structural   CdH12C16N4(ClO)2
_chemical_formula_sum   'Cd2 H24 C32 N8 Cl4 O4'
_cell_volume   802.44239839
_cell_formula_units_Z   2
loop_
 _symmetry_equiv_pos_site_id
 _symmetry_equiv_pos_as_xyz
  1  'x, y, z'
loop_
 _atom_site_type_symbol
 _atom_site_label
 _atom_site_symmetry_multiplicity
 _atom_site_fract_x
 _atom_site_fract_y
 _atom_site_fract_z
 _atom_site_occupancy
 _atom_site_hle17_bader_spin_density
 _atom_site_hle17_ddec_charge
 _atom_site_hle17_ddec_spin_density
 _atom_site_hle17_ddec_sum_bond_order
 _atom_site_hle17_magmom
 _atom_site_hse06_10hf_bader_spin_density
 _atom_site_hse06_10hf_ddec_charge
 _atom_site_hse06_10hf_ddec_spin_density
 _atom_site_hse06_10hf_ddec_sum_bond_order
 _atom_site_hse06_10hf_magmom
 _atom_site_hse06_bader_spin_density
 _atom_site_hse06_ddec_charge
 _atom_site_hse06_ddec_spin_density
 _atom_site_hse06_ddec_sum_bond_order
 _atom_site_hse06_magmom
 _atom_site_pbe_bader_spin_density
 _atom_site_pbe_cm5_charge
 _atom_site_pbe_ddec_charge
 _atom_site_pbe_ddec_spin_density
 _atom_site_pbe_ddec_sum_bond_order
 _atom_site_pbe_magmom
Cd  Cd0  1  0.59136387  0.24997089  0.75003204  1  0  0.946579  0  1.969301  0  0  0.786561  0  2.427983  0  0  0.833133  0  2.388484  0  0  0.59588  0.753432  0  2.45518  0
Cd  Cd1  1  0.40863731  0.75002868  0.24996836  1  0  0.94656  0  1.969317  0  0  0.786547  0  2.427995  0  0  0.833119  0  2.388499  0  0  0.595885  0.75342  0  2.455195  0
H  H2  1  0.73108021  0.18402250  0.58004368  1  0  0.072933  0  0.942693  0  0  0.082418  0  1.009266  0  0  0.084928  0  1.005026  0  0  0.124709  0.080407  0  1.012431  0
H  H3  1  0.49485128  0.31592706  0.92001048  1  0  0.073134  0  0.942061  0  0  0.08204  0  1.009124  0  0  0.08447  0  1.005006  0  0  0.124932  0.08008  0  1.012217  0
H  H4  1  0.26891773  0.81597707  0.41995728  1  0  0.072911  0  0.942729  0  0  0.082387  0  1.009306  0  0  0.084899  0  1.005063  0  0  0.124711  0.080377  0  1.012471  0
H  H5  1  0.50514910  0.68407470  0.07998932  1  0  0.073136  0  0.94201  0  0  0.082023  0  1.009089  0  0  0.084467  0  1.004958  0  0  0.124916  0.080064  0  1.01218  0
H  H6  1  0.31139425  0.79100798  0.76054039  1  0  0.097719  0  0.964583  0  0  0.105636  0  1.03219  0  0  0.108502  0  1.030223  0  0  0.10515  0.103542  0  1.033608  0
H  H7  1  0.86285131  0.70899050  0.73961478  1  0  0.097427  0  0.965881  0  0  0.105301  0  1.033389  0  0  0.108148  0  1.031474  0  0  0.105323  0.103237  0  1.034748  0
H  H8  1  0.68860384  0.20898941  0.23946180  1  0  0.09771  0  0.964599  0  0  0.105642  0  1.032192  0  0  0.10851  0  1.030221  0  0  0.105153  0.103547  0  1.03361  0
H  H9  1  0.13715061  0.29101053  0.26038394  1  0  0.097453  0  0.965858  0  0  0.10532  0  1.033374  0  0  0.108167  0  1.031459  0  0  0.105322  0.103257  0  1.034729  0
H  H10  1  0.31882111  0.75368184  0.92546766  1  0  0.093712  0  0.943361  0  0  0.103544  0  1.003375  0  0  0.106422  0  1.002497  0  0  0.099546  0.101456  0  1.004172  0
H  H11  1  0.99752109  0.74627410  0.57465565  1  0  0.093605  0  0.944675  0  0  0.103433  0  1.004565  0  0  0.106328  0  1.003668  0  0  0.099573  0.101322  0  1.0054  0
H  H12  1  0.68118519  0.24631627  0.07453392  1  0  0.093705  0  0.943314  0  0  0.103552  0  1.003326  0  0  0.106431  0  1.002446  0  0  0.099555  0.101463  0  1.004125  0
H  H13  1  0.00247759  0.25372693  0.42534364  1  0  0.093586  0  0.94466  0  0  0.103425  0  1.004536  0  0  0.106321  0  1.003637  0  0  0.099569  0.101312  0  1.005374  0
H  H14  1  0.50778577  0.87659518  0.98848536  1  0  0.0933  0  0.972713  0  0  0.10224  0  1.036676  0  0  0.104817  0  1.034919  0  0  0.089138  0.100232  0  1.038173  0
H  H15  1  0.37207620  0.62328334  0.51157961  1  0  0.093045  0  0.973621  0  0  0.102663  0  1.036673  0  0  0.105233  0  1.034919  0  0  0.089148  0.100631  0  1.038221  0
H  H16  1  0.49222091  0.12340366  0.01151539  1  0  0.093292  0  0.972684  0  0  0.10223  0  1.036653  0  0  0.104808  0  1.034895  0  0  0.089136  0.10022  0  1.038155  0
H  H17  1  0.62792247  0.37671769  0.48841968  1  0  0.093057  0  0.97352  0  0  0.102675  0  1.036584  0  0  0.105245  0  1.03483  0  0  0.089156  0.100643  0  1.038132  0
H  H18  1  0.66940990  0.03754174  0.88730308  1  0  0.108545  0  0.968681  0  0  0.117318  0  1.031831  0  0  0.120377  0  1.030484  0  0  0.095102  0.115037  0  1.033014  0
H  H19  1  0.59403402  0.46240986  0.61276024  1  0  0.108599  0  0.968103  0  0  0.117435  0  1.031319  0  0  0.120479  0  1.029984  0  0  0.094937  0.115174  0  1.032505  0
H  H20  1  0.33059219  0.96245710  0.11269688  1  0  0.108555  0  0.968685  0  0  0.117317  0  1.031834  0  0  0.120387  0  1.030474  0  0  0.09512  0.115037  0  1.033014  0
H  H21  1  0.40596763  0.53759190  0.38723829  1  0  0.108628  0  0.968071  0  0  0.117465  0  1.03129  0  0  0.120508  0  1.029954  0  0  0.094948  0.115201  0  1.032474  0
H  H22  1  0.59514265  0.06742355  0.51553939  1  0  0.313994  0  0.933065  0  0  0.291096  0  0.998797  0  0  0.30172  0  0.990084  0  0  0.304431  0.283635  0  1.004905  0
H  H23  1  0.17795631  0.43253695  0.98456940  1  0  0.312634  0  0.936109  0  0  0.290621  0  1.000451  0  0  0.301225  0  0.991788  0  0  0.304309  0.283155  0  1.006563  0
H  H24  1  0.40485763  0.93257675  0.48446144  1  0  0.313955  0  0.933109  0  0  0.29106  0  0.998841  0  0  0.301686  0  0.990126  0  0  0.304416  0.283599  0  1.004948  0
H  H25  1  0.82203975  0.56746408  0.01542981  1  0  0.312645  0  0.936135  0  0  0.290625  0  1.000485  0  0  0.301231  0  0.99182  0  0  0.304305  0.283157  0  1.006599  0
C  C26  1  0.66404721  0.11332050  0.62517490  1  0  0.323058  0  3.73619  0  0  0.257494  0  4.016483  0  0  0.278012  0  4.025317  0  0  0.175393  0.244053  0  4.010113  0
C  C27  1  0.40219381  0.38663487  0.87488461  1  0  0.322605  0  3.736233  0  0  0.257751  0  4.016499  0  0  0.278294  0  4.025324  0  0  0.17542  0.244296  0  4.010169  0
C  C28  1  0.33594639  0.88667834  0.37482547  1  0  0.323132  0  3.736192  0  0  0.257585  0  4.016484  0  0  0.278099  0  4.02532  0  0  0.175413  0.244141  0  4.010121  0
C  C29  1  0.59780486  0.61336616  0.12511468  1  0  0.322572  0  3.736265  0  0  0.257735  0  4.016515  0  0  0.278266  0  4.025337  0  0  0.175403  0.244277  0  4.010185  0
C  C30  1  0.48435129  0.95635217  0.63508776  1  0  0.555186  0  3.814819  0  0  0.505925  0  4.104131  0  0  0.536035  0  4.103592  0  0  0.238615  0.485826  0  4.103881  0
C  C31  1  0.07550721  0.54362176  0.86501636  1  0  0.55428  0  3.814831  0  0  0.50418  0  4.105387  0  0  0.534255  0  4.104927  0  0  0.238062  0.484129  0  4.105054  0
C  C32  1  0.51564755  0.04364667  0.36491277  1  0  0.55525  0  3.814872  0  0  0.505929  0  4.104247  0  0  0.536038  0  4.103713  0  0  0.238614  0.485827  0  4.104007  0
C  C33  1  0.92449471  0.45637927  0.13498236  1  0  0.554277  0  3.814772  0  0  0.504182  0  4.105362  0  0  0.534256  0  4.104901  0  0  0.238079  0.484128  0  4.105031  0
C  C34  1  0.48173937  0.93461217  0.73155768  1  0  -0.15569  0  3.764721  0  0  -0.138141  0  4.001108  0  0  -0.150671  0  4.02623  0  0  -0.019171  -0.130214  0  3.984373  0
C  C35  1  0.14774101  0.56537475  0.76854976  1  0  -0.15613  0  3.765394  0  0  -0.138443  0  4.001536  0  0  -0.150904  0  4.026544  0  0  -0.019027  -0.130576  0  3.984886  0
C  C36  1  0.51825973  0.06538594  0.26844304  1  0  -0.155788  0  3.764763  0  0  -0.138208  0  4.001165  0  0  -0.150743  0  4.026291  0  0  -0.019179  -0.13029  0  3.984445  0
C  C37  1  0.85226379  0.43462556  0.23144925  1  0  -0.156008  0  3.765255  0  0  -0.138414  0  4.001516  0  0  -0.150874  0  4.026522  0  0  -0.019036  -0.13055  0  3.984869  0
C  C38  1  0.38862208  0.84392720  0.78939997  1  0  -0.053267  0  3.730681  0  0  -0.079797  0  3.984619  0  0  -0.077402  0  4.004498  0  0  -0.079266  -0.080999  0  3.971069  0
C  C39  1  0.02181868  0.65606541  0.71072053  1  0  -0.053063  0  3.731629  0  0  -0.07948  0  3.985464  0  0  -0.077106  0  4.005325  0  0  -0.079329  -0.080674  0  3.971932  0
C  C40  1  0.61137873  0.15607164  0.21060126  1  0  -0.053221  0  3.730606  0  0  -0.079765  0  3.984538  0  0  -0.07737  0  4.004415  0  0  -0.079262  -0.080964  0  3.970992  0
C  C41  1  0.97818404  0.34393343  0.28927879  1  0  -0.053161  0  3.731586  0  0  -0.079558  0  3.985457  0  0  -0.077184  0  4.005318  0  0  -0.079357  -0.08075  0  3.971926  0
C  C42  1  0.39446367  0.82377580  0.88111584  1  0  -0.058676  0  3.73533  0  0  -0.07391  0  3.992981  0  0  -0.079018  0  4.01525  0  0  -0.082462  -0.070729  0  3.977935  0
C  C43  1  0.09887595  0.67617412  0.61899864  1  0  -0.057563  0  3.735663  0  0  -0.0728  0  3.993043  0  0  -0.077916  0  4.015318  0  0  -0.082198  -0.069606  0  3.977961  0
C  C44  1  0.60553804  0.17622231  0.11888496  1  0  -0.058659  0  3.735255  0  0  -0.073915  0  3.992919  0  0  -0.079024  0  4.015188  0  0  -0.082471  -0.070733  0  3.977873  0
C  C45  1  0.90112363  0.32382619  0.38100021  1  0  -0.057488  0  3.735631  0  0  -0.072717  0  3.992987  0  0  -0.077833  0  4.015264  0  0  -0.082152  -0.069523  0  3.977904  0
C  C46  1  0.49741747  0.89348978  0.91633040  1  0  -0.021607  0  3.716155  0  0  -0.037071  0  3.962825  0  0  -0.035392  0  3.983176  0  0  -0.076186  -0.037765  0  3.948869  0
C  C47  1  0.30656739  0.60642033  0.58374685  1  0  -0.021683  0  3.717423  0  0  -0.037568  0  3.964023  0  0  -0.035911  0  3.984426  0  0  -0.075734  -0.038228  0  3.950008  0
C  C48  1  0.50258334  0.10650906  0.08367083  1  0  -0.021589  0  3.716125  0  0  -0.037052  0  3.962788  0  0  -0.035372  0  3.983142  0  0  -0.076184  -0.037747  0  3.948841  0
C  C49  1  0.69343427  0.39358143  0.41625168  1  0  -0.021663  0  3.717419  0  0  -0.037552  0  3.964021  0  0  -0.035895  0  3.984426  0  0  -0.07572  -0.038212  0  3.950004  0
C  C50  1  0.58657426  0.98365007  0.86049532  1  0  -0.131206  0  3.686765  0  0  -0.146553  0  3.930544  0  0  -0.153237  0  3.951708  0  0  -0.084622  -0.14225  0  3.916291  0
C  C51  1  0.43043523  0.51631350  0.63957971  1  0  -0.131457  0  3.68624  0  0  -0.147218  0  3.93026  0  0  -0.153896  0  3.951423  0  0  -0.085077  -0.142923  0  3.915949  0
C  C52  1  0.41342394  0.01634877  0.13950584  1  0  -0.131239  0  3.686804  0  0  -0.146562  0  3.930587  0  0  -0.153257  0  3.951744  0  0  -0.084627  -0.142258  0  3.916331  0
C  C53  1  0.56957102  0.48368826  0.36041960  1  0  -0.131529  0  3.686267  0  0  -0.147296  0  3.930288  0  0  -0.153974  0  3.951451  0  0  -0.085096  -0.142999  0  3.915974  0
C  C54  1  0.57595302  0.00623029  0.76723724  1  0  0.235313  0  3.772542  0  0  0.227463  0  4.017406  0  0  0.236733  0  4.040008  0  0  0.104646  0.22144  0  4.002027  0
C  C55  1  0.34942440  0.49375447  0.73285344  1  0  0.234101  0  3.773378  0  0  0.226758  0  4.017741  0  0  0.236039  0  4.040301  0  0  0.104138  0.220741  0  4.002375  0
C  C56  1  0.42404320  0.99376855  0.23276320  1  0  0.235317  0  3.77245  0  0  0.227436  0  4.017357  0  0  0.236705  0  4.039962  0  0  0.104604  0.221417  0  4.001978  0
C  C57  1  0.65058249  0.50624729  0.26714524  1  0  0.23399  0  3.773434  0  0  0.226679  0  4.017808  0  0  0.235958  0  4.040369  0  0  0.104065  0.220662  0  4.00244  0
N  N58  1  0.65934142  0.09741098  0.71150587  1  0  -0.427339  0  3.208533  0  0  -0.364876  0  3.488165  0  0  -0.388381  0  3.505385  0  0  -0.340296  -0.348972  0  3.476039  0
N  N59  1  0.46818183  0.40255465  0.78855934  1  0  -0.425691  0  3.208396  0  0  -0.36349  0  3.487711  0  0  -0.38699  0  3.504913  0  0  -0.339446  -0.3476  0  3.4756  0
N  N60  1  0.34065442  0.90258713  0.28849542  1  0  -0.427291  0  3.208398  0  0  -0.364823  0  3.488013  0  0  -0.388327  0  3.505231  0  0  -0.340251  -0.348919  0  3.475889  0
N  N61  1  0.53182469  0.59744638  0.21144017  1  0  -0.425625  0  3.208425  0  0  -0.363423  0  3.487723  0  0  -0.386923  0  3.504931  0  0  -0.339404  -0.347531  0  3.47561  0
N  N62  1  0.58794047  0.04766319  0.58616806  1  0  -0.416396  0  3.337551  0  0  -0.349101  0  3.578983  0  0  -0.37248  0  3.584254  0  0  -0.377051  -0.333423  0  3.575006  0
N  N63  1  0.22147151  0.45231257  0.91391689  1  0  -0.414776  0  3.339625  0  0  -0.348155  0  3.580763  0  0  -0.371498  0  3.586089  0  0  -0.377477  -0.332505  0  3.576769  0
N  N64  1  0.41205548  0.95233639  0.41383218  1  0  -0.41646  0  3.337571  0  0  -0.349155  0  3.579024  0  0  -0.372526  0  3.584275  0  0  -0.377099  -0.333475  0  3.57505  0
N  N65  1  0.77852951  0.54768919  0.08608227  1  0  -0.414784  0  3.339614  0  0  -0.348143  0  3.580723  0  0  -0.371486  0  3.586052  0  0  -0.377445  -0.332489  0  3.576731  0
Cl  Cl66  1  0.11507629  0.30917052  0.62698173  1  0  -0.551774  0  1.034565  0  0  -0.492059  0  1.319647  0  0  -0.511017  0  1.300181  0  0  -0.280076  -0.47806  0  1.33312  0
Cl  Cl67  1  0.05128411  0.19072882  0.87307970  1  0  -0.552071  0  1.034959  0  0  -0.492245  0  1.319689  0  0  -0.511189  0  1.300216  0  0  -0.280124  -0.478254  0  1.33311  0
Cl  Cl68  1  0.88492462  0.69082979  0.37301846  1  0  -0.551786  0  1.034585  0  0  -0.492072  0  1.31966  0  0  -0.511033  0  1.300195  0  0  -0.280086  -0.478073  0  1.333133  0
Cl  Cl69  1  0.94871654  0.80927221  0.12692030  1  0  -0.55205  0  1.034939  0  0  -0.492227  0  1.319661  0  0  -0.511174  0  1.300196  0  0  -0.280115  -0.478246  0  1.3331  0
O  O70  1  0.40099914  0.89998065  0.59592632  1  0  -0.551108  0  1.935961  0  0  -0.505067  0  2.152964  0  0  -0.526651  0  2.146448  0  0  -0.295726  -0.490113  0  2.156907  0
O  O71  1  0.89642521  0.60002095  0.90417768  1  0  -0.550269  0  1.936705  0  0  -0.503906  0  2.153528  0  0  -0.525493  0  2.147104  0  0  -0.295183  -0.488934  0  2.157385  0
O  O72  1  0.59900294  0.10001820  0.40407365  1  0  -0.551128  0  1.936011  0  0  -0.50504  0  2.153017  0  0  -0.526625  0  2.146505  0  0  -0.295697  -0.490082  0  2.156958  0
O  O73  1  0.10357149  0.39998008  0.09582090  1  0  -0.550265  0  1.936758  0  0  -0.503888  0  2.153562  0  0  -0.525478  0  2.147144  0  0  -0.295184  -0.488914  0  2.157416  0
