# generated using pymatgen
data_LaH13C15N(Cl3O5)2
_symmetry_space_group_name_H-M   'P 1'
_cell_length_a   10.51196277
_cell_length_b   10.93235268
_cell_length_c   11.13301209
_cell_angle_alpha   67.28683768
_cell_angle_beta   83.11555847
_cell_angle_gamma   76.07257592
_symmetry_Int_Tables_number   1
_chemical_formula_structural   LaH13C15N(Cl3O5)2
_chemical_formula_sum   'La2 H26 C30 N2 Cl12 O20'
_cell_volume   1144.97770540
_cell_formula_units_Z   2
loop_
 _symmetry_equiv_pos_site_id
 _symmetry_equiv_pos_as_xyz
  1  'x, y, z'
loop_
 _atom_site_type_symbol
 _atom_site_label
 _atom_site_symmetry_multiplicity
 _atom_site_fract_x
 _atom_site_fract_y
 _atom_site_fract_z
 _atom_site_occupancy
 _atom_site_hle17_bader_spin_density
 _atom_site_hle17_ddec_charge
 _atom_site_hle17_ddec_spin_density
 _atom_site_hle17_ddec_sum_bond_order
 _atom_site_hle17_magmom
 _atom_site_hse06_10hf_bader_spin_density
 _atom_site_hse06_10hf_ddec_charge
 _atom_site_hse06_10hf_ddec_spin_density
 _atom_site_hse06_10hf_ddec_sum_bond_order
 _atom_site_hse06_10hf_magmom
 _atom_site_hse06_bader_spin_density
 _atom_site_hse06_ddec_charge
 _atom_site_hse06_ddec_spin_density
 _atom_site_hse06_ddec_sum_bond_order
 _atom_site_hse06_magmom
 _atom_site_pbe_bader_spin_density
 _atom_site_pbe_cm5_charge
 _atom_site_pbe_ddec_charge
 _atom_site_pbe_ddec_spin_density
 _atom_site_pbe_ddec_sum_bond_order
 _atom_site_pbe_magmom
La  La0  1  0.07912191  0.35356070  0.39527053  1  0  2.173864  0  1.693705  0  0  2.057366  0  2.196547  0  0  2.155267  0  2.09799  0  0  1.368261  1.985024  0  2.264612  0
La  La1  1  0.92088033  0.64643828  0.60472714  1  0  2.173869  0  1.693669  0  0  2.057372  0  2.196529  0  0  2.155282  0  2.097957  0  0  1.368248  1.985033  0  2.264613  0
H  H2  1  0.42162951  0.29107927  0.32211033  1  0  0.039681  0  0.975642  0  0  0.043512  0  1.054639  0  0  0.045383  0  1.050072  0  0  0.117252  0.041921  0  1.058102  0
H  H3  1  0.57836761  0.70891166  0.67789105  1  0  0.039628  0  0.975664  0  0  0.043463  0  1.054691  0  0  0.045342  0  1.0501  0  0  0.11722  0.041868  0  1.058169  0
H  H4  1  0.63150293  0.23270002  0.30470445  1  0  0.092012  0  0.968803  0  0  0.107272  0  1.043996  0  0  0.107288  0  1.044794  0  0  0.09558  0.107127  0  1.043619  0
H  H5  1  0.36849931  0.76729899  0.69529680  1  0  0.092025  0  0.968879  0  0  0.107291  0  1.044062  0  0  0.107305  0  1.044861  0  0  0.095585  0.107142  0  1.043693  0
H  H6  1  0.68817949  0.05841054  0.40358671  1  0  0.107659  0  0.943414  0  0  0.1248  0  1.009706  0  0  0.125934  0  1.00939  0  0  0.103004  0.123908  0  1.010053  0
H  H7  1  0.31182084  0.94158850  0.59641565  1  0  0.107716  0  0.943309  0  0  0.124794  0  1.009672  0  0  0.125926  0  1.009357  0  0  0.102985  0.123906  0  1.010013  0
H  H8  1  0.72426954  0.18944831  0.44404234  1  0  0.127062  0  0.946727  0  0  0.147244  0  1.002405  0  0  0.149563  0  1.00065  0  0  0.106383  0.145272  0  1.004218  0
H  H9  1  0.27572811  0.81054973  0.55596072  1  0  0.127036  0  0.946758  0  0  0.147225  0  1.002426  0  0  0.149544  0  1.000672  0  0  0.106365  0.145255  0  1.004239  0
H  H10  1  0.60805415  0.98919074  0.63773946  1  0  0.105573  0  0.941938  0  0  0.126644  0  1.003924  0  0  0.127291  0  1.003634  0  0  0.10314  0.126082  0  1.004277  0
H  H11  1  0.39194615  0.01081337  0.36226275  1  0  0.105565  0  0.941942  0  0  0.126643  0  1.00393  0  0  0.127292  0  1.003637  0  0  0.10313  0.12608  0  1.004281  0
H  H12  1  0.43944950  0.06515173  0.66081158  1  0  0.105235  0  0.96512  0  0  0.121078  0  1.035219  0  0  0.122797  0  1.033765  0  0  0.099234  0.119708  0  1.036495  0
H  H13  1  0.56055256  0.93484831  0.33919199  1  0  0.105232  0  0.965138  0  0  0.121089  0  1.035229  0  0  0.122808  0  1.033774  0  0  0.099226  0.119715  0  1.036502  0
H  H14  1  0.56860699  0.14002362  0.67296861  1  0  0.091018  0  0.960127  0  0  0.107248  0  1.033021  0  0  0.106897  0  1.033907  0  0  0.089298  0.107268  0  1.032697  0
H  H15  1  0.43139445  0.85997942  0.32702848  1  0  0.091052  0  0.960053  0  0  0.107291  0  1.032956  0  0  0.106939  0  1.033844  0  0  0.089296  0.107308  0  1.032636  0
H  H16  1  0.04843321  0.09135338  0.36558702  1  0  0.441038  0  0.851554  0  0  0.410573  0  0.914543  0  0  0.421038  0  0.899336  0  0  0.301279  0.403029  0  0.925542  0
H  H17  1  0.95156671  0.90864767  0.63441282  1  0  0.441028  0  0.851571  0  0  0.41055  0  0.914579  0  0  0.421014  0  0.899373  0  0  0.301242  0.403001  0  0.925588  0
H  H18  1  0.09170457  0.05921842  0.51027891  1  0  0.418081  0  0.893417  0  0  0.386889  0  0.958141  0  0  0.398885  0  0.940966  0  0  0.294961  0.378616  0  0.969939  0
H  H19  1  0.90829651  0.94078160  0.48972119  1  0  0.4181  0  0.893389  0  0  0.386912  0  0.958112  0  0  0.398909  0  0.940936  0  0  0.294956  0.378643  0  0.969904  0
H  H20  1  0.04094962  0.37522233  0.11836298  1  0  0.420157  0  0.884864  0  0  0.388129  0  0.950994  0  0  0.400072  0  0.933633  0  0  0.29057  0.380025  0  0.962591  0
H  H21  1  0.95905202  0.62477972  0.88163717  1  0  0.420159  0  0.884865  0  0  0.388135  0  0.950989  0  0  0.400075  0  0.933631  0  0  0.290582  0.380029  0  0.962591  0
H  H22  1  0.89254320  0.41354061  0.15634300  1  0  0.423946  0  0.856903  0  0  0.394512  0  0.927924  0  0  0.40428  0  0.913723  0  0  0.298199  0.387647  0  0.937908  0
H  H23  1  0.10745768  0.58646043  0.84365584  1  0  0.423931  0  0.856924  0  0  0.394494  0  0.927953  0  0  0.404263  0  0.913751  0  0  0.298186  0.387629  0  0.937936  0
H  H24  1  0.98009700  0.67531854  0.27725945  1  0  0.432821  0  0.87356  0  0  0.398406  0  0.943448  0  0  0.410239  0  0.926528  0  0  0.292276  0.389762  0  0.955786  0
H  H25  1  0.01990161  0.32467947  0.72274081  1  0  0.432816  0  0.873557  0  0  0.398404  0  0.943439  0  0  0.41024  0  0.926515  0  0  0.292269  0.389769  0  0.955761  0
H  H26  1  0.93415799  0.62271972  0.17741489  1  0  0.434069  0  0.830656  0  0  0.409789  0  0.895362  0  0  0.418678  0  0.882382  0  0  0.312917  0.40342  0  0.904631  0
H  H27  1  0.06584193  0.37728133  0.82258494  1  0  0.434082  0  0.830642  0  0  0.4098  0  0.895348  0  0  0.418689  0  0.882367  0  0  0.31291  0.403428  0  0.904622  0
C  C28  1  0.25135089  0.41375780  0.08731485  1  0  0.694719  0  3.9127  0  0  0.642926  0  4.21732  0  0  0.677892  0  4.208609  0  0  0.217501  0.619089  0  4.222755  0
C  C29  1  0.74865036  0.58624629  0.91268545  1  0  0.694732  0  3.912512  0  0  0.64288  0  4.21721  0  0  0.677844  0  4.208502  0  0  0.217446  0.61904  0  4.222662  0
C  C30  1  0.37937391  0.45906951  0.03613726  1  0  -0.138282  0  3.751471  0  0  -0.138176  0  4.007231  0  0  -0.141257  0  4.023313  0  0  -0.027245  -0.136572  0  3.997345  0
C  C31  1  0.62062810  0.54093557  0.96386078  1  0  -0.138563  0  3.751734  0  0  -0.138368  0  4.007382  0  0  -0.141455  0  4.023463  0  0  -0.027229  -0.136767  0  3.997508  0
C  C32  1  0.38244338  0.59706674  0.98420501  1  0  0.056471  0  3.806275  0  0  0.047427  0  4.091823  0  0  0.050797  0  4.110764  0  0  0.00169  0.044816  0  4.079911  0
C  C33  1  0.61755515  0.40294141  0.01579225  1  0  0.056503  0  3.806407  0  0  0.04745  0  4.09195  0  0  0.050827  0  4.110894  0  0  0.001621  0.044839  0  4.080044  0
C  C34  1  0.50298598  0.63751954  0.95017346  1  0  0.055088  0  3.804896  0  0  0.047616  0  4.091456  0  0  0.050796  0  4.11002  0  0  0.000624  0.045197  0  4.079567  0
C  C35  1  0.49701506  0.36248554  0.04982290  1  0  0.054889  0  3.805212  0  0  0.047415  0  4.091792  0  0  0.050589  0  4.110364  0  0  0.000561  0.044996  0  4.0799  0
C  C36  1  0.04286320  0.08731289  0.71551945  1  0  0.695542  0  3.87959  0  0  0.638553  0  4.187152  0  0  0.673412  0  4.177941  0  0  0.225111  0.614711  0  4.192965  0
C  C37  1  0.95713888  0.91268204  0.28447891  1  0  0.695519  0  3.879406  0  0  0.638553  0  4.186936  0  0  0.673413  0  4.177724  0  0  0.225094  0.614726  0  4.192733  0
C  C38  1  0.01959926  0.04342904  0.86243029  1  0  -0.132235  0  3.708418  0  0  -0.132177  0  3.965907  0  0  -0.135212  0  3.981958  0  0  -0.022705  -0.130104  0  3.955217  0
C  C39  1  0.98040550  0.95656688  0.13756916  1  0  -0.132318  0  3.708521  0  0  -0.13222  0  3.965956  0  0  -0.135257  0  3.982011  0  0  -0.022714  -0.130159  0  3.955284  0
C  C40  1  0.90962444  0.99002345  0.92364894  1  0  0.071063  0  3.776322  0  0  0.062154  0  4.06045  0  0  0.065581  0  4.079252  0  0  0.005561  0.059837  0  4.047584  0
C  C41  1  0.09037553  0.00997253  0.07635195  1  0  0.071101  0  3.776368  0  0  0.062185  0  4.060477  0  0  0.065613  0  4.079276  0  0  0.005572  0.059864  0  4.047617  0
C  C42  1  0.11004889  0.05195353  0.94035762  1  0  0.061782  0  3.78549  0  0  0.055477  0  4.066697  0  0  0.058626  0  4.085757  0  0  0.003343  0.052942  0  4.05373  0
C  C43  1  0.88995279  0.94804344  0.05964269  1  0  0.061808  0  3.785525  0  0  0.055485  0  4.066728  0  0  0.058631  0  4.085791  0  0  0.003362  0.052945  0  4.053773  0
C  C44  1  0.78697112  0.43095580  0.48263862  1  0  0.693086  0  3.920505  0  0  0.642672  0  4.225256  0  0  0.678426  0  4.216821  0  0  0.220286  0.618344  0  4.229366  0
C  C45  1  0.21302900  0.56904422  0.51735980  1  0  0.693223  0  3.920358  0  0  0.64276  0  4.225099  0  0  0.678556  0  4.216663  0  0  0.220312  0.618434  0  4.229209  0
C  C46  1  0.63860948  0.46827649  0.49243983  1  0  -0.118989  0  3.70546  0  0  -0.118289  0  3.957309  0  0  -0.120409  0  3.971846  0  0  -0.013145  -0.116007  0  3.946852  0
C  C47  1  0.36138928  0.53172554  0.50755527  1  0  -0.119138  0  3.705714  0  0  -0.118243  0  3.957336  0  0  -0.120524  0  3.97208  0  0  -0.013212  -0.115975  0  3.946901  0
C  C48  1  0.56618048  0.54208585  0.37945332  1  0  0.070579  0  3.767881  0  0  0.064878  0  4.045657  0  0  0.068534  0  4.063653  0  0  0.009876  0.061942  0  4.034068  0
C  C49  1  0.43381828  0.45791620  0.62054268  1  0  0.070613  0  3.767782  0  0  0.064828  0  4.045568  0  0  0.068536  0  4.063601  0  0  0.009877  0.061908  0  4.033964  0
C  C50  1  0.57168296  0.42586573  0.61287915  1  0  0.063812  0  3.783011  0  0  0.058345  0  4.062735  0  0  0.061717  0  4.080864  0  0  0.008859  0.05541  0  4.051003  0
C  C51  1  0.42831579  0.57413632  0.38711685  1  0  0.063794  0  3.783286  0  0  0.058283  0  4.06293  0  0  0.061701  0  4.081099  0  0  0.008848  0.055341  0  4.051222  0
C  C52  1  0.41459012  0.23411127  0.42778937  1  0  0.389946  0  3.820443  0  0  0.317001  0  4.112066  0  0  0.345165  0  4.114539  0  0  0.172581  0.298154  0  4.10974  0
C  C53  1  0.58540717  0.76588373  0.57221401  1  0  0.39006  0  3.820343  0  0  0.317076  0  4.111982  0  0  0.345242  0  4.114462  0  0  0.172579  0.298232  0  4.109662  0
C  C54  1  0.65026201  0.16070531  0.40470295  1  0  -0.181455  0  3.63098  0  0  -0.283797  0  3.882587  0  0  -0.280606  0  3.892152  0  0  -0.141364  -0.285705  0  3.876228  0
C  C55  1  0.34973659  0.83929272  0.59529821  1  0  -0.181475  0  3.631019  0  0  -0.283792  0  3.882638  0  0  -0.280598  0  3.892204  0  0  -0.141352  -0.285703  0  3.876284  0
C  C56  1  0.53631887  0.08486502  0.62201200  1  0  -0.173584  0  3.637672  0  0  -0.272831  0  3.879279  0  0  -0.268861  0  3.889315  0  0  -0.142264  -0.275312  0  3.872819  0
C  C57  1  0.46368242  0.91513403  0.37799294  1  0  -0.173629  0  3.637719  0  0  -0.272892  0  3.879265  0  0  -0.268928  0  3.889311  0  0  -0.142255  -0.275374  0  3.872792  0
N  N58  1  0.52875865  0.16429960  0.48293032  1  0  -0.074791  0  3.494138  0  0  0.031327  0  3.722409  0  0  0.010425  0  3.749073  0  0  -0.279103  0.045374  0  3.703968  0
N  N59  1  0.47124151  0.83569537  0.51707183  1  0  -0.074826  0  3.494193  0  0  0.031326  0  3.722462  0  0  0.010421  0  3.749129  0  0  -0.279073  0.045378  0  3.704011  0
Cl  Cl60  1  0.23770969  0.71635025  0.96249360  1  0  -0.01603  0  1.459424  0  0  0.00081  0  1.711167  0  0  -0.001174  0  1.705596  0  0  0.037653  0.002019  0  1.7153  0
Cl  Cl61  1  0.76229059  0.28365382  0.03750233  1  0  -0.016019  0  1.459234  0  0  0.000818  0  1.710963  0  0  -0.001165  0  1.70539  0  0  0.037653  0.002028  0  1.715108  0
Cl  Cl62  1  0.50814670  0.80647066  0.89770331  1  0  -0.056137  0  1.47677  0  0  -0.04788  0  1.735333  0  0  -0.04954  0  1.729325  0  0  0.022988  -0.047038  0  1.73933  0
Cl  Cl63  1  0.49185490  0.19353644  0.10229220  1  0  -0.0561  0  1.476868  0  0  -0.047837  0  1.735423  0  0  -0.049495  0  1.729419  0  0  0.023013  -0.047  0  1.739418  0
Cl  Cl64  1  0.79761717  0.97562365  0.83233457  1  0  -0.03547  0  1.485435  0  0  -0.022832  0  1.742329  0  0  -0.024214  0  1.734961  0  0  0.034177  -0.02145  0  1.747249  0
Cl  Cl65  1  0.20238164  0.02437338  0.16766964  1  0  -0.035495  0  1.485407  0  0  -0.02286  0  1.742297  0  0  -0.024242  0  1.734928  0  0  0.034157  -0.02148  0  1.747219  0
Cl  Cl66  1  0.24827908  0.11264765  0.86909765  1  0  -0.055387  0  1.490131  0  0  -0.04506  0  1.747151  0  0  -0.046042  0  1.739364  0  0  0.021573  -0.04409  0  1.75225  0
Cl  Cl67  1  0.75172144  0.88735033  0.13090061  1  0  -0.055364  0  1.490122  0  0  -0.045032  0  1.747148  0  0  -0.046011  0  1.739358  0  0  0.021583  -0.044056  0  1.752252  0
Cl  Cl68  1  0.64725664  0.59303157  0.23113471  1  0  -0.030006  0  1.521607  0  0  -0.018655  0  1.785531  0  0  -0.020291  0  1.779325  0  0  0.037252  -0.01747  0  1.790706  0
Cl  Cl69  1  0.35273959  0.40697354  0.76886129  1  0  -0.029981  0  1.521549  0  0  -0.018617  0  1.7855  0  0  -0.020265  0  1.779286  0  0  0.037269  -0.017439  0  1.790672  0
Cl  Cl70  1  0.66029243  0.33113846  0.75071359  1  0  -0.040905  0  1.511355  0  0  -0.034403  0  1.774686  0  0  -0.036476  0  1.769982  0  0  0.036051  -0.032666  0  1.778694  0
Cl  Cl71  1  0.33970536  0.66886360  0.24928341  1  0  -0.040863  0  1.511349  0  0  -0.034382  0  1.774704  0  0  -0.036446  0  1.769984  0  0  0.036056  -0.032639  0  1.778713  0
O  O72  1  0.23587110  0.37731673  0.21052210  1  0  -0.696328  0  2.033908  0  0  -0.645853  0  2.290292  0  0  -0.682056  0  2.283498  0  0  -0.387489  -0.619622  0  2.294035  0
O  O73  1  0.76412899  0.62268837  0.78947705  1  0  -0.696267  0  2.03361  0  0  -0.645799  0  2.290062  0  0  -0.682002  0  2.283263  0  0  -0.387489  -0.619571  0  2.293823  0
O  O74  1  0.17252375  0.41520009  0.00987228  1  0  -0.613661  0  1.949781  0  0  -0.559984  0  2.166502  0  0  -0.5847  0  2.155484  0  0  -0.303266  -0.543245  0  2.173453  0
O  O75  1  0.82747673  0.58480298  0.99012671  1  0  -0.613606  0  1.949805  0  0  -0.559924  0  2.166551  0  0  -0.584639  0  2.155534  0  0  -0.30321  -0.543178  0  2.173504  0
O  O76  1  0.04109412  0.21261534  0.65010440  1  0  -0.677688  0  2.02715  0  0  -0.62081  0  2.267773  0  0  -0.653321  0  2.259605  0  0  -0.327953  -0.597326  0  2.272605  0
O  O77  1  0.95890719  0.78737857  0.34989264  1  0  -0.677754  0  2.027009  0  0  -0.620904  0  2.267675  0  0  -0.653416  0  2.259506  0  0  -0.328038  -0.597424  0  2.272505  0
O  O78  1  0.06419953  0.99541471  0.66905475  1  0  -0.608035  0  2.002078  0  0  -0.546455  0  2.217075  0  0  -0.57189  0  2.206992  0  0  -0.28913  -0.529472  0  2.224482  0
O  O79  1  0.93580563  0.00457919  0.33094544  1  0  -0.607908  0  2.001999  0  0  -0.546387  0  2.217038  0  0  -0.571824  0  2.206957  0  0  -0.289055  -0.529406  0  2.224436  0
O  O80  1  0.83679082  0.33993141  0.43745006  1  0  -0.632978  0  1.982501  0  0  -0.588253  0  2.217172  0  0  -0.61899  0  2.209852  0  0  -0.341953  -0.566717  0  2.221408  0
O  O81  1  0.16321179  0.66007063  0.56254908  1  0  -0.633035  0  1.982341  0  0  -0.588302  0  2.217011  0  0  -0.619037  0  2.209669  0  0  -0.341955  -0.566773  0  2.221252  0
O  O82  1  0.85505560  0.49324360  0.51694654  1  0  -0.732117  0  2.048069  0  0  -0.68323  0  2.311724  0  0  -0.720699  0  2.304497  0  0  -0.380835  -0.656735  0  2.3147  0
O  O83  1  0.14494377  0.50675545  0.48305594  1  0  -0.732149  0  2.048092  0  0  -0.683268  0  2.311773  0  0  -0.720727  0  2.304526  0  0  -0.38083  -0.656764  0  2.314737  0
O  O84  1  0.30502079  0.23677656  0.48759151  1  0  -0.589522  0  2.050207  0  0  -0.546342  0  2.314768  0  0  -0.575235  0  2.308875  0  0  -0.36218  -0.525673  0  2.317851  0
O  O85  1  0.69498014  0.76321943  0.51241196  1  0  -0.589546  0  2.050055  0  0  -0.546355  0  2.314634  0  0  -0.575251  0  2.30874  0  0  -0.362139  -0.525691  0  2.31772  0
O  O86  1  0.10410499  0.11487959  0.41519883  1  0  -0.893091  0  1.851415  0  0  -0.849174  0  2.0471  0  0  -0.876378  0  2.014642  0  0  -0.650189  -0.829025  0  2.068859  0
O  O87  1  0.89589322  0.88512048  0.58480338  1  0  -0.893095  0  1.851368  0  0  -0.849178  0  2.047057  0  0  -0.876381  0  2.014597  0  0  -0.650139  -0.829023  0  2.068816  0
O  O88  1  0.97664599  0.35812062  0.19359133  1  0  -0.871282  0  1.873603  0  0  -0.823588  0  2.062777  0  0  -0.848305  0  2.030955  0  0  -0.629387  -0.805377  0  2.0846  0
O  O89  1  0.02335413  0.64187942  0.80640887  1  0  -0.871276  0  1.873599  0  0  -0.823579  0  2.06277  0  0  -0.848297  0  2.030949  0  0  -0.62939  -0.805365  0  2.084594  0
O  O90  1  0.99635333  0.59864921  0.24507419  1  0  -0.896197  0  1.864954  0  0  -0.854717  0  2.064745  0  0  -0.879178  0  2.033367  0  0  -0.629208  -0.836884  0  2.087016  0
O  O91  1  0.00364352  0.40135289  0.75492740  1  0  -0.896207  0  1.864941  0  0  -0.854726  0  2.06473  0  0  -0.879193  0  2.03335  0  0  -0.62919  -0.836901  0  2.086994  0
