# generated using pymatgen
data_ZnH17C13SN3O7
_symmetry_space_group_name_H-M   'P 1'
_cell_length_a   7.48332202
_cell_length_b   10.10810421
_cell_length_c   13.06276100
_cell_angle_alpha   69.42722950
_cell_angle_beta   82.90167201
_cell_angle_gamma   68.60158666
_symmetry_Int_Tables_number   1
_chemical_formula_structural   ZnH17C13SN3O7
_chemical_formula_sum   'Zn2 H34 C26 S2 N6 O14'
_cell_volume   861.29992865
_cell_formula_units_Z   2
loop_
 _symmetry_equiv_pos_site_id
 _symmetry_equiv_pos_as_xyz
  1  'x, y, z'
loop_
 _atom_site_type_symbol
 _atom_site_label
 _atom_site_symmetry_multiplicity
 _atom_site_fract_x
 _atom_site_fract_y
 _atom_site_fract_z
 _atom_site_occupancy
 _atom_site_hle17_bader_spin_density
 _atom_site_hle17_ddec_charge
 _atom_site_hle17_ddec_spin_density
 _atom_site_hle17_ddec_sum_bond_order
 _atom_site_hle17_magmom
 _atom_site_hse06_10hf_bader_spin_density
 _atom_site_hse06_10hf_ddec_charge
 _atom_site_hse06_10hf_ddec_spin_density
 _atom_site_hse06_10hf_ddec_sum_bond_order
 _atom_site_hse06_10hf_magmom
 _atom_site_hse06_bader_spin_density
 _atom_site_hse06_ddec_charge
 _atom_site_hse06_ddec_spin_density
 _atom_site_hse06_ddec_sum_bond_order
 _atom_site_hse06_magmom
 _atom_site_pbe_bader_spin_density
 _atom_site_pbe_cm5_charge
 _atom_site_pbe_ddec_charge
 _atom_site_pbe_ddec_spin_density
 _atom_site_pbe_ddec_sum_bond_order
 _atom_site_pbe_magmom
Zn  Zn0  1  0.87650449  0.34118827  0.53061384  1  0  1.06639  0  1.758107  0  0  0.894272  0  2.194909  0  0  0.939232  0  2.144353  0  0  0.668652  0.863157  0  2.229614  0
Zn  Zn1  1  0.12656255  0.74186681  0.60751722  1  0  1.088297  0  1.782525  0  0  0.922988  0  2.227776  0  0  0.966425  0  2.175886  0  0  0.66984  0.892661  0  2.263641  0
H  H2  1  0.23935867  0.31112696  0.48254517  1  0  0.295357  0  0.896446  0  0  0.284992  0  0.95626  0  0  0.290475  0  0.952757  0  0  0.298133  0.281173  0  0.958699  0
H  H3  1  0.19077132  0.34995064  0.59712195  1  0  0.318171  0  0.908035  0  0  0.302823  0  0.970318  0  0  0.310138  0  0.964133  0  0  0.293232  0.2976  0  0.974846  0
H  H4  1  0.75517014  0.89431987  0.64699962  1  0  0.306703  0  0.899152  0  0  0.297031  0  0.955895  0  0  0.302914  0  0.951798  0  0  0.29288  0.292831  0  0.958911  0
H  H5  1  0.83245449  0.97851237  0.52922071  1  0  0.317611  0  0.905605  0  0  0.301704  0  0.970458  0  0  0.308933  0  0.964342  0  0  0.293481  0.296492  0  0.974891  0
H  H6  1  0.41038595  0.08008426  0.58284764  1  0  0.068616  0  0.933626  0  0  0.07518  0  1.001909  0  0  0.077516  0  1.000136  0  0  0.112303  0.07338  0  1.003348  0
H  H7  1  0.31408887  0.95993491  0.77716548  1  0  0.131443  0  0.937394  0  0  0.140421  0  1.002998  0  0  0.143901  0  1.001203  0  0  0.109194  0.137791  0  1.004772  0
H  H8  1  0.13999987  0.14019410  0.77086360  1  0  0.149268  0  0.937058  0  0  0.161232  0  0.990907  0  0  0.165343  0  0.988021  0  0  0.110716  0.158265  0  0.993143  0
H  H9  1  0.58550236  0.82445869  0.55434751  1  0  0.078634  0  0.920609  0  0  0.087121  0  0.9846  0  0  0.089604  0  0.983065  0  0  0.114979  0.085134  0  0.98607  0
H  H10  1  0.70202283  0.81883497  0.35955533  1  0  0.123902  0  0.948322  0  0  0.134193  0  1.009711  0  0  0.13753  0  1.007746  0  0  0.107408  0.131714  0  1.011332  0
H  H11  1  0.86470827  0.90585708  0.37138156  1  0  0.14776  0  0.930611  0  0  0.160373  0  0.984533  0  0  0.164257  0  0.982049  0  0  0.113548  0.157513  0  0.986486  0
H  H12  1  0.08578611  0.20649076  0.36043668  1  0  0.098033  0  0.986336  0  0  0.102162  0  1.051918  0  0  0.105217  0  1.049156  0  0  0.117999  0.099919  0  1.053969  0
H  H13  1  0.16923320  0.28020784  0.16535013  1  0  0.115908  0  0.943863  0  0  0.126351  0  1.00198  0  0  0.129816  0  1.00037  0  0  0.11359  0.123819  0  1.003369  0
H  H14  1  0.76586776  0.72923638  0.13075405  1  0  0.110572  0  0.943513  0  0  0.123311  0  0.997509  0  0  0.12631  0  0.996916  0  0  0.111757  0.121123  0  0.998101  0
H  H15  1  0.70528677  0.63496438  0.33037491  1  0  0.079595  0  0.957796  0  0  0.088022  0  1.021412  0  0  0.090077  0  1.019787  0  0  0.116266  0.086462  0  1.022733  0
H  H16  1  0.10708323  0.34028078  0.99350810  1  0  0.115168  0  0.935854  0  0  0.127803  0  0.989277  0  0  0.131059  0  0.988179  0  0  0.114832  0.125455  0  0.990195  0
H  H17  1  0.16562715  0.43420684  0.79524380  1  0  0.08981  0  0.95325  0  0  0.096189  0  1.017444  0  0  0.098853  0  1.015216  0  0  0.117096  0.094151  0  1.019228  0
H  H18  1  0.00475423  0.87331183  0.79245160  1  0  0.087944  0  0.938851  0  0  0.098894  0  0.996975  0  0  0.100789  0  0.995562  0  0  0.119373  0.097393  0  0.998279  0
H  H19  1  0.94141950  0.79934511  0.99150562  1  0  0.109472  0  0.941172  0  0  0.12253  0  0.994583  0  0  0.125675  0  0.993644  0  0  0.112194  0.120273  0  0.995394  0
H  H20  1  0.60195698  0.26521139  0.47841771  1  0  0.440318  0  0.853881  0  0  0.410522  0  0.915618  0  0  0.420558  0  0.900872  0  0  0.30024  0.403508  0  0.925921  0
H  H21  1  0.53699292  0.30787546  0.58716685  1  0  0.409725  0  0.895918  0  0  0.377488  0  0.968963  0  0  0.387671  0  0.954015  0  0  0.293592  0.370249  0  0.979568  0
H  H22  1  0.21694166  0.78353767  0.37749927  1  0  0.37522  0  0.951174  0  0  0.331933  0  1.034031  0  0  0.343684  0  1.017402  0  0  0.272809  0.323697  0  1.045675  0
H  H23  1  0.24893834  0.90379670  0.41983921  1  0  0.426583  0  0.874517  0  0  0.396119  0  0.937068  0  0  0.406532  0  0.921792  0  0  0.289067  0.388772  0  0.947841  0
H  H24  1  0.51489797  0.58831313  0.58293177  1  0  0.431377  0  0.864421  0  0  0.40137  0  0.926182  0  0  0.411701  0  0.911027  0  0  0.297893  0.394012  0  0.936994  0
H  H25  1  0.42215734  0.47641496  0.67037166  1  0  0.437382  0  0.859603  0  0  0.405626  0  0.924556  0  0  0.415083  0  0.910708  0  0  0.301691  0.398786  0  0.934587  0
H  H26  1  0.77675326  0.32499272  0.75270027  1  0  0.381046  0  0.943888  0  0  0.335117  0  1.031676  0  0  0.347373  0  1.014422  0  0  0.275944  0.32651  0  1.043773  0
H  H27  1  0.77961941  0.17978558  0.72567024  1  0  0.408158  0  0.884249  0  0  0.377329  0  0.959501  0  0  0.387289  0  0.944811  0  0  0.29087  0.370234  0  0.969946  0
H  H28  1  0.35796483  0.49810334  0.37227250  1  0  0.078371  0  0.951989  0  0  0.08856  0  1.013819  0  0  0.091344  0  1.011007  0  0  0.112914  0.086464  0  1.015979  0
H  H29  1  0.49211043  0.38676079  0.22685616  1  0  0.118551  0  0.974978  0  0  0.12362  0  1.042295  0  0  0.127193  0  1.040717  0  0  0.108077  0.121064  0  1.043524  0
H  H30  1  0.35860101  0.84337622  0.99842950  1  0  0.109294  0  0.963403  0  0  0.118931  0  1.025286  0  0  0.122117  0  1.024152  0  0  0.105532  0.116676  0  1.026168  0
H  H31  1  0.22959055  0.93267043  0.15468925  1  0  0.083812  0  0.911134  0  0  0.096781  0  0.962874  0  0  0.099552  0  0.96079  0  0  0.121083  0.094691  0  0.964516  0
H  H32  1  0.50452560  0.31803130  0.09510364  1  0  0.125865  0  0.983341  0  0  0.135614  0  1.043339  0  0  0.139099  0  1.041565  0  0  0.108091  0.133067  0  1.044747  0
H  H33  1  0.64391890  0.22159188  0.94400053  1  0  0.085742  0  0.931436  0  0  0.094465  0  0.991246  0  0  0.097453  0  0.988315  0  0  0.115213  0.092239  0  0.993402  0
H  H34  1  0.70435853  0.62694394  0.75152447  1  0  0.070939  0  0.942892  0  0  0.083628  0  1.002452  0  0  0.084743  0  1.001915  0  0  0.113384  0.082732  0  1.002992  0
H  H35  1  0.56794040  0.74363818  0.89422718  1  0  0.104253  0  0.959368  0  0  0.114694  0  1.021373  0  0  0.117535  0  1.020644  0  0  0.10533  0.112606  0  1.022125  0
C  C36  1  0.15301057  0.03372381  0.59377406  1  0  0.660784  0  3.817165  0  0  0.607946  0  4.118167  0  0  0.64118  0  4.111913  0  0  0.215866  0.585333  0  4.121911  0
C  C37  1  0.26550020  0.12222901  0.61502500  1  0  0.095507  0  3.621729  0  0  0.076594  0  3.862139  0  0  0.076905  0  3.874993  0  0  -0.003665  0.076273  0  3.853577  0
C  C38  1  0.27772118  0.08214397  0.73884228  1  0  -0.361602  0  3.621124  0  0  -0.399474  0  3.873747  0  0  -0.406132  0  3.879768  0  0  -0.16091  -0.394904  0  3.870042  0
C  C39  1  0.84377395  0.64148658  0.54870853  1  0  0.648962  0  3.802897  0  0  0.595639  0  4.109096  0  0  0.628214  0  4.103296  0  0  0.218028  0.573472  0  4.112774  0
C  C40  1  0.73352557  0.81187504  0.52501581  1  0  0.091473  0  3.617502  0  0  0.069599  0  3.866339  0  0  0.069802  0  3.878813  0  0  -0.00101  0.069343  0  3.857894  0
C  C41  1  0.72853759  0.88778550  0.40045719  1  0  -0.352725  0  3.59851  0  0  -0.3883  0  3.848633  0  0  -0.394598  0  3.854606  0  0  -0.157675  -0.383679  0  3.844339  0
C  C42  1  0.01758578  0.32129235  0.30687292  1  0  0.134068  0  3.684445  0  0  0.103341  0  3.935442  0  0  0.110215  0  3.952795  0  0  0.047611  0.098862  0  3.923803  0
C  C43  1  0.06179814  0.36372245  0.19635364  1  0  -0.1462  0  3.678671  0  0  -0.165705  0  3.926993  0  0  -0.173175  0  3.947517  0  0  -0.075698  -0.160941  0  3.913341  0
C  C44  1  0.97442194  0.51292062  0.12905743  1  0  0.094986  0  3.75979  0  0  0.105366  0  3.994066  0  0  0.109518  0  4.015687  0  0  0.012402  0.102778  0  3.979263  0
C  C45  1  0.84352483  0.61277818  0.17843153  1  0  -0.159722  0  3.70856  0  0  -0.17955  0  3.958168  0  0  -0.187164  0  3.980069  0  0  -0.081143  -0.174556  0  3.943375  0
C  C46  1  0.80799290  0.56130923  0.28974386  1  0  0.130264  0  3.721859  0  0  0.098704  0  3.976775  0  0  0.105116  0  3.996501  0  0  0.04588  0.094626  0  3.963336  0
C  C47  1  0.01681398  0.56222389  0.01120498  1  0  0.086787  0  3.772967  0  0  0.096684  0  4.009487  0  0  0.100219  0  4.03128  0  0  0.01087  0.094478  0  3.994476  0
C  C48  1  0.08337139  0.45977467  0.95351019  1  0  -0.150618  0  3.698399  0  0  -0.172143  0  3.950897  0  0  -0.179373  0  3.972184  0  0  -0.076329  -0.167305  0  3.93638  0
C  C49  1  0.11534351  0.51161318  0.84177171  1  0  0.140054  0  3.687263  0  0  0.10826  0  3.94608  0  0  0.114837  0  3.964141  0  0  0.050598  0.104029  0  3.933757  0
C  C50  1  0.02628004  0.75614077  0.84037264  1  0  0.135544  0  3.703391  0  0  0.104649  0  3.958971  0  0  0.111321  0  3.977313  0  0  0.047622  0.100209  0  3.946745  0
C  C51  1  0.98967051  0.71386990  0.95184851  1  0  -0.155376  0  3.708286  0  0  -0.17599  0  3.96081  0  0  -0.183081  0  3.981518  0  0  -0.080196  -0.171343  0  3.946891  0
C  C52  1  0.35510086  0.57051728  0.28740151  1  0  0.129009  0  3.71988  0  0  0.098998  0  3.976338  0  0  0.104521  0  3.99458  0  0  0.044482  0.095519  0  3.963845  0
C  C53  1  0.43131409  0.50882991  0.20499871  1  0  -0.155914  0  3.685669  0  0  -0.175959  0  3.938259  0  0  -0.183159  0  3.960219  0  0  -0.082824  -0.171171  0  3.92345  0
C  C54  1  0.43508112  0.60484251  0.09726888  1  0  0.086697  0  3.761587  0  0  0.097579  0  3.995861  0  0  0.100828  0  4.018312  0  0  0.009487  0.095534  0  3.980448  0
C  C55  1  0.35967924  0.76068229  0.07912824  1  0  -0.166878  0  3.716129  0  0  -0.184742  0  3.965382  0  0  -0.191873  0  3.987034  0  0  -0.083425  -0.180067  0  3.950653  0
C  C56  1  0.28640284  0.81211904  0.16685295  1  0  0.118594  0  3.73666  0  0  0.089646  0  3.98912  0  0  0.095005  0  4.007813  0  0  0.046403  0.086286  0  3.976263  0
C  C57  1  0.51920105  0.54248522  0.00828855  1  0  0.089253  0  3.754845  0  0  0.100037  0  3.988641  0  0  0.10318  0  4.011188  0  0  0.007909  0.098208  0  3.973026  0
C  C58  1  0.54532693  0.39282297  0.02072333  1  0  -0.158444  0  3.682487  0  0  -0.176224  0  3.924995  0  0  -0.18339  0  3.946578  0  0  -0.081961  -0.17152  0  3.910377  0
C  C59  1  0.62680085  0.33669080  0.93623062  1  0  0.127069  0  3.714361  0  0  0.098769  0  3.965938  0  0  0.104491  0  3.98395  0  0  0.046791  0.095115  0  3.953666  0
C  C60  1  0.65739001  0.56243909  0.82891884  1  0  0.140242  0  3.72652  0  0  0.108852  0  3.985472  0  0  0.115356  0  4.003779  0  0  0.046655  0.1046  0  3.973069  0
C  C61  1  0.57797683  0.62814794  0.90898305  1  0  -0.161452  0  3.700541  0  0  -0.180471  0  3.950957  0  0  -0.187773  0  3.972991  0  0  -0.084827  -0.175633  0  3.936074  0
S  S62  1  0.45608666  0.12948861  0.78277120  1  0  1.329368  0  5.621212  0  0  1.23493  0  6.153847  0  0  1.280745  0  6.131313  0  0  0.494517  1.203325  0  6.168273  0
S  S63  1  0.53699728  0.06568499  0.35335691  1  0  1.343464  0  5.639053  0  0  1.247781  0  6.174808  0  0  1.294002  0  6.151619  0  0  0.498263  1.215952  0  6.189584  0
N  N64  1  0.17425188  0.28459993  0.55675045  1  0  -0.660232  0  3.112588  0  0  -0.615768  0  3.369665  0  0  -0.633898  0  3.365084  0  0  -0.627221  -0.603082  0  3.372723  0
N  N65  1  0.82699746  0.87564479  0.57857862  1  0  -0.674029  0  3.111605  0  0  -0.633132  0  3.373872  0  0  -0.65089  0  3.369003  0  0  -0.628686  -0.620579  0  3.377175  0
N  N66  1  0.89463742  0.41836219  0.35386789  1  0  -0.328682  0  3.254723  0  0  -0.251106  0  3.519435  0  0  -0.26972  0  3.537087  0  0  -0.320035  -0.23843  0  3.50737  0
N  N67  1  0.08689036  0.65750164  0.78539889  1  0  -0.32878  0  3.244414  0  0  -0.256406  0  3.512249  0  0  -0.274125  0  3.529982  0  0  -0.316384  -0.244285  0  3.500085  0
N  N68  1  0.28316810  0.71943854  0.26973821  1  0  -0.313853  0  3.176091  0  0  -0.25083  0  3.421019  0  0  -0.26506  0  3.437442  0  0  -0.30719  -0.241151  0  3.409696  0
N  N69  1  0.68299245  0.41907431  0.84146123  1  0  -0.312535  0  3.182505  0  0  -0.2492  0  3.429943  0  0  -0.2638  0  3.44618  0  0  -0.306564  -0.239276  0  3.418992  0
O  O70  1  0.99272558  0.10468923  0.54460770  1  0  -0.617761  0  2.037168  0  0  -0.545005  0  2.276239  0  0  -0.571925  0  2.266307  0  0  -0.307043  -0.526701  0  2.282823  0
O  O71  1  0.23305322  0.89162510  0.63107832  1  0  -0.634716  0  2.066769  0  0  -0.574036  0  2.336414  0  0  -0.600997  0  2.324668  0  0  -0.321713  -0.555274  0  2.344019  0
O  O72  1  0.42791484  0.10252861  0.89979046  1  0  -0.653389  0  1.864928  0  0  -0.614151  0  2.096218  0  0  -0.633242  0  2.082716  0  0  -0.356916  -0.600572  0  2.10481  0
O  O73  1  0.64606933  0.03766359  0.75286632  1  0  -0.697886  0  1.92282  0  0  -0.644668  0  2.167676  0  0  -0.665018  0  2.15342  0  0  -0.354845  -0.630131  0  2.176973  0
O  O74  1  0.41464208  0.29189298  0.71653396  1  0  -0.73301  0  2.036799  0  0  -0.659424  0  2.274396  0  0  -0.681843  0  2.259852  0  0  -0.348241  -0.643218  0  2.283996  0
O  O75  1  0.01544842  0.58511042  0.58157874  1  0  -0.599987  0  2.019185  0  0  -0.533266  0  2.262238  0  0  -0.558953  0  2.25179  0  0  -0.299123  -0.515926  0  2.26942  0
O  O76  1  0.75064081  0.56825751  0.52948409  1  0  -0.651874  0  2.076951  0  0  -0.578221  0  2.331272  0  0  -0.60624  0  2.318783  0  0  -0.311133  -0.55917  0  2.339727  0
O  O77  1  0.36076578  0.03313676  0.39737487  1  0  -0.703582  0  2.035966  0  0  -0.639437  0  2.281556  0  0  -0.66217  0  2.268528  0  0  -0.342518  -0.623453  0  2.290073  0
O  O78  1  0.54722502  0.11503996  0.23408719  1  0  -0.667626  0  1.895606  0  0  -0.626735  0  2.131228  0  0  -0.645336  0  2.116506  0  0  -0.36115  -0.613505  0  2.140799  0
O  O79  1  0.57048099  0.16763563  0.40100868  1  0  -0.710141  0  1.95442  0  0  -0.650844  0  2.202394  0  0  -0.671398  0  2.186564  0  0  -0.35787  -0.636264  0  2.212757  0
O  O80  1  0.59835194  0.33682878  0.51509291  1  0  -0.817516  0  1.915806  0  0  -0.759436  0  2.125515  0  0  -0.779397  0  2.092151  0  0  -0.576657  -0.745238  0  2.148623  0
O  O81  1  0.84155309  0.25604478  0.70742151  1  0  -0.824829  0  1.964856  0  0  -0.757079  0  2.182297  0  0  -0.778783  0  2.148422  0  0  -0.579833  -0.741497  0  2.205535  0
O  O82  1  0.17603405  0.83462277  0.43500723  1  0  -0.837293  0  1.932294  0  0  -0.771361  0  2.141335  0  0  -0.792529  0  2.106676  0  0  -0.587036  -0.756367  0  2.165363  0
O  O83  1  0.40511587  0.58326762  0.63297685  1  0  -0.830765  0  1.925832  0  0  -0.7741  0  2.139652  0  0  -0.793404  0  2.106149  0  0  -0.582766  -0.760319  0  2.163242  0
