# generated using pymatgen
data_CdH13C15NO5
_symmetry_space_group_name_H-M   'P 1'
_cell_length_a   6.70405251
_cell_length_b   13.47149167
_cell_length_c   15.22900000
_cell_angle_alpha   90.00000000
_cell_angle_beta   90.00000000
_cell_angle_gamma   90.00000000
_symmetry_Int_Tables_number   1
_chemical_formula_structural   CdH13C15NO5
_chemical_formula_sum   'Cd4 H52 C60 N4 O20'
_cell_volume   1375.38562481
_cell_formula_units_Z   4
loop_
 _symmetry_equiv_pos_site_id
 _symmetry_equiv_pos_as_xyz
  1  'x, y, z'
loop_
 _atom_site_type_symbol
 _atom_site_label
 _atom_site_symmetry_multiplicity
 _atom_site_fract_x
 _atom_site_fract_y
 _atom_site_fract_z
 _atom_site_occupancy
 _atom_site_hle17_bader_spin_density
 _atom_site_hle17_ddec_charge
 _atom_site_hle17_ddec_spin_density
 _atom_site_hle17_ddec_sum_bond_order
 _atom_site_hle17_magmom
 _atom_site_hse06_10hf_bader_spin_density
 _atom_site_hse06_10hf_ddec_charge
 _atom_site_hse06_10hf_ddec_spin_density
 _atom_site_hse06_10hf_ddec_sum_bond_order
 _atom_site_hse06_10hf_magmom
 _atom_site_hse06_bader_spin_density
 _atom_site_hse06_ddec_charge
 _atom_site_hse06_ddec_spin_density
 _atom_site_hse06_ddec_sum_bond_order
 _atom_site_hse06_magmom
 _atom_site_pbe_bader_charge
 _atom_site_pbe_bader_spin_density
 _atom_site_pbe_cm5_charge
 _atom_site_pbe_ddec_charge
 _atom_site_pbe_ddec_spin_density
 _atom_site_pbe_ddec_sum_bond_order
 _atom_site_pbe_magmom
Cd  Cd0  1  0.86102249  0.68902912  0.46898024  1  0  1.281512  0  1.567644  0  0  1.116931  0  2.003432  0  0  1.176408  0  1.943322  0  1.362093  0  0.792477  1.07396  0  2.044994  0
Cd  Cd1  1  0.63897471  0.31096928  0.96898024  1  0  1.281486  0  1.567717  0  0  1.116988  0  2.003452  0  0  1.176437  0  1.94339  0  1.362024  0  0.792459  1.07402  0  2.045011  0
Cd  Cd2  1  0.13897564  0.18902881  0.03102042  1  0  1.2815  0  1.567665  0  0  1.11701  0  2.003398  0  0  1.176459  0  1.943335  0  1.362018  0  0.792463  1.07404  0  2.044959  0
Cd  Cd3  1  0.36102492  0.81097033  0.53101911  1  0  1.281516  0  1.567628  0  0  1.116972  0  2.003356  0  0  1.176422  0  1.943296  0  1.362066  0  0.792496  1.074003  0  2.044916  0
H  H4  1  0.13790316  0.45937229  0.63362663  1  0  0.099202  0  0.958186  0  0  0.110073  0  1.019147  0  0  0.113051  0  1.01772  0  0.065835  0  0.105549  0.107945  0  1.020196  0
H  H5  1  0.36209591  0.54062684  0.13362598  1  0  0.099236  0  0.958156  0  0  0.1101  0  1.019118  0  0  0.113079  0  1.01769  0  0.065841  0  0.10555  0.10796  0  1.020182  0
H  H6  1  0.86209349  0.95937037  0.86637205  1  0  0.099141  0  0.958244  0  0  0.110026  0  1.019193  0  0  0.113002  0  1.01777  0  0.065842  0  0.105538  0.107906  0  1.020234  0
H  H7  1  0.63790222  0.04062802  0.36637271  1  0  0.099262  0  0.958151  0  0  0.110131  0  1.019104  0  0  0.113109  0  1.017677  0  0.065831  0  0.105552  0.107991  0  1.020167  0
H  H8  1  0.15848921  0.33048976  0.75156281  1  0  0.095116  0  0.964272  0  0  0.106352  0  1.026315  0  0  0.109219  0  1.025493  0  0.083168  0  0.101668  0.104301  0  1.026979  0
H  H9  1  0.34151135  0.66951012  0.25156215  1  0  0.095092  0  0.964283  0  0  0.106328  0  1.026327  0  0  0.109195  0  1.025504  0  0.083157  0  0.10166  0.104279  0  1.02699  0
H  H10  1  0.84150892  0.83048932  0.74843522  1  0  0.095087  0  0.964285  0  0  0.106318  0  1.026339  0  0  0.109184  0  1.025517  0  0.083028  0  0.101644  0.104271  0  1.026999  0
H  H11  1  0.65848977  0.16950981  0.24843654  1  0  0.095115  0  0.964269  0  0  0.106353  0  1.026304  0  0  0.10922  0  1.025482  0  0.083173  0  0.101672  0.104303  0  1.026968  0
H  H12  1  0.12825824  0.51127820  0.02004137  1  0  0.10141  0  0.97765  0  0  0.110122  0  1.042688  0  0  0.112995  0  1.04151  0  0.090174  0  0.102056  0.108049  0  1.043608  0
H  H13  1  0.37174231  0.48872242  0.52004071  1  0  0.101398  0  0.977664  0  0  0.11011  0  1.042709  0  0  0.112981  0  1.041535  0  0.090156  0  0.10205  0.108037  0  1.04363  0
H  H14  1  0.87174436  0.01127863  0.47995797  1  0  0.101357  0  0.977683  0  0  0.110033  0  1.042776  0  0  0.112905  0  1.041601  0  0.090189  0  0.102007  0.107961  0  1.043695  0
H  H15  1  0.62825880  0.98872199  0.97995797  1  0  0.101397  0  0.977654  0  0  0.110084  0  1.042724  0  0  0.112957  0  1.041546  0  0.090203  0  0.102018  0.10801  0  1.043646  0
H  H16  1  0.13114754  0.68948786  0.06116882  1  0  0.083954  0  0.956538  0  0  0.098797  0  1.012027  0  0  0.101203  0  1.011973  0  0.089363  0  0.098648  0.097088  0  1.012113  0
H  H17  1  0.36885451  0.31051276  0.56116751  1  0  0.083961  0  0.956528  0  0  0.098807  0  1.01201  0  0  0.101212  0  1.011956  0  0.089384  0  0.098662  0.097098  0  1.012097  0
H  H18  1  0.86885358  0.18948904  0.43883380  1  0  0.084058  0  0.956548  0  0  0.098922  0  1.012  0  0  0.101326  0  1.011946  0  0.089377  0  0.098687  0.097213  0  1.012088  0
H  H19  1  0.63114661  0.81051084  0.93883315  1  0  0.084043  0  0.956546  0  0  0.098902  0  1.012004  0  0  0.101307  0  1.01195  0  0.089362  0  0.098681  0.097193  0  1.012091  0
H  H20  1  0.14046429  0.81941334  0.94446123  1  0  0.09103  0  0.940982  0  0  0.105645  0  0.993871  0  0  0.108484  0  0.993013  0  0.074671  0  0.102057  0.103573  0  0.994554  0
H  H21  1  0.35953776  0.18058653  0.44446123  1  0  0.091039  0  0.941012  0  0  0.105659  0  0.993895  0  0  0.108496  0  0.99304  0  0.074652  0  0.102071  0.10359  0  0.994574  0
H  H22  1  0.85953981  0.31941303  0.55554140  1  0  0.091037  0  0.941081  0  0  0.105647  0  0.993959  0  0  0.108483  0  0.993105  0  0.074655  0  0.102079  0.103562  0  0.994655  0
H  H23  1  0.64046038  0.68058536  0.05553943  1  0  0.091046  0  0.941043  0  0  0.105662  0  0.993918  0  0  0.108502  0  0.993061  0  0.074639  0  0.102078  0.103593  0  0.994598  0
H  H24  1  0.15273150  0.77063626  0.78782717  1  0  0.094739  0  0.99825  0  0  0.100917  0  1.068703  0  0  0.104107  0  1.066978  0  0.076798  0  0.096281  0.098613  0  1.070055  0
H  H25  1  0.34726757  0.22936436  0.28782717  1  0  0.094717  0  0.998283  0  0  0.100901  0  1.06873  0  0  0.104091  0  1.067006  0  0.076789  0  0.096278  0.098599  0  1.07008  0
H  H26  1  0.84726812  0.27063521  0.71217480  1  0  0.094732  0  0.998263  0  0  0.100906  0  1.06873  0  0  0.104098  0  1.067001  0  0.076755  0  0.096267  0.098603  0  1.07008  0
H  H27  1  0.65273355  0.72936318  0.21217283  1  0  0.09474  0  0.998236  0  0  0.100909  0  1.068703  0  0  0.104101  0  1.066975  0  0.076767  0  0.096273  0.098606  0  1.070055  0
H  H28  1  0.87081955  0.61048028  0.27942150  1  0  0.041144  0  0.937772  0  0  0.050529  0  1.009512  0  0  0.052313  0  1.004511  0  0.060138  0  0.121288  0.049119  0  1.013105  0
H  H29  1  0.62917914  0.38952405  0.77942216  1  0  0.041324  0  0.937895  0  0  0.050739  0  1.009568  0  0  0.052534  0  1.004531  0  0.0598  0  0.121342  0.049321  0  1.013179  0
H  H30  1  0.12917858  0.11047700  0.22057784  1  0  0.041301  0  0.937885  0  0  0.050716  0  1.009567  0  0  0.05251  0  1.004532  0  0.059793  0  0.121358  0.049303  0  1.01317  0
H  H31  1  0.37082048  0.88952065  0.72057784  1  0  0.041174  0  0.937783  0  0  0.050577  0  1.00951  0  0  0.052363  0  1.0045  0  0.059971  0  0.121318  0.049168  0  1.013096  0
H  H32  1  0.92390983  0.36534558  0.37292928  1  0  0.111432  0  0.943048  0  0  0.130948  0  1.004239  0  0  0.132129  0  1.003924  0  0.081576  0  0.109297  0.129985  0  1.004591  0
H  H33  1  0.57609036  0.63465503  0.87292994  1  0  0.111474  0  0.943003  0  0  0.130968  0  1.004211  0  0  0.132152  0  1.003894  0  0.081922  0  0.109314  0.130004  0  1.004563  0
H  H34  1  0.07608980  0.86534515  0.12707138  1  0  0.111501  0  0.94299  0  0  0.130997  0  1.004193  0  0  0.13218  0  1.003876  0  0.081932  0  0.109307  0.130034  0  1.004545  0
H  H35  1  0.42391076  0.13465547  0.62707006  1  0  0.111436  0  0.943048  0  0  0.130958  0  1.004237  0  0  0.13214  0  1.003921  0  0.08156  0  0.109296  0.129996  0  1.004589  0
H  H36  1  0.97014306  0.31251847  0.26633659  1  0  0.108109  0  0.951561  0  0  0.126161  0  1.017512  0  0  0.127079  0  1.016847  0  0.083718  0  0.104429  0.125339  0  1.018168  0
H  H37  1  0.52986011  0.68748140  0.76633725  1  0  0.10813  0  0.951674  0  0  0.126176  0  1.017618  0  0  0.1271  0  1.016939  0  0.08376  0  0.104445  0.125353  0  1.018274  0
H  H38  1  0.02986104  0.81251952  0.23366406  1  0  0.108162  0  0.951687  0  0  0.126219  0  1.017614  0  0  0.127143  0  1.016935  0  0.083723  0  0.104443  0.125393  0  1.018277  0
H  H39  1  0.47014250  0.18748184  0.73366341  1  0  0.108135  0  0.951559  0  0  0.126191  0  1.017505  0  0  0.12711  0  1.016838  0  0.083714  0  0.104431  0.125369  0  1.01816  0
H  H40  1  0.71998243  0.32859984  0.30494057  1  0  0.088628  0  0.97598  0  0  0.107223  0  1.044293  0  0  0.10654  0  1.046165  0  0.048861  0  0.095398  0.107517  0  1.043203  0
H  H41  1  0.78001925  0.67140152  0.80493926  1  0  0.088674  0  0.9759  0  0  0.107273  0  1.044204  0  0  0.106591  0  1.046077  0  0.048963  0  0.095421  0.107567  0  1.043114  0
H  H42  1  0.28002018  0.82860015  0.19506074  1  0  0.088704  0  0.975904  0  0  0.1073  0  1.044216  0  0  0.106617  0  1.046088  0  0.048963  0  0.09541  0.107593  0  1.043126  0
H  H43  1  0.21998336  0.17139973  0.69506008  1  0  0.08865  0  0.975967  0  0  0.10725  0  1.044277  0  0  0.106567  0  1.04615  0  0.04887  0  0.095406  0.107543  0  1.043188  0
H  H44  1  0.88426664  0.54452916  0.15192199  1  0  0.093863  0  0.939977  0  0  0.116569  0  1.001895  0  0  0.116748  0  1.002348  0  0.014203  0  0.105412  0.116341  0  1.001648  0
H  H45  1  0.61573354  0.45547220  0.65192002  1  0  0.093878  0  0.939866  0  0  0.116542  0  1.001826  0  0  0.116722  0  1.002282  0  0.014102  0  0.105406  0.116314  0  1.001579  0
H  H46  1  0.11573298  0.04452959  0.34807998  1  0  0.09386  0  0.93993  0  0  0.116557  0  1.001847  0  0  0.116736  0  1.002303  0  0.01417  0  0.105417  0.116329  0  1.001599  0
H  H47  1  0.38426757  0.95547103  0.84807801  1  0  0.093883  0  0.939947  0  0  0.116592  0  1.001865  0  0  0.116771  0  1.00232  0  0.014196  0  0.105423  0.116364  0  1.001618  0
H  H48  1  0.71598186  0.44196887  0.14635564  1  0  0.11057  0  0.974889  0  0  0.127681  0  1.039629  0  0  0.128787  0  1.039468  0  0.074087  0  0.100157  0.126743  0  1.039951  0
H  H49  1  0.78401832  0.55803249  0.64635367  1  0  0.110535  0  0.974923  0  0  0.12764  0  1.039666  0  0  0.128747  0  1.039507  0  0.074085  0  0.100148  0.126701  0  1.039989  0
H  H50  1  0.28401925  0.94196844  0.35364633  1  0  0.110562  0  0.974881  0  0  0.127642  0  1.039654  0  0  0.128748  0  1.039496  0  0.074088  0  0.100157  0.126703  0  1.039977  0
H  H51  1  0.21597981  0.05803218  0.85364371  1  0  0.110577  0  0.974872  0  0  0.127697  0  1.03961  0  0  0.128804  0  1.039447  0  0.074092  0  0.100158  0.126757  0  1.039934  0
H  H52  1  0.97723131  0.42062751  0.14168888  1  0  0.113415  0  0.953524  0  0  0.129957  0  1.019877  0  0  0.130667  0  1.020206  0  0.080426  0  0.104205  0.129287  0  1.019881  0
H  H53  1  0.52276888  0.57937459  0.64168757  1  0  0.113384  0  0.953516  0  0  0.129893  0  1.019911  0  0  0.130604  0  1.020242  0  0.080402  0  0.104192  0.129221  0  1.019919  0
H  H54  1  0.02276832  0.92062634  0.35831309  1  0  0.113399  0  0.95351  0  0  0.129902  0  1.019899  0  0  0.130613  0  1.020229  0  0.080407  0  0.104201  0.129232  0  1.019901  0
H  H55  1  0.47723075  0.07937280  0.85831112  1  0  0.113453  0  0.953589  0  0  0.129986  0  1.019932  0  0  0.130696  0  1.020263  0  0.08043  0  0.10423  0.129317  0  1.019933  0
C  C56  1  0.14367877  0.58146122  0.72288725  1  0  -0.100979  0  3.700491  0  0  -0.085579  0  3.937973  0  0  -0.091705  0  3.956598  0  -0.010706  0  -0.013075  -0.081629  0  3.925692  0
C  C57  1  0.35631881  0.41853940  0.22288725  1  0  -0.100923  0  3.700458  0  0  -0.085485  0  3.937922  0  0  -0.091608  0  3.95654  0  -0.010657  0  -0.013013  -0.081537  0  3.92564  0
C  C58  1  0.85631787  0.08146091  0.77711340  1  0  -0.100948  0  3.700473  0  0  -0.085513  0  3.937932  0  0  -0.091639  0  3.956551  0  -0.010658  0  -0.013  -0.081565  0  3.925657  0
C  C59  1  0.64368082  0.91853822  0.27711275  1  0  -0.100915  0  3.700386  0  0  -0.0855  0  3.937836  0  0  -0.091625  0  3.956459  0  -0.010685  0  -0.013038  -0.08155  0  3.925552  0
C  C60  1  0.14231094  0.48111450  0.70247751  1  0  -0.075356  0  3.767715  0  0  -0.099932  0  4.02331  0  0  -0.099345  0  4.04202  0  -0.051691  0  -0.087733  -0.100175  0  4.010589  0
C  C61  1  0.35768813  0.51888612  0.20247685  1  0  -0.075377  0  3.767686  0  0  -0.099946  0  4.023269  0  0  -0.099355  0  4.04197  0  -0.051739  0  -0.087704  -0.100178  0  4.010556  0
C  C62  1  0.85768570  0.98111258  0.79752249  1  0  -0.075231  0  3.767644  0  0  -0.099822  0  4.023247  0  0  -0.099231  0  4.041949  0  -0.051721  0  -0.087686  -0.100074  0  4.01053  0
C  C63  1  0.64231299  0.01888581  0.29752315  1  0  -0.075514  0  3.76774  0  0  -0.100093  0  4.023339  0  0  -0.099505  0  4.042046  0  -0.051734  0  -0.087761  -0.100325  0  4.010624  0
C  C64  1  0.14991231  0.40890349  0.76847922  1  0  -0.088861  0  3.765368  0  0  -0.114189  0  4.021527  0  0  -0.11598  0  4.040935  0  -0.025075  0  -0.091276  -0.11288  0  4.008327  0
C  C65  1  0.35008825  0.59109713  0.26847922  1  0  -0.088826  0  3.765342  0  0  -0.114152  0  4.021509  0  0  -0.115939  0  4.040913  0  -0.024998  0  -0.091265  -0.112845  0  4.008308  0
C  C66  1  0.85008582  0.90890158  0.73152078  1  0  -0.0889  0  3.765265  0  0  -0.11421  0  4.021474  0  0  -0.115998  0  4.040879  0  -0.024916  0  -0.091283  -0.112907  0  4.00828  0
C  C67  1  0.64991287  0.09109682  0.23152078  1  0  -0.088813  0  3.765262  0  0  -0.114118  0  4.021454  0  0  -0.115908  0  4.040863  0  -0.025107  0  -0.091261  -0.112811  0  4.008252  0
C  C68  1  0.14286135  0.43602150  0.85609495  1  0  -0.071472  0  3.707764  0  0  -0.054601  0  3.942225  0  0  -0.059142  0  3.961135  0  -0.047233  0  -0.006482  -0.051698  0  3.92964  0
C  C69  1  0.35713772  0.56397763  0.35609495  1  0  -0.071496  0  3.707684  0  0  -0.054631  0  3.942164  0  0  -0.059179  0  3.961079  0  -0.047294  0  -0.006518  -0.051726  0  3.929584  0
C  C70  1  0.85713678  0.93602181  0.64390439  1  0  -0.071373  0  3.70754  0  0  -0.054621  0  3.942051  0  0  -0.059168  0  3.960964  0  -0.047258  0  -0.006512  -0.051717  0  3.929471  0
C  C71  1  0.64286191  0.06397658  0.14390439  1  0  -0.071386  0  3.707615  0  0  -0.054637  0  3.942154  0  0  -0.059183  0  3.961063  0  -0.047149  0  -0.00651  -0.051731  0  3.92957  0
C  C72  1  0.13299568  0.56853466  0.96977871  1  0  -0.094121  0  3.711438  0  0  -0.115536  0  3.96067  0  0  -0.116584  0  3.979605  0  -0.060384  0  -0.08626  -0.114732  0  3.947813  0
C  C73  1  0.36700339  0.43146595  0.46977871  1  0  -0.094143  0  3.711362  0  0  -0.115564  0  3.960597  0  0  -0.116615  0  3.979537  0  -0.060423  0  -0.086249  -0.114758  0  3.947741  0
C  C74  1  0.86700246  0.06853658  0.53022260  1  0  -0.09408  0  3.711749  0  0  -0.115496  0  3.960918  0  0  -0.116548  0  3.979859  0  -0.060333  0  -0.086223  -0.11469  0  3.948057  0
C  C75  1  0.63299773  0.93146329  0.03022326  1  0  -0.094125  0  3.711694  0  0  -0.115552  0  3.960858  0  0  -0.116601  0  3.979797  0  -0.060289  0  -0.086245  -0.114748  0  3.948  0
C  C76  1  0.13424865  0.66755191  0.99225622  1  0  -0.077332  0  3.801548  0  0  -0.091757  0  4.053419  0  0  -0.094661  0  4.075872  0  -0.082918  0  -0.094115  -0.089728  0  4.037903  0
C  C77  1  0.36575191  0.33244945  0.49225622  1  0  -0.077329  0  3.801501  0  0  -0.091746  0  4.05337  0  0  -0.094647  0  4.07582  0  -0.082933  0  -0.094162  -0.089719  0  4.037857  0
C  C78  1  0.86575396  0.16755606  0.50774378  1  0  -0.077539  0  3.801556  0  0  -0.092003  0  4.053453  0  0  -0.094903  0  4.075904  0  -0.083079  0  -0.094199  -0.089975  0  4.037937  0
C  C79  1  0.63424623  0.83244308  0.00774378  1  0  -0.07746  0  3.801473  0  0  -0.091914  0  4.053367  0  0  -0.094815  0  4.075818  0  -0.083064  0  -0.094161  -0.089886  0  4.037855  0
C  C80  1  0.13977367  0.74110650  0.92607065  1  0  -0.066824  0  3.795724  0  0  -0.081055  0  4.046956  0  0  -0.082447  0  4.069118  0  -0.099771  0  -0.091642  -0.07982  0  4.031582  0
C  C81  1  0.36022838  0.25889264  0.42607262  1  0  -0.066935  0  3.795693  0  0  -0.081179  0  4.046951  0  0  -0.082572  0  4.069111  0  -0.099776  0  -0.091714  -0.079945  0  4.03158  0
C  C82  1  0.86022745  0.24110841  0.57393066  1  0  -0.06676  0  3.795636  0  0  -0.08098  0  4.04686  0  0  -0.082372  0  4.069022  0  -0.099657  0  -0.091662  -0.079733  0  4.031488  0
C  C83  1  0.63977870  0.75889146  0.07393066  1  0  -0.066785  0  3.795613  0  0  -0.081015  0  4.04685  0  0  -0.082408  0  4.069012  0  -0.099641  0  -0.091672  -0.079783  0  4.031477  0
C  C84  1  0.14530167  0.71424236  0.83873662  1  0  -0.139904  0  3.77367  0  0  -0.159708  0  4.027436  0  0  -0.163286  0  4.048057  0  0.010471  0  -0.099831  -0.157333  0  4.01359  0
C  C85  1  0.35469591  0.28575603  0.33873596  1  0  -0.139782  0  3.773483  0  0  -0.159581  0  4.027232  0  0  -0.163156  0  4.047851  0  0.0105  0  -0.09977  -0.157208  0  4.013387  0
C  C86  1  0.85470094  0.21424279  0.66126601  1  0  -0.139828  0  3.773609  0  0  -0.159638  0  4.027375  0  0  -0.163214  0  4.047996  0  0.010441  0  -0.099714  -0.157261  0  4.01352  0
C  C87  1  0.64529924  0.78575708  0.16126601  1  0  -0.139848  0  3.77357  0  0  -0.159649  0  4.027346  0  0  -0.163227  0  4.047965  0  0.010415  0  -0.099734  -0.157273  0  4.013498  0
C  C88  1  0.14446038  0.61265302  0.81272375  1  0  0.046875  0  3.734881  0  0  0.056942  0  3.960638  0  0  0.058436  0  3.983453  0  -0.07565  0  9.6e-05  0.055916  0  3.945495  0
C  C89  1  0.35553868  0.38734760  0.31272506  1  0  0.046836  0  3.734909  0  0  0.056909  0  3.960653  0  0  0.058405  0  3.983464  0  -0.075612  0  0.000103  0.055886  0  3.945508  0
C  C90  1  0.85553477  0.11265271  0.68727494  1  0  0.046933  0  3.734912  0  0  0.056979  0  3.960589  0  0  0.058475  0  3.9834  0  -0.07574  0  0.000126  0.055953  0  3.945445  0
C  C91  1  0.64446243  0.88734643  0.18727559  1  0  0.046913  0  3.734933  0  0  0.056934  0  3.960658  0  0  0.058428  0  3.983473  0  -0.075707  0  7.6e-05  0.055909  0  3.945513  0
C  C92  1  0.13731993  0.53816164  0.88042156  1  0  0.054276  0  3.715992  0  0  0.062785  0  3.941793  0  0  0.063202  0  3.964276  0  0.069813  0  0.00132  0.062453  0  3.926749  0
C  C93  1  0.36268063  0.46183824  0.38042091  1  0  0.054284  0  3.715988  0  0  0.062792  0  3.941809  0  0  0.06321  0  3.964293  0  0.069795  0  0.001313  0.06246  0  3.926765  0
C  C94  1  0.86268417  0.03816355  0.61957581  1  0  0.054124  0  3.716293  0  0  0.062795  0  3.941895  0  0  0.063212  0  3.96438  0  0.069865  0  0.001261  0.062464  0  3.926849  0
C  C95  1  0.63731899  0.96183558  0.11957581  1  0  0.054113  0  3.716317  0  0  0.0628  0  3.94191  0  0  0.063217  0  3.964394  0  0.069798  0  0.00129  0.062468  0  3.926866  0
C  C96  1  0.14786131  0.65137924  0.64583886  1  0  0.672469  0  3.88637  0  0  0.617918  0  4.185494  0  0  0.654459  0  4.17569  0  1.577368  0  0.211576  0.593004  0  4.191449  0
C  C97  1  0.35213626  0.34861989  0.14584083  1  0  0.672619  0  3.886037  0  0  0.617995  0  4.185301  0  0  0.654539  0  4.17549  0  1.577343  0  0.211601  0.59308  0  4.191255  0
C  C98  1  0.85213533  0.15137819  0.85415917  1  0  0.67258  0  3.886015  0  0  0.617982  0  4.185228  0  0  0.654525  0  4.175418  0  1.577312  0  0.211585  0.593067  0  4.191186  0
C  C99  1  0.64786038  0.84862095  0.35416114  1  0  0.672437  0  3.88643  0  0  0.617885  0  4.185563  0  0  0.654425  0  4.17576  0  1.577306  0  0.211545  0.59297  0  4.191517  0
C  C100  1  0.14163075  0.35397194  0.92183400  1  0  0.66585  0  3.890859  0  0  0.611346  0  4.184359  0  0  0.646991  0  4.176828  0  1.538308  0  0.20499  0.587028  0  4.188604  0
C  C101  1  0.35836981  0.64602942  0.42183334  1  0  0.665938  0  3.890798  0  0  0.61143  0  4.184313  0  0  0.647079  0  4.176779  0  1.538948  0  0.205013  0.587108  0  4.188567  0
C  C102  1  0.85837186  0.85397076  0.57816469  1  0  0.665836  0  3.890839  0  0  0.611393  0  4.18427  0  0  0.647045  0  4.176729  0  1.538429  0  0.205015  0.587071  0  4.188523  0
C  C103  1  0.64162982  0.14602689  0.07816666  1  0  0.665914  0  3.890747  0  0  0.611441  0  4.184226  0  0  0.647097  0  4.176677  0  1.538528  0  0.205058  0.587117  0  4.18848  0
C  C104  1  0.87093590  0.54030988  0.31667280  1  0  0.387949  0  3.817656  0  0  0.308607  0  4.113449  0  0  0.336589  0  4.117264  0  1.392659  0  0.169686  0.289829  0  4.110375  0
C  C105  1  0.62907025  0.45969223  0.81664916  1  0  0.387816  0  3.816628  0  0  0.308493  0  4.112399  0  0  0.336482  0  4.116218  0  1.393256  0  0.169854  0.289711  0  4.109323  0
C  C106  1  0.12906671  0.04030882  0.18334756  1  0  0.387998  0  3.816728  0  0  0.308667  0  4.112509  0  0  0.336656  0  4.116324  0  1.393129  0  0.169876  0.289886  0  4.109434  0
C  C107  1  0.37092937  0.95969179  0.68332852  1  0  0.387908  0  3.817705  0  0  0.308552  0  4.1135  0  0  0.336535  0  4.117314  0  1.392856  0  0.169649  0.289776  0  4.110424  0
C  C108  1  0.87097916  0.36016502  0.30509882  1  0  -0.170479  0  3.628919  0  0  -0.271452  0  3.873146  0  0  -0.267314  0  3.882765  0  0.250582  0  -0.138841  -0.27394  0  3.866829  0
C  C109  1  0.62901954  0.63983709  0.80509554  1  0  -0.170482  0  3.628831  0  0  -0.271438  0  3.87305  0  0  -0.267299  0  3.882667  0  0.250123  0  -0.138793  -0.273926  0  3.866736  0
C  C110  1  0.12902047  0.86016458  0.19490446  1  0  -0.170657  0  3.628887  0  0  -0.271612  0  3.873094  0  0  -0.267474  0  3.882711  0  0.250167  0  -0.138829  -0.274101  0  3.86678  0
C  C111  1  0.37098009  0.13983529  0.69490118  1  0  -0.170574  0  3.628892  0  0  -0.271565  0  3.873128  0  0  -0.267426  0  3.882748  0  0.250597  0  -0.13888  -0.274053  0  3.866813  0
C  C112  1  0.86109111  0.46695349  0.17135203  1  0  -0.179989  0  3.634404  0  0  -0.281607  0  3.881788  0  0  -0.278599  0  3.893104  0  0.328696  0  -0.138403  -0.283314  0  3.874214  0
C  C113  1  0.63891057  0.53304713  0.67134874  1  0  -0.179866  0  3.63399  0  0  -0.281394  0  3.881351  0  0  -0.278383  0  3.892651  0  0.328815  0  -0.138301  -0.283099  0  3.873778  0
C  C114  1  0.13891001  0.96695380  0.32865126  1  0  -0.179929  0  3.634036  0  0  -0.281451  0  3.881411  0  0  -0.278437  0  3.892709  0  0.328727  0  -0.138348  -0.283156  0  3.873838  0
C  C115  1  0.36109353  0.03304682  0.82864797  1  0  -0.180091  0  3.634469  0  0  -0.281714  0  3.881876  0  0  -0.278702  0  3.893184  0  0.328738  0  -0.138439  -0.283422  0  3.874305  0
N  N116  1  0.86982165  0.45915034  0.26666820  1  0  -0.08201  0  3.510984  0  0  0.024188  0  3.741185  0  0  0.002756  0  3.769516  0  -1.226526  0  -0.277299  0.038386  0  3.721935  0
N  N117  1  0.63017704  0.54084953  0.76666951  1  0  -0.081816  0  3.511289  0  0  0.024344  0  3.741483  0  0  0.002917  0  3.769811  0  -1.227135  0  -0.277308  0.038537  0  3.722238  0
N  N118  1  0.13017798  0.95915065  0.23333114  1  0  -0.081771  0  3.51115  0  0  0.024391  0  3.741329  0  0  0.002963  0  3.769658  0  -1.226975  0  -0.277276  0.038585  0  3.722084  0
N  N119  1  0.36982258  0.04084923  0.73333180  1  0  -0.081881  0  3.511069  0  0  0.024324  0  3.741259  0  0  0.002891  0  3.769593  0  -1.226594  0  -0.277242  0.03852  0  3.72201  0
O  O120  1  0.05501299  0.62219984  0.57798280  1  0  -0.659936  0  2.061717  0  0  -0.594461  0  2.317408  0  0  -0.623495  0  2.305117  0  -1.182684  0  -0.325526  -0.573957  0  2.325178  0
O  O121  1  0.44498756  0.37780078  0.07798148  1  0  -0.660052  0  2.06139  0  0  -0.59456  0  2.317112  0  0  -0.623591  0  2.304818  0  -1.182623  0  -0.325577  -0.574062  0  2.324894  0
O  O122  1  0.94498663  0.12219879  0.92201852  1  0  -0.660027  0  2.061387  0  0  -0.594561  0  2.317124  0  0  -0.623592  0  2.304832  0  -1.182633  0  -0.325584  -0.574053  0  2.324886  0
O  O123  1  0.55501057  0.87780034  0.42201655  1  0  -0.659892  0  2.061702  0  0  -0.594429  0  2.317394  0  0  -0.623461  0  2.305103  0  -1.182648  0  -0.325525  -0.573931  0  2.325173  0
O  O124  1  0.25024118  0.73102075  0.65318077  1  0  -0.657944  0  2.027743  0  0  -0.59019  0  2.284654  0  0  -0.620359  0  2.272584  0  -1.166951  0  -0.323869  -0.568915  0  2.292265  0
O  O125  1  0.24975341  0.26897912  0.15318143  1  0  -0.657936  0  2.027676  0  0  -0.590221  0  2.284702  0  0  -0.620388  0  2.272627  0  -1.166901  0  -0.323878  -0.568944  0  2.292316  0
O  O126  1  0.74975397  0.23101970  0.84681988  1  0  -0.657944  0  2.027579  0  0  -0.590222  0  2.284566  0  0  -0.62039  0  2.27249  0  -1.166834  0  -0.323885  -0.568948  0  2.29218  0
O  O127  1  0.75024174  0.76897943  0.34682054  1  0  -0.657957  0  2.027814  0  0  -0.590195  0  2.284726  0  0  -0.620368  0  2.272656  0  -1.166892  0  -0.323844  -0.568916  0  2.292334  0
O  O128  1  0.27178934  0.28522528  0.91278876  1  0  -0.665295  0  1.999871  0  0  -0.597566  0  2.250703  0  0  -0.629072  0  2.240685  0  -1.147946  0  -0.322876  -0.57519  0  2.256702  0
O  O129  1  0.22821271  0.71477534  0.41278810  1  0  -0.665363  0  1.999873  0  0  -0.597628  0  2.250705  0  0  -0.629138  0  2.240685  0  -1.148199  0  -0.322889  -0.575251  0  2.256708  0
O  O130  1  0.72821327  0.78522559  0.58720993  1  0  -0.665322  0  1.999913  0  0  -0.597594  0  2.250712  0  0  -0.629105  0  2.24069  0  -1.14802  0  -0.322875  -0.575217  0  2.256716  0
O  O131  1  0.77178691  0.21477503  0.08721059  1  0  -0.665385  0  1.999804  0  0  -0.597655  0  2.250628  0  0  -0.629164  0  2.240602  0  -1.148136  0  -0.322914  -0.575279  0  2.256632  0
O  O132  1  0.01030571  0.35181034  0.98236785  1  0  -0.670344  0  2.037251  0  0  -0.602886  0  2.290815  0  0  -0.633481  0  2.279681  0  -1.147351  0  -0.319153  -0.58116  0  2.297659  0
O  O133  1  0.48968739  0.64819028  0.48236654  1  0  -0.6704  0  2.037237  0  0  -0.602907  0  2.290759  0  0  -0.633504  0  2.27962  0  -1.147759  0  -0.319176  -0.581181  0  2.297609  0
O  O134  1  0.98969243  0.85181213  0.51763149  1  0  -0.670389  0  2.037265  0  0  -0.602933  0  2.290775  0  0  -0.633531  0  2.279636  0  -1.147413  0  -0.319207  -0.581207  0  2.297624  0
O  O135  1  0.51030776  0.14818849  0.01763281  1  0  -0.670357  0  2.037259  0  0  -0.602914  0  2.290833  0  0  -0.633512  0  2.279691  0  -1.147361  0  -0.319192  -0.581188  0  2.297682  0
O  O136  1  0.87223064  0.53956980  0.39937422  1  0  -0.5407  0  2.06333  0  0  -0.479217  0  2.322782  0  0  -0.506733  0  2.316162  0  -1.128133  0  -0.310225  -0.460045  0  2.326788  0
O  O137  1  0.62776805  0.46043008  0.89938604  1  0  -0.541083  0  2.061534  0  0  -0.479614  0  2.320948  0  0  -0.507147  0  2.314333  0  -1.127738  0  -0.31054  -0.460428  0  2.324954  0
O  O138  1  0.12777197  0.03957023  0.10061593  1  0  -0.541165  0  2.06181  0  0  -0.479722  0  2.321281  0  0  -0.507252  0  2.314661  0  -1.127776  0  -0.31055  -0.460539  0  2.325289  0
O  O139  1  0.37223008  0.96043039  0.60062447  1  0  -0.540744  0  2.063233  0  0  -0.479274  0  2.322706  0  0  -0.506788  0  2.316085  0  -1.128116  0  -0.310254  -0.460101  0  2.326712  0
