# generated using pymatgen
data_Dy2H15C12(NO4)3
_symmetry_space_group_name_H-M   'P 1'
_cell_length_a   11.63284706
_cell_length_b   18.89891197
_cell_length_c   18.90413047
_cell_angle_alpha   84.57241005
_cell_angle_beta   72.06223251
_cell_angle_gamma   72.08149287
_symmetry_Int_Tables_number   1
_chemical_formula_structural   Dy2H15C12(NO4)3
_chemical_formula_sum   'Dy16 H120 C96 N24 O96'
_cell_volume   3762.23028651
_cell_formula_units_Z   8
loop_
 _symmetry_equiv_pos_site_id
 _symmetry_equiv_pos_as_xyz
  1  'x, y, z'
loop_
 _atom_site_type_symbol
 _atom_site_label
 _atom_site_symmetry_multiplicity
 _atom_site_fract_x
 _atom_site_fract_y
 _atom_site_fract_z
 _atom_site_occupancy
 _atom_site_pbe_bader_charge
 _atom_site_pbe_bader_spin_density
 _atom_site_pbe_cm5_charge
 _atom_site_pbe_ddec_charge
 _atom_site_pbe_ddec_spin_density
 _atom_site_pbe_ddec_sum_bond_order
 _atom_site_pbe_magmom
Dy  Dy0  1  0.51110516  0.79780107  0.36550514  1  2.162922  0  1.560825  2.042019  0  2.167667  0
Dy  Dy1  1  0.17457410  0.70215524  0.13450988  1  2.161227  0  1.561109  2.040349  0  2.171467  0
Dy  Dy2  1  0.87662403  0.63441480  0.29786135  1  2.163757  0  1.561124  2.041658  0  2.170512  0
Dy  Dy3  1  0.30892713  0.86559430  0.20218870  1  2.163201  0  1.560873  2.041095  0  2.16934  0
Dy  Dy4  1  0.48889943  0.20219803  0.63449581  1  2.162889  0  1.560806  2.041891  0  2.167826  0
Dy  Dy5  1  0.82541863  0.29784553  0.86549304  1  2.161356  0  1.561083  2.040304  0  2.171475  0
Dy  Dy6  1  0.12337884  0.36558430  0.70213592  1  2.163836  0  1.561168  2.041658  0  2.170651  0
Dy  Dy7  1  0.69107195  0.13441036  0.79781226  1  2.163174  0  1.560896  2.041291  0  2.169029  0
Dy  Dy8  1  0.57148688  0.97741960  0.39446572  1  2.12542  0  1.506837  1.948168  0  2.226883  0
Dy  Dy9  1  0.44344315  0.52259419  0.10550459  1  2.125011  0  1.506963  1.948064  0  2.226227  0
Dy  Dy10  1  0.96595563  0.60549464  0.47739659  1  2.124673  0  1.505972  1.948234  0  2.226723  0
Dy  Dy11  1  0.54903013  0.89445626  0.02251687  1  2.123333  0  1.507328  1.949377  0  2.223748  0
Dy  Dy12  1  0.42851602  0.02258117  0.60552979  1  2.125426  0  1.506847  1.948098  0  2.226971  0
Dy  Dy13  1  0.55655419  0.47740825  0.89449831  1  2.125099  0  1.506959  1.94796  0  2.226307  0
Dy  Dy14  1  0.03404320  0.39450334  0.52260613  1  2.124701  0  1.505947  1.948151  0  2.226825  0
Dy  Dy15  1  0.45097233  0.10554006  0.97748128  1  2.123321  0  1.507319  1.94925  0  2.223995  0
H  H16  1  0.36320909  0.77637331  0.56238490  1  0.094653  0  0.131599  0.138377  0  0.949216  0
H  H17  1  0.20207058  0.72360708  0.93752634  1  0.087397  0  0.131727  0.138935  0  0.946694  0
H  H18  1  0.92553735  0.43745732  0.27647420  1  0.096671  0  0.131347  0.137783  0  0.948009  0
H  H19  1  0.13937423  0.06253776  0.22369194  1  0.103327  0  0.131294  0.137948  0  0.949158  0
H  H20  1  0.63679986  0.22362356  0.43761552  1  0.094781  0  0.131576  0.138314  0  0.949257  0
H  H21  1  0.79793208  0.27639202  0.06247743  1  0.087414  0  0.131764  0.138998  0  0.946704  0
H  H22  1  0.07445803  0.56254011  0.72353222  1  0.096563  0  0.131351  0.13778  0  0.948088  0
H  H23  1  0.86062309  0.93746245  0.77630938  1  0.10334  0  0.131308  0.137974  0  0.949098  0
H  H24  1  0.21569720  0.84700610  0.57948686  1  0.083247  0  0.118054  0.124358  0  0.948749  0
H  H25  1  0.14247194  0.65281259  0.92060849  1  0.089315  0  0.118223  0.125467  0  0.94739  0
H  H26  1  0.79518767  0.42037956  0.34720106  1  0.085989  0  0.118617  0.125074  0  0.946708  0
H  H27  1  0.06257106  0.07950552  0.15303533  1  0.075247  0  0.118399  0.125059  0  0.947258  0
H  H28  1  0.78431050  0.15299078  0.42051391  1  0.083232  0  0.118043  0.124355  0  0.948795  0
H  H29  1  0.85753498  0.34718651  0.07939105  1  0.088423  0  0.118219  0.125538  0  0.947341  0
H  H30  1  0.20481047  0.57961953  0.65280359  1  0.084627  0  0.118592  0.125092  0  0.946656  0
H  H31  1  0.93742666  0.92049747  0.84696511  1  0.075263  0  0.118421  0.125081  0  0.947215  0
H  H32  1  0.18973149  0.91480805  0.45551864  1  0.107146  0  0.130629  0.142371  0  0.950973  0
H  H33  1  0.06036875  0.58505599  0.04457330  1  0.140757  0  0.130466  0.142982  0  0.951272  0
H  H34  1  0.64504779  0.54453773  0.41498974  1  0.105024  0  0.130294  0.141863  0  0.951201  0
H  H35  1  0.10504342  0.95545196  0.08514990  1  0.110985  0  0.130429  0.142205  0  0.950839  0
H  H36  1  0.81027326  0.08518938  0.54448477  1  0.107008  0  0.130603  0.142362  0  0.950913  0
H  H37  1  0.93962970  0.41494200  0.95542083  1  0.140714  0  0.130487  0.143006  0  0.951264  0
H  H38  1  0.35495288  0.45546415  0.58501192  1  0.105062  0  0.130304  0.141888  0  0.951215  0
H  H39  1  0.89496020  0.04454603  0.91484807  1  0.110995  0  0.130442  0.142226  0  0.950809  0
H  H40  1  0.10524617  0.84738734  0.47519187  1  0.097274  0  0.114401  0.121335  0  1.004093  0
H  H41  1  0.92814078  0.65250254  0.02496519  1  0.117686  0  0.113973  0.120999  0  1.001965  0
H  H42  1  0.58030869  0.52481439  0.34756754  1  0.114785  0  0.114149  0.121386  0  1.002939  0
H  H43  1  0.95301574  0.97517998  0.15244398  1  0.102435  0  0.114046  0.121131  0  1.00285  0
H  H44  1  0.89476097  0.15261065  0.52480890  1  0.097218  0  0.114372  0.121316  0  1.004098  0
H  H45  1  0.07185381  0.34749878  0.97502841  1  0.117875  0  0.114  0.120962  0  1.002012  0
H  H46  1  0.41969254  0.47518638  0.65243412  1  0.114749  0  0.114125  0.12136  0  1.002963  0
H  H47  1  0.04698615  0.02482134  0.84755136  1  0.102277  0  0.114075  0.121123  0  1.002867  0
H  H48  1  0.45171550  0.06220200  0.21820678  1  0.042397  0  0.119888  0.116738  0  0.964528  0
H  H49  1  0.23188062  0.43775547  0.28168348  1  0.029939  0  0.120206  0.117053  0  0.963081  0
H  H50  1  0.66892001  0.78179871  0.56237532  1  0.030439  0  0.119469  0.116235  0  0.963191  0
H  H51  1  0.51404783  0.71803780  0.93794370  1  0.065928  0  0.120023  0.11707  0  0.962879  0
H  H52  1  0.54827978  0.93779765  0.78179595  1  0.042388  0  0.119893  0.116757  0  0.964649  0
H  H53  1  0.76811830  0.56224474  0.71831626  1  0.029927  0  0.120201  0.117077  0  0.963047  0
H  H54  1  0.33107945  0.21820094  0.43762775  1  0.030315  0  0.119465  0.116199  0  0.963276  0
H  H55  1  0.48594949  0.28195963  0.06205991  1  0.065972  0  0.120028  0.116999  0  0.962938  0
H  H56  1  0.30084499  0.09524448  0.28406176  1  0.078035  0  0.117141  0.11709  0  0.971497  0
H  H57  1  0.18005849  0.40482446  0.21568161  1  0.098113  0  0.117748  0.117998  0  0.970768  0
H  H58  1  0.58464152  0.71552782  0.59516529  1  0.060064  0  0.117196  0.116649  0  0.970357  0
H  H59  1  0.39633064  0.78386905  0.90482462  1  0.073272  0  0.117798  0.117797  0  0.971098  0
H  H60  1  0.69914904  0.90475406  0.71594186  1  0.078091  0  0.117113  0.11715  0  0.971511  0
H  H61  1  0.81994250  0.59517520  0.78431724  1  0.098119  0  0.117739  0.117971  0  0.970813  0
H  H62  1  0.41535784  0.28447016  0.40483691  1  0.060084  0  0.117209  0.116646  0  0.970427  0
H  H63  1  0.60366534  0.21612560  0.09517900  1  0.073535  0  0.117827  0.117807  0  0.971078  0
H  H64  1  0.56470581  0.15979373  0.31734283  1  0.065339  0  0.115673  0.116813  0  0.986139  0
H  H65  1  0.54166659  0.34018109  0.18282949  1  0.065514  0  0.115916  0.117264  0  0.986434  0
H  H66  1  0.88164223  0.68309920  0.65968872  1  0.077393  0  0.115618  0.116792  0  0.986082  0
H  H67  1  0.72482287  0.81699152  0.84020030  1  0.09567  0  0.1157  0.117044  0  0.985801  0
H  H68  1  0.43529146  0.84020870  0.68265743  1  0.065123  0  0.115673  0.116899  0  0.986121  0
H  H69  1  0.45833743  0.65982245  0.81717251  1  0.06537  0  0.115912  0.117299  0  0.986387  0
H  H70  1  0.11835917  0.31689656  0.34031436  1  0.077266  0  0.115634  0.116795  0  0.986059  0
H  H71  1  0.27516909  0.18301147  0.15979419  1  0.095579  0  0.115723  0.117105  0  0.985773  0
H  H72  1  0.52279108  0.15858145  0.23484525  1  0.018682  0  0.095606  0.086392  0  1.000358  0
H  H73  1  0.41569294  0.34155664  0.26522897  1  0.026286  0  0.095891  0.086422  0  0.999812  0
H  H74  1  0.75712618  0.76553705  0.65827373  1  0.018477  0  0.095758  0.086347  0  1.000628  0
H  H75  1  0.68134294  0.73457291  0.84150599  1  0.017399  0  0.095916  0.086404  0  1.000684  0
H  H76  1  0.47719603  0.84142432  0.76515627  1  0.018646  0  0.095603  0.086449  0  1.000277  0
H  H77  1  0.58430876  0.65844690  0.73477444  1  0.026306  0  0.095891  0.086492  0  0.999825  0
H  H78  1  0.24287527  0.23446261  0.34172916  1  0.01836  0  0.095761  0.086316  0  1.000731  0
H  H79  1  0.31864530  0.26542730  0.15848729  1  0.017579  0  0.09591  0.086433  0  1.000692  0
H  H80  1  0.97023273  0.84628626  0.32121029  1  0.11622  0  0.117178  0.129964  0  0.989054  0
H  H81  1  0.63757437  0.65375240  0.17899199  1  0.100144  0  0.116417  0.127783  0  0.989964  0
H  H82  1  0.29132891  0.67896090  0.34646302  1  0.12852  0  0.116842  0.128074  0  0.990662  0
H  H83  1  0.81652980  0.82100827  0.15353880  1  0.11732  0  0.116408  0.127873  0  0.988976  0
H  H84  1  0.02977349  0.15372340  0.67878379  1  0.11642  0  0.117193  0.130002  0  0.988975  0
H  H85  1  0.36242575  0.34625337  0.82100738  1  0.100354  0  0.116387  0.127715  0  0.989973  0
H  H86  1  0.70866989  0.32103820  0.65353918  1  0.128474  0  0.116842  0.12804  0  0.990701  0
H  H87  1  0.18346993  0.17899139  0.84646041  1  0.117308  0  0.116407  0.127877  0  0.988944  0
H  H88  1  0.87391641  0.90452784  0.26791542  1  0.090656  0  0.126107  0.131497  0  0.989441  0
H  H89  1  0.54616668  0.59545652  0.23218498  1  0.102464  0  0.125845  0.13092  0  0.989018  0
H  H90  1  0.14152487  0.73208164  0.40475474  1  0.114422  0  0.126159  0.131008  0  0.990185  0
H  H91  1  0.77817508  0.76793721  0.09517223  1  0.113783  0  0.126171  0.131409  0  0.989029  0
H  H92  1  0.12608136  0.09547960  0.73208097  1  0.090734  0  0.126118  0.131593  0  0.989371  0
H  H93  1  0.45382407  0.40455314  0.76781460  1  0.102857  0  0.125893  0.130986  0  0.989072  0
H  H94  1  0.85847363  0.26791690  0.59524535  1  0.114406  0  0.126169  0.130999  0  0.99013  0
H  H95  1  0.22182495  0.23206078  0.90482750  1  0.113829  0  0.126186  0.131417  0  0.989076  0
H  H96  1  0.92406704  0.92575937  0.45122728  1  0.090528  0  0.110714  0.110971  0  0.981793  0
H  H97  1  0.80126827  0.57425942  0.04899996  1  0.101179  0  0.110339  0.110882  0  0.981275  0
H  H98  1  0.37549358  0.54890515  0.42579244  1  0.08287  0  0.110346  0.110493  0  0.982401  0
H  H99  1  0.84976887  0.95122657  0.07442544  1  0.067275  0  0.110611  0.111139  0  0.981059  0
H  H100  1  0.07593125  0.07423917  0.54877211  1  0.090463  0  0.110711  0.110975  0  0.981809  0
H  H101  1  0.19872768  0.42574246  0.95100189  1  0.10114  0  0.110316  0.110833  0  0.981248  0
H  H102  1  0.62450111  0.45109395  0.57421205  1  0.082858  0  0.110367  0.11052  0  0.98233  0
H  H103  1  0.15022682  0.04877253  0.92557536  1  0.067132  0  0.110633  0.111136  0  0.981084  0
H  H104  1  0.86079276  0.85130126  0.45618217  1  0.073662  0  0.12302  0.1334  0  0.965594  0
H  H105  1  0.66846685  0.64862846  0.04383028  1  0.078942  0  0.122833  0.133357  0  0.964643  0
H  H106  1  0.31722196  0.54376425  0.35139654  1  0.076074  0  0.122896  0.133425  0  0.964682  0
H  H107  1  0.71177605  0.95627840  0.14874900  1  0.078979  0  0.122691  0.133256  0  0.96509  0
H  H108  1  0.13921080  0.14869729  0.54380931  1  0.073668  0  0.123019  0.133427  0  0.965624  0
H  H109  1  0.33153480  0.35137453  0.95616716  1  0.079043  0  0.12286  0.133361  0  0.964654  0
H  H110  1  0.68277876  0.45623540  0.64860618  1  0.076005  0  0.122916  0.133452  0  0.964708  0
H  H111  1  0.28822055  0.04371847  0.85125110  1  0.078975  0  0.122674  0.133186  0  0.965097  0
H  H112  1  0.29744523  0.75285780  0.46972810  1  0.435697  0  0.314005  0.265168  0  0.934183  0
H  H113  1  0.02028810  0.74703026  0.03039188  1  0.407374  0  0.314519  0.266721  0  0.932233  0
H  H114  1  0.76701259  0.53011130  0.25307340  1  0.437044  0  0.313867  0.266004  0  0.93271  0
H  H115  1  0.05030682  0.96969663  0.24710802  1  0.431908  0  0.314529  0.266791  0  0.932385  0
H  H116  1  0.70255946  0.24713963  0.53027267  1  0.435669  0  0.313952  0.265058  0  0.934211  0
H  H117  1  0.97971039  0.25296828  0.96960821  1  0.407368  0  0.314525  0.266684  0  0.932212  0
H  H118  1  0.23298933  0.46988780  0.74693019  1  0.43695  0  0.313838  0.266061  0  0.932627  0
H  H119  1  0.94968734  0.03030581  0.75289085  1  0.431956  0  0.314546  0.266816  0  0.932369  0
H  H120  1  0.38930386  0.12049829  0.36355075  1  0.394771  0  0.29968  0.239392  0  0.982797  0
H  H121  1  0.37354740  0.37951863  0.13636600  1  0.417315  0  0.299388  0.239279  0  0.982584  0
H  H122  1  0.75286405  0.63652978  0.62048909  1  0.423191  0  0.299324  0.237736  0  0.983969  0
H  H123  1  0.51012277  0.86337063  0.87953866  1  0.404918  0  0.299828  0.240127  0  0.980765  0
H  H124  1  0.61069313  0.87950192  0.63645181  1  0.394829  0  0.299653  0.239338  0  0.982831  0
H  H125  1  0.62645728  0.62048214  0.86363582  1  0.417255  0  0.299366  0.239198  0  0.982726  0
H  H126  1  0.24713435  0.36346987  0.37951504  1  0.423269  0  0.299287  0.237721  0  0.983919  0
H  H127  1  0.48986691  0.13662681  0.12046445  1  0.40489  0  0.299846  0.240079  0  0.98083  0
H  H128  1  0.82944258  0.98236247  0.36040730  1  0.424858  0  0.310317  0.256661  0  0.940943  0
H  H129  1  0.67223450  0.51766141  0.13975876  1  0.431872  0  0.310529  0.25691  0  0.940759  0
H  H130  1  0.18970062  0.63958333  0.48244039  1  0.426205  0  0.31015  0.256533  0  0.941111  0
H  H131  1  0.81171916  0.86052565  0.01758810  1  0.428775  0  0.310149  0.255734  0  0.941912  0
H  H132  1  0.17056055  0.01764275  0.63959206  1  0.425018  0  0.310333  0.256745  0  0.940776  0
H  H133  1  0.32775638  0.48234491  0.86024503  1  0.431833  0  0.310504  0.256851  0  0.940819  0
H  H134  1  0.81029657  0.36041688  0.51756286  1  0.426246  0  0.310166  0.25646  0  0.941175  0
H  H135  1  0.18828259  0.13947289  0.98241145  1  0.428797  0  0.31015  0.255725  0  0.941931  0
C  C136  1  0.38161748  0.88327637  0.52698576  1  1.580393  0  0.241285  0.679818  0  4.086474  0
C  C137  1  0.29228042  0.61676727  0.97296325  1  1.571597  0  0.240367  0.677575  0  4.088123  0
C  C138  1  0.90877357  0.47291189  0.38329224  1  1.582723  0  0.241091  0.67861  0  4.089922  0
C  C139  1  0.26484303  0.02714310  0.11677869  1  1.588261  0  0.241673  0.679474  0  4.086942  0
C  C140  1  0.61838760  0.11672162  0.47301256  1  1.580214  0  0.241308  0.679904  0  4.086352  0
C  C141  1  0.70771810  0.38323573  0.02703999  1  1.571648  0  0.240419  0.677573  0  4.088101  0
C  C142  1  0.09123294  0.52708443  0.61670818  1  1.582666  0  0.241147  0.678715  0  4.089544  0
C  C143  1  0.73515453  0.97285878  0.88322158  1  1.588108  0  0.241646  0.679423  0  4.087158  0
C  C144  1  0.30925929  0.82611494  0.53862154  1  0.271552  0  -0.061152  -0.186397  0  3.916729  0
C  C145  1  0.17428174  0.67382539  0.96138406  1  0.289885  0  -0.061325  -0.188538  0  3.913345  0
C  C146  1  0.84789917  0.46123568  0.32625058  1  0.263612  0  -0.061335  -0.186043  0  3.9127  0
C  C147  1  0.13531992  0.03872879  0.17393429  1  0.268815  0  -0.06134  -0.187461  0  3.914353  0
C  C148  1  0.69074848  0.17388138  0.46137852  1  0.271596  0  -0.061119  -0.186327  0  3.916668  0
C  C149  1  0.82572186  0.32617316  0.03861724  1  0.290839  0  -0.061381  -0.188785  0  3.913392  0
C  C150  1  0.15209879  0.53876230  0.67375391  1  0.26517  0  -0.061299  -0.186091  0  3.912838  0
C  C151  1  0.86467710  0.96127309  0.82606650  1  0.268867  0  -0.061349  -0.187408  0  3.914226  0
C  C152  1  0.19644955  0.85712354  0.44441828  1  0.256353  0  -0.063355  -0.187035  0  3.880244  0
C  C153  1  0.99832895  0.64274241  0.05569561  1  0.200305  0  -0.065374  -0.191803  0  3.88055  0
C  C154  1  0.64080022  0.55555120  0.35729290  1  0.233252  0  -0.063742  -0.187235  0  3.880958  0
C  C155  1  0.05391592  0.94439264  0.14279164  1  0.246728  0  -0.06407  -0.18882  0  3.879341  0
C  C156  1  0.80355498  0.14287500  0.55558391  1  0.256766  0  -0.063306  -0.187121  0  3.880259  0
C  C157  1  0.00166804  0.35725558  0.94429817  1  0.200495  0  -0.065404  -0.191798  0  3.880895  0
C  C158  1  0.35920154  0.44444957  0.64270823  1  0.233229  0  -0.063743  -0.187251  0  3.880973  0
C  C159  1  0.94608459  0.05560757  0.85720651  1  0.24693  0  -0.064059  -0.188694  0  3.879119  0
C  C160  1  0.22235888  0.85334316  0.36121250  1  1.559443  0  0.214991  0.640349  0  4.150113  0
C  C161  1  0.93712851  0.64658275  0.13888982  1  1.540698  0  0.214465  0.639548  0  4.151198  0
C  C162  1  0.58353976  0.63875574  0.35335170  1  1.564034  0  0.213968  0.637324  0  4.152812  0
C  C163  1  0.07588937  0.86119410  0.14662812  1  1.543365  0  0.215185  0.641282  0  4.147287  0
C  C164  1  0.77764611  0.14665872  0.63878757  1  1.559947  0  0.214979  0.640413  0  4.15026  0
C  C165  1  0.06286883  0.35341134  0.86110555  1  1.540596  0  0.214488  0.639543  0  4.151281  0
C  C166  1  0.41646421  0.36124447  0.64664662  1  1.563989  0  0.214058  0.637363  0  4.152611  0
C  C167  1  0.92411113  0.13880666  0.85337337  1  1.543479  0  0.215174  0.641244  0  4.147279  0
C  C168  1  0.39454441  0.97993511  0.28989785  1  1.601328  0  0.244629  0.704407  0  4.081268  0
C  C169  1  0.16430543  0.52010914  0.21005366  1  1.614667  0  0.246106  0.706862  0  4.077789  0
C  C170  1  0.68424711  0.71003195  0.47990109  1  1.614028  0  0.244231  0.70387  0  4.082397  0
C  C171  1  0.37449209  0.78986935  0.02011676  1  1.608204  0  0.246079  0.707171  0  4.079828  0
C  C172  1  0.60545747  0.02006287  0.71010364  1  1.601466  0  0.244572  0.704436  0  4.081281  0
C  C173  1  0.83569543  0.47989051  0.78994713  1  1.614704  0  0.246101  0.706798  0  4.07792  0
C  C174  1  0.31575773  0.28996771  0.52009933  1  1.614217  0  0.244303  0.704026  0  4.082552  0
C  C175  1  0.62550357  0.21012808  0.97988580  1  1.607932  0  0.246081  0.70714  0  4.079605  0
C  C176  1  0.39831774  0.06002781  0.27734114  1  0.299959  0  -0.063694  -0.177833  0  3.915178  0
C  C177  1  0.23558745  0.43999746  0.22252624  1  0.280334  0  -0.063639  -0.177697  0  3.91303  0
C  C178  1  0.67521276  0.72258917  0.56001778  1  0.334126  0  -0.06245  -0.174248  0  3.909077  0
C  C179  1  0.45850963  0.77718834  0.94006786  1  0.298802  0  -0.06209  -0.175992  0  3.911414  0
C  C180  1  0.60167809  0.93997073  0.72266160  1  0.299855  0  -0.063616  -0.177879  0  3.915271  0
C  C181  1  0.76441167  0.56000275  0.77747420  1  0.280045  0  -0.063645  -0.177734  0  3.912996  0
C  C182  1  0.32478671  0.27740993  0.43998195  1  0.334408  0  -0.062433  -0.174161  0  3.909212  0
C  C183  1  0.54148642  0.22280909  0.05993611  1  0.298661  0  -0.062132  -0.175958  0  3.911557  0
C  C184  1  0.55193463  0.12355334  0.28012344  1  0.28189  0  -0.080466  -0.192337  0  3.953252  0
C  C185  1  0.45535108  0.37649258  0.21992802  1  0.267648  0  -0.08066  -0.192468  0  3.954632  0
C  C186  1  0.83164516  0.72016296  0.62337886  1  0.275966  0  -0.080098  -0.193076  0  3.955339  0
C  C187  1  0.67561336  0.77986873  0.87646781  1  0.253933  0  -0.081  -0.193331  0  3.953611  0
C  C188  1  0.44805942  0.87645076  0.71987561  1  0.281901  0  -0.080458  -0.192501  0  3.953393  0
C  C189  1  0.54465022  0.62351097  0.78007399  1  0.268126  0  -0.080698  -0.192613  0  3.954642  0
C  C190  1  0.16835639  0.27983503  0.37662385  1  0.276325  0  -0.080137  -0.193022  0  3.955406  0
C  C191  1  0.32438013  0.22013148  0.12352475  1  0.25442  0  -0.080965  -0.193338  0  3.953698  0
C  C192  1  0.68174449  0.06613211  0.24782280  1  1.599703  0  0.190295  0.606301  0  4.222865  0
C  C193  1  0.49541817  0.43390576  0.25225585  1  1.598754  0  0.189538  0.604118  0  4.226045  0
C  C194  1  0.92918257  0.75240350  0.56590768  1  1.605788  0  0.191279  0.6084  0  4.223177  0
C  C195  1  0.74797644  0.74752057  0.93385392  1  1.589796  0  0.191122  0.608257  0  4.220681  0
C  C196  1  0.31825508  0.93387199  0.75217166  1  1.599799  0  0.190235  0.606269  0  4.222753  0
C  C197  1  0.50458020  0.56610113  0.74774651  1  1.598496  0  0.189426  0.603905  0  4.226331  0
C  C198  1  0.07082025  0.24759448  0.43409468  1  1.605809  0  0.191291  0.608359  0  4.223161  0
C  C199  1  0.25203042  0.25247296  0.06613317  1  1.589373  0  0.191114  0.608099  0  4.22079  0
C  C200  1  0.79617337  0.82349594  0.32831746  1  1.595676  0  0.252405  0.710719  0  4.051597  0
C  C201  1  0.44797978  0.67648626  0.17173930  1  1.579344  0  0.253531  0.713663  0  4.050978  0
C  C202  1  0.12453314  0.67169813  0.32354205  1  1.583004  0  0.253272  0.711798  0  4.05152  0
C  C203  1  0.61955457  0.82830801  0.17639575  1  1.579504  0  0.252928  0.710274  0  4.056734  0
C  C204  1  0.20383765  0.17650706  0.67167697  1  1.595622  0  0.252418  0.710637  0  4.051293  0
C  C205  1  0.55201584  0.32352173  0.82826255  1  1.578804  0  0.25354  0.713575  0  4.050959  0
C  C206  1  0.87546572  0.32830153  0.67645892  1  1.583077  0  0.253281  0.711713  0  4.051591  0
C  C207  1  0.38044718  0.17169053  0.82360381  1  1.579637  0  0.252927  0.710251  0  4.056655  0
C  C208  1  0.87298118  0.87673302  0.32182131  1  0.254626  0  -0.069196  -0.199121  0  3.895293  0
C  C209  1  0.57145043  0.62327887  0.17829582  1  0.291376  0  -0.068483  -0.197047  0  3.896675  0
C  C210  1  0.19469725  0.67823240  0.37682632  1  0.224761  0  -0.069027  -0.196488  0  3.8932  0
C  C211  1  0.74960362  0.82176839  0.12313911  1  0.235151  0  -0.068942  -0.196726  0  3.894735  0
C  C212  1  0.12702593  0.12327275  0.67817383  1  0.254563  0  -0.069285  -0.199405  0  3.895454  0
C  C213  1  0.42854387  0.37672912  0.82170375  1  0.29086  0  -0.068565  -0.197039  0  3.896725  0
C  C214  1  0.80530063  0.32176670  0.62317500  1  0.2247  0  -0.06898  -0.196371  0  3.89307  0
C  C215  1  0.25039712  0.17823071  0.87686028  1  0.234995  0  -0.068976  -0.19674  0  3.894786  0
C  C216  1  0.83970778  0.91213985  0.44972609  1  0.259414  0  -0.069506  -0.174544  0  3.901052  0
C  C217  1  0.70183255  0.58780977  0.05041365  1  0.260208  0  -0.069791  -0.175425  0  3.900304  0
C  C218  1  0.28963021  0.55029600  0.41222302  1  0.270455  0  -0.069462  -0.174784  0  3.899165  0
C  C219  1  0.75176518  0.94977156  0.08792883  1  0.290917  0  -0.069194  -0.174297  0  3.900705  0
C  C220  1  0.16029091  0.08785925  0.55027084  1  0.259595  0  -0.069521  -0.174623  0  3.901171  0
C  C221  1  0.29816551  0.41219322  0.94958556  1  0.260042  0  -0.069835  -0.175411  0  3.900338  0
C  C222  1  0.71036678  0.44970422  0.58777953  1  0.27044  0  -0.069508  -0.174921  0  3.899179  0
C  C223  1  0.24823110  0.05022810  0.91207022  1  0.291304  0  -0.069133  -0.174081  0  3.900563  0
C  C224  1  0.72994653  0.94665036  0.51694448  1  1.54757  0  0.209919  0.617867  0  4.161228  0
C  C225  1  0.69407068  0.55312047  0.98322206  1  1.556648  0  0.209244  0.616509  0  4.16383  0
C  C226  1  0.24725504  0.48303797  0.44678852  1  1.55862  0  0.210743  0.620397  0  4.160761  0
C  C227  1  0.67677320  0.01701510  0.05334370  1  1.543757  0  0.208559  0.615527  0  4.163325  0
C  C228  1  0.27005026  0.05334429  0.48305475  1  1.547381  0  0.209874  0.617728  0  4.160792  0
C  C229  1  0.30592455  0.44688141  0.01677962  1  1.556688  0  0.209278  0.616573  0  4.163652  0
C  C230  1  0.75274366  0.51696057  0.55321228  1  1.55875  0  0.210773  0.620365  0  4.160862  0
C  C231  1  0.32322114  0.98298511  0.94665430  1  1.544291  0  0.208519  0.615516  0  4.16307  0
N  N232  1  0.30309203  0.80595941  0.46721875  1  -1.087241  0  -0.542306  -0.387053  0  3.544422  0
N  N233  1  0.07658912  0.69393911  0.03284584  1  -1.066681  0  -0.540864  -0.383931  0  3.541054  0
N  N234  1  0.77026790  0.53264534  0.30612707  1  -1.080867  0  -0.540969  -0.386877  0  3.544013  0
N  N235  1  0.10916213  0.96724814  0.19404255  1  -1.087671  0  -0.541458  -0.38595  0  3.542386  0
N  N236  1  0.69691292  0.19403858  0.53278150  1  -1.087435  0  -0.54222  -0.386816  0  3.544255  0
N  N237  1  0.92341052  0.30605887  0.96715250  1  -1.066893  0  -0.540902  -0.383806  0  3.541138  0
N  N238  1  0.22973330  0.46735376  0.69387635  1  -1.080848  0  -0.540935  -0.386936  0  3.544047  0
N  N239  1  0.89083450  0.03275374  0.80595685  1  -1.087769  0  -0.541549  -0.38618  0  3.542427  0
N  N240  1  0.45828890  0.08628964  0.32328316  1  -1.068059  0  -0.540729  -0.388751  0  3.577098  0
N  N241  1  0.36784355  0.41377172  0.17664580  1  -1.084208  0  -0.540516  -0.388663  0  3.579313  0
N  N242  1  0.78133638  0.67681637  0.58620993  1  -1.111287  0  -0.540551  -0.387422  0  3.578313  0
N  N243  1  0.54478910  0.82312458  0.91377679  1  -1.09902  0  -0.542821  -0.391892  0  3.578209  0
N  N244  1  0.54170795  0.91371112  0.67671746  1  -1.068219  0  -0.54068  -0.388662  0  3.577113  0
N  N245  1  0.63215659  0.58623016  0.82335639  1  -1.083848  0  -0.540423  -0.388438  0  3.579149  0
N  N246  1  0.21866344  0.32318218  0.41379244  1  -1.111579  0  -0.540537  -0.387487  0  3.578421  0
N  N247  1  0.45521003  0.17687229  0.08622260  1  -1.099435  0  -0.542862  -0.391792  0  3.578332  0
N  N248  1  0.80905251  0.93398971  0.37958304  1  -1.08308  0  -0.545813  -0.377515  0  3.567364  0
N  N249  1  0.62270151  0.56601508  0.12054655  1  -1.125848  0  -0.545085  -0.377201  0  3.567081  0
N  N250  1  0.18864437  0.62041872  0.43402683  1  -1.084675  0  -0.544772  -0.376855  0  3.566305  0
N  N251  1  0.74298509  0.87962725  0.06599801  1  -1.093976  0  -0.545614  -0.377064  0  3.569454  0
N  N252  1  0.19094932  0.06601439  0.62041457  1  -1.0833  0  -0.54584  -0.377542  0  3.567205  0
N  N253  1  0.37729264  0.43399069  0.87945337  1  -1.125504  0  -0.544977  -0.377076  0  3.567271  0
N  N254  1  0.81135262  0.37958149  0.56597572  1  -1.084533  0  -0.544851  -0.376752  0  3.566302  0
N  N255  1  0.25701373  0.12037130  0.93400085  1  -1.094394  0  -0.545603  -0.377071  0  3.569276  0
O  O256  1  0.45140198  0.88991097  0.46105839  1  -1.200641  0  -0.408936  -0.703176  0  2.447367  0
O  O257  1  0.30276683  0.61013556  0.03887035  1  -1.191913  0  -0.408096  -0.701851  0  2.450251  0
O  O258  1  0.91255193  0.53886402  0.38990367  1  -1.193681  0  -0.408701  -0.702933  0  2.449487  0
O  O259  1  0.34131614  0.96123808  0.11012683  1  -1.198987  0  -0.408721  -0.703685  0  2.446725  0
O  O260  1  0.54860512  0.11008591  0.53894028  1  -1.200527  0  -0.408921  -0.703165  0  2.447144  0
O  O261  1  0.69723134  0.38986521  0.96113255  1  -1.19178  0  -0.408084  -0.701793  0  2.450166  0
O  O262  1  0.08745180  0.46113175  0.61009799  1  -1.193824  0  -0.408723  -0.70301  0  2.449525  0
O  O263  1  0.65868482  0.03876324  0.88987483  1  -1.198915  0  -0.408737  -0.703743  0  2.446991  0
O  O264  1  0.36897575  0.91968087  0.58286232  1  -1.201088  0  -0.37248  -0.627442  0  2.302011  0
O  O265  1  0.37196424  0.58039398  0.91705396  1  -1.207227  0  -0.373208  -0.626809  0  2.303323  0
O  O266  1  0.95213943  0.41704068  0.41966455  1  -1.207117  0  -0.372555  -0.627046  0  2.303989  0
O  O267  1  0.28854004  0.08305498  0.08036270  1  -1.202924  0  -0.373153  -0.626802  0  2.302467  0
O  O268  1  0.63102856  0.08031934  0.41713476  1  -1.201132  0  -0.372473  -0.627492  0  2.302011  0
O  O269  1  0.62803518  0.41961013  0.08294963  1  -1.207457  0  -0.373249  -0.626819  0  2.30342  0
O  O270  1  0.04786140  0.58295954  0.58033957  1  -1.206913  0  -0.372623  -0.627073  0  2.303669  0
O  O271  1  0.71145747  0.91694578  0.91963546  1  -1.202887  0  -0.373123  -0.626786  0  2.302495  0
O  O272  1  0.33762631  0.82159653  0.32257714  1  -1.205806  0  -0.463958  -0.755391  0  2.489041  0
O  O273  1  0.98183002  0.67846890  0.17750109  1  -1.191041  0  -0.463241  -0.754137  0  2.490632  0
O  O274  1  0.66016011  0.67737145  0.32149006  1  -1.204751  0  -0.463513  -0.754832  0  2.490958  0
O  O275  1  0.15922534  0.82257944  0.17848945  1  -1.198372  0  -0.463706  -0.755585  0  2.489672  0
O  O276  1  0.66238044  0.17840368  0.67742380  1  -1.206324  0  -0.46397  -0.755482  0  2.489121  0
O  O277  1  0.01816979  0.32152464  0.82249480  1  -1.191475  0  -0.463272  -0.754148  0  2.490575  0
O  O278  1  0.33984495  0.32262765  0.67850773  1  -1.204615  0  -0.463566  -0.754869  0  2.490861  0
O  O279  1  0.84077247  0.17742244  0.82151416  1  -1.19836  0  -0.463682  -0.75554  0  2.489651  0
O  O280  1  0.13927461  0.88189879  0.32899017  1  -1.185334  0  -0.334752  -0.583257  0  2.17914  0
O  O281  1  0.85042700  0.61796178  0.17115481  1  -1.180983  0  -0.334792  -0.58216  0  2.178777  0
O  O282  1  0.46818271  0.67099786  0.38188189  1  -1.1915  0  -0.333911  -0.580862  0  2.177993  0
O  O283  1  0.02141167  0.82896948  0.11801247  1  -1.178339  0  -0.335231  -0.583484  0  2.175191  0
O  O284  1  0.86072929  0.11810754  0.67101148  1  -1.185366  0  -0.334777  -0.583292  0  2.17922  0
O  O285  1  0.14957781  0.38202787  0.82883984  1  -1.180781  0  -0.334766  -0.582123  0  2.178748  0
O  O286  1  0.53182174  0.32900457  0.61811484  1  -1.191615  0  -0.333913  -0.58082  0  2.177885  0
O  O287  1  0.97858888  0.17102906  0.88199007  1  -1.178468  0  -0.335237  -0.583486  0  2.17523  0
O  O288  1  0.46804357  0.93482541  0.32320391  1  -1.202637  0  -0.407157  -0.715898  0  2.415512  0
O  O289  1  0.22600589  0.56522738  0.17672234  1  -1.20424  0  -0.407687  -0.7166  0  2.413282  0
O  O290  1  0.79112690  0.67670385  0.43481620  1  -1.209996  0  -0.406564  -0.715387  0  2.415549  0
O  O291  1  0.40277600  0.82330276  0.06518918  1  -1.200551  0  -0.406987  -0.716171  0  2.413523  0
O  O292  1  0.53196327  0.06517424  0.67679633  1  -1.202736  0  -0.407117  -0.715848  0  2.415513  0
O  O293  1  0.77399233  0.43477394  0.82327933  1  -1.20424  0  -0.407656  -0.716564  0  2.41321  0
O  O294  1  0.20887761  0.32329581  0.56518545  1  -1.210101  0  -0.406602  -0.715491  0  2.41572  0
O  O295  1  0.59722451  0.17669467  0.93481126  1  -1.200446  0  -0.406984  -0.716187  0  2.413476  0
O  O296  1  0.32172080  0.96302750  0.26144941  1  -1.199589  0  -0.392714  -0.644022  0  2.331128  0
O  O297  1  0.04614758  0.53700909  0.23864184  1  -1.210868  0  -0.394292  -0.646336  0  2.332379  0
O  O298  1  0.58303054  0.73848965  0.46294625  1  -1.209112  0  -0.393296  -0.645714  0  2.333569  0
O  O299  1  0.28478958  0.76140174  0.03703736  1  -1.206245  0  -0.394961  -0.647452  0  2.332057  0
O  O300  1  0.67828303  0.03697272  0.73855084  1  -1.199584  0  -0.39274  -0.644106  0  2.331009  0
O  O301  1  0.95384945  0.46298945  0.76135790  1  -1.210881  0  -0.394355  -0.646373  0  2.332584  0
O  O302  1  0.41697032  0.26151001  0.53705454  1  -1.209186  0  -0.393328  -0.645752  0  2.333644  0
O  O303  1  0.71520640  0.23859903  0.96296502  1  -1.206112  0  -0.39499  -0.647468  0  2.331939  0
O  O304  1  0.69047984  0.99962400  0.27514640  1  -1.206307  0  -0.425804  -0.685471  0  2.28546  0
O  O305  1  0.46523253  0.50039297  0.22487386  1  -1.206187  0  -0.425406  -0.68469  0  2.285845  0
O  O306  1  0.96554705  0.72484754  0.49948850  1  -1.20561  0  -0.42556  -0.685007  0  2.285011  0
O  O307  1  0.69047241  0.77509262  0.00027629  1  -1.20379  0  -0.425384  -0.685517  0  2.284344  0
O  O308  1  0.30951384  0.00037954  0.72484790  1  -1.205927  0  -0.425829  -0.685479  0  2.28538  0
O  O309  1  0.53476283  0.49961447  0.77512851  1  -1.206371  0  -0.425366  -0.684546  0  2.285773  0
O  O310  1  0.03445186  0.27514989  0.50051353  1  -1.205656  0  -0.425544  -0.684968  0  2.285017  0
O  O311  1  0.30954841  0.22490314  0.99971109  1  -1.20393  0  -0.425357  -0.685414  0  2.284128  0
O  O312  1  0.76668195  0.08612270  0.20053069  1  -1.185931  0  -0.348577  -0.554814  0  2.046632  0
O  O313  1  0.55276169  0.41391173  0.29966981  1  -1.173977  0  -0.348362  -0.554214  0  2.047616  0
O  O314  1  0.96658328  0.79988969  0.58577237  1  -1.181782  0  -0.34944  -0.556743  0  2.048064  0
O  O315  1  0.85263278  0.69995585  0.91389915  1  -1.177204  0  -0.348748  -0.555866  0  2.045376  0
O  O316  1  0.23331709  0.91388419  0.79946921  1  -1.185993  0  -0.348506  -0.554765  0  2.046529  0
O  O317  1  0.44723744  0.58609626  0.70033484  1  -1.17394  0  -0.348324  -0.554144  0  2.047831  0
O  O318  1  0.03342743  0.20010274  0.41423120  1  -1.181847  0  -0.349464  -0.556741  0  2.04805  0
O  O319  1  0.14736819  0.30003435  0.08608287  1  -1.176819  0  -0.34878  -0.555838  0  2.045418  0
O  O320  1  0.67647764  0.84880024  0.36055916  1  -1.213331  0  -0.440267  -0.719144  0  2.41063  0
O  O321  1  0.38589831  0.65115736  0.13948812  1  -1.20049  0  -0.440402  -0.719164  0  2.410136  0
O  O322  1  0.03703014  0.63948608  0.34882367  1  -1.206905  0  -0.44095  -0.720743  0  2.411448  0
O  O323  1  0.52520927  0.86059888  0.15110596  1  -1.204702  0  -0.439948  -0.717697  0  2.412236  0
O  O324  1  0.32353444  0.15119997  0.63943650  1  -1.213635  0  -0.440265  -0.719041  0  2.410523  0
O  O325  1  0.61409154  0.34885286  0.86051655  1  -1.200599  0  -0.440435  -0.719144  0  2.410281  0
O  O326  1  0.96297353  0.36050968  0.65117536  1  -1.206994  0  -0.440936  -0.720654  0  2.411531  0
O  O327  1  0.47479058  0.13940133  0.84889465  1  -1.204715  0  -0.439939  -0.717654  0  2.412183  0
O  O328  1  0.84994311  0.75998369  0.30060736  1  -1.200538  0  -0.37698  -0.631532  0  2.359028  0
O  O329  1  0.41051485  0.74000685  0.19943399  1  -1.198365  0  -0.37736  -0.633321  0  2.358432  0
O  O330  1  0.15073096  0.69940656  0.26004729  1  -1.200014  0  -0.377165  -0.63167  0  2.35855  0
O  O331  1  0.60980912  0.80059625  0.23990413  1  -1.196646  0  -0.377384  -0.632306  0  2.359288  0
O  O332  1  0.15007212  0.24001763  0.69939179  1  -1.200441  0  -0.376938  -0.631391  0  2.358952  0
O  O333  1  0.58948277  0.26000115  0.80056767  1  -1.198042  0  -0.377335  -0.633311  0  2.358456  0
O  O334  1  0.84926762  0.30059365  0.73995367  1  -1.199995  0  -0.377194  -0.631694  0  2.358591  0
O  O335  1  0.39019334  0.19940340  0.76009507  1  -1.196518  0  -0.37738  -0.632293  0  2.359279  0
O  O336  1  0.61635254  0.95360179  0.51206794  1  -1.207392  0  -0.461974  -0.778373  0  2.40367  0
O  O337  1  0.58250373  0.54631142  0.98794604  1  -1.213768  0  -0.461225  -0.777754  0  2.403393  0
O  O338  1  0.12880494  0.48782058  0.45367295  1  -1.212379  0  -0.463087  -0.781149  0  2.401465  0
O  O339  1  0.57019284  0.01218358  0.04623707  1  -1.207384  0  -0.462517  -0.779551  0  2.404896  0
O  O340  1  0.38364642  0.04639675  0.48792900  1  -1.207569  0  -0.461967  -0.778341  0  2.403456  0
O  O341  1  0.41749322  0.45369101  0.01205546  1  -1.213735  0  -0.461214  -0.777735  0  2.403304  0
O  O342  1  0.87119357  0.51217685  0.54632767  1  -1.212415  0  -0.46307  -0.781092  0  2.401414  0
O  O343  1  0.42979794  0.98781551  0.95376323  1  -1.207252  0  -0.462558  -0.779647  0  2.404686  0
O  O344  1  0.75117161  0.96412527  0.57210527  1  -1.162942  0  -0.295913  -0.510587  0  2.136459  0
O  O345  1  0.78818447  0.53536982  0.92820164  1  -1.175474  0  -0.295885  -0.509684  0  2.136479  0
O  O346  1  0.32370337  0.42796831  0.46437018  1  -1.1752  0  -0.295675  -0.510959  0  2.138402  0
O  O347  1  0.71558791  0.07217329  0.03599180  1  -1.166664  0  -0.294461  -0.507999  0  2.134829  0
O  O348  1  0.24882979  0.03585882  0.42789642  1  -1.162634  0  -0.295888  -0.510429  0  2.136132  0
O  O349  1  0.21181009  0.46462872  0.07180145  1  -1.175621  0  -0.295884  -0.509746  0  2.136354  0
O  O350  1  0.67629771  0.57202746  0.53562692  1  -1.175144  0  -0.295715  -0.510945  0  2.138579  0
O  O351  1  0.28440218  0.92782692  0.96401042  1  -1.167139  0  -0.294402  -0.50799  0  2.134655  0
