# generated using pymatgen
data_Zr6H20C52S15O47
_symmetry_space_group_name_H-M   'P 1'
_cell_length_a   16.46190511
_cell_length_b   16.45176557
_cell_length_c   16.57273195
_cell_angle_alpha   61.31352977
_cell_angle_beta   59.87299013
_cell_angle_gamma   60.14738493
_symmetry_Int_Tables_number   1
_chemical_formula_structural   Zr6H20C52S15O47
_chemical_formula_sum   'Zr6 H20 C52 S15 O47'
_cell_volume   3204.51012010
_cell_formula_units_Z   1
loop_
 _symmetry_equiv_pos_site_id
 _symmetry_equiv_pos_as_xyz
  1  'x, y, z'
loop_
 _atom_site_type_symbol
 _atom_site_label
 _atom_site_symmetry_multiplicity
 _atom_site_fract_x
 _atom_site_fract_y
 _atom_site_fract_z
 _atom_site_occupancy
 _atom_site_pbe_bader_charge
 _atom_site_pbe_bader_spin_density
 _atom_site_pbe_cm5_charge
 _atom_site_pbe_ddec_charge
 _atom_site_pbe_ddec_spin_density
 _atom_site_pbe_ddec_sum_bond_order
 _atom_site_pbe_magmom
Zr  Zr0  1  0.89251044  0.89858517  0.59627571  1  2.637902  0  1.638657  2.374082  0  2.783669  0
Zr  Zr1  1  0.11496658  0.10168433  0.39142234  1  2.634177  0  1.631698  2.377854  0  2.748249  0
Zr  Zr2  1  0.10901729  0.89091101  0.60049846  1  2.633208  0  1.624374  2.370863  0  2.734345  0
Zr  Zr3  1  0.89895810  0.10997667  0.38699141  1  2.63748  0  1.623329  2.375722  0  2.73302  0
Zr  Zr4  1  0.11017577  0.89115614  0.38687197  1  2.631232  0  1.619893  2.370896  0  2.740374  0
Zr  Zr5  1  0.89627488  0.10773444  0.60403238  1  2.641757  0  1.626615  2.381499  0  2.716232  0
H  H6  1  0.08208605  0.74872944  0.57598682  1  0.603799  0  0.334873  0.42986  0  0.847627  0
H  H7  1  0.09217865  0.08212861  0.24450841  1  0.603867  0  0.332229  0.426873  0  0.852604  0
H  H8  1  0.09024864  0.07986676  0.58239149  1  0.622639  0  0.330394  0.424979  0  0.857617  0
H  H9  1  0.74986110  0.09027108  0.57648033  1  0.608566  0  0.332827  0.426079  0  0.852684  0
H  H10  1  0.11000765  0.62608417  0.34373210  1  0.141452  0  0.125402  0.153417  0  0.965809  0
H  H11  1  0.62103826  0.11952514  0.90045082  1  0.130949  0  0.124942  0.151867  0  0.965989  0
H  H12  1  0.86285946  0.11718977  0.11806839  1  0.151325  0  0.121848  0.148614  0  0.972146  0
H  H13  1  0.63416897  0.40190814  0.35469919  1  0.14425  0  0.122185  0.148641  0  0.969903  0
H  H14  1  0.08993975  0.65165873  0.88518980  1  0.154597  0  0.10862  0.132483  0  1.031457  0
H  H15  1  0.83137476  0.67238217  0.86123413  1  0.110706  0  0.110019  0.118624  0  0.99728  0
H  H16  1  0.80913328  0.53132023  0.01393067  1  0.060913  0  0.108398  0.112197  0  0.983442  0
H  H17  1  0.87868470  0.39014442  0.14136760  1  0.095856  0  0.109695  0.116947  0  0.995646  0
H  H18  1  0.13774193  0.36863144  0.16484258  1  0.109461  0  0.108348  0.11715  0  1.000246  0
H  H19  1  0.14602499  0.52391398  0.02510289  1  0.102877  0  0.109429  0.118962  0  0.9835  0
H  H20  1  0.62956395  0.86420871  0.60187336  1  0.114062  0  0.12706  0.154682  0  0.963557  0
H  H21  1  0.91166156  0.28966336  0.77897791  1  0.624802  0  0.346176  0.393024  0  0.85657  0
H  H22  1  0.25786480  0.88264234  0.17140779  1  0.676315  0  0.310881  0.368001  0  0.963248  0
H  H23  1  0.18934986  0.87771240  0.74861056  1  0.650121  0  0.314685  0.373202  0  0.951603  0
H  H24  1  0.26929099  0.53558437  0.78101967  1  0.638053  0  0.353858  0.400788  0  0.839006  0
H  H25  1  0.28452820  0.28141169  0.40364676  1  0.627292  0  0.345286  0.391285  0  0.858375  0
C  C26  1  0.99699542  0.73700937  0.48168137  1  1.56518  0  0.227643  0.645328  0  4.150917  0
C  C27  1  0.28588902  0.98510518  0.22615535  1  1.561956  0  0.230712  0.644354  0  4.12559  0
C  C28  1  0.99853409  0.27245486  0.49912772  1  1.610149  0  0.227901  0.641522  0  4.156208  0
C  C29  1  0.73311207  0.00395505  0.76695396  1  1.554275  0  0.228795  0.648867  0  4.144779  0
C  C30  1  0.98182375  0.74478129  0.76734334  1  1.528099  0  0.237654  0.643396  0  4.086728  0
C  C31  1  0.73497822  0.00151882  0.48670289  1  1.575291  0  0.227871  0.647401  0  4.150326  0
C  C32  1  0.00973753  0.27368250  0.23638498  1  1.52381  0  0.237847  0.645465  0  4.088525  0
C  C33  1  0.28184367  0.99269189  0.49143740  1  1.605657  0  0.227762  0.641264  0  4.156935  0
C  C34  1  0.27744515  0.72795521  0.49201929  1  1.594005  0  0.228399  0.64439  0  4.147336  0
C  C35  1  0.00422550  0.98898762  0.77496017  1  1.564984  0  0.229382  0.642351  0  4.130277  0
C  C36  1  0.73787634  0.27797558  0.49159816  1  1.542295  0  0.228294  0.648098  0  4.140548  0
C  C37  1  0.99869695  0.99784488  0.22635082  1  1.580769  0  0.229349  0.649366  0  4.136756  0
C  C38  1  0.93037109  0.41850735  0.56387262  1  -0.164925  0  -0.023457  -0.145808  0  3.979837  0
C  C39  1  0.05272695  0.60164271  0.41085182  1  0.080368  0  -0.0877  -0.13672  0  3.964428  0
C  C40  1  0.99164980  0.36691630  0.49553637  1  -0.078156  0  -0.012068  -0.118766  0  3.91762  0
C  C41  1  0.99320276  0.65005248  0.48096087  1  -0.210869  0  -0.021668  -0.122424  0  3.974946  0
C  C42  1  0.02831611  0.51803928  0.44068757  1  -0.184492  0  -0.020711  -0.010805  0  4.070796  0
C  C43  1  0.95136832  0.50480262  0.53293996  1  -0.110122  0  -0.019154  -0.037039  0  4.079998  0
C  C44  1  0.42950579  0.92120016  0.08010704  1  -0.100015  0  -0.021944  -0.139246  0  3.977269  0
C  C45  1  0.59944484  0.05884249  0.91766329  1  0.049966  0  -0.085951  -0.132349  0  3.960584  0
C  C46  1  0.37706340  0.98259563  0.13909659  1  -0.132161  0  -0.0195  -0.147883  0  3.939575  0
C  C47  1  0.64838141  0.99838995  0.85934822  1  -0.19123  0  -0.02171  -0.126635  0  3.98062  0
C  C48  1  0.51943596  0.03033171  0.99888140  1  -0.126141  0  -0.016791  -0.009965  0  4.061954  0
C  C49  1  0.51033290  0.94871206  0.99983226  1  -0.158342  0  -0.016359  -0.028046  0  4.072072  0
C  C50  1  0.06624802  0.91867524  0.92046127  1  -0.105678  0  -0.020026  -0.137271  0  3.97196  0
C  C51  1  0.92570566  0.05519373  0.09511003  1  -0.001745  0  -0.091127  -0.142223  0  3.969689  0
C  C52  1  0.00106163  0.98336032  0.86800940  1  -0.10069  0  -0.017854  -0.134902  0  3.918207  0
C  C53  1  0.99462637  0.99197842  0.14260019  1  -0.196469  0  -0.022877  -0.130032  0  3.969203  0
C  C54  1  0.95082313  0.02753372  0.01466984  1  -0.15419  0  -0.0197  -0.004601  0  4.062364  0
C  C55  1  0.03813556  0.94401932  0.00343576  1  -0.136961  0  -0.017112  -0.035417  0  4.07183  0
C  C56  1  0.41351158  0.58522333  0.56513391  1  -0.115281  0  -0.025297  -0.152051  0  3.985261  0
C  C57  1  0.60496817  0.42108206  0.42076386  1  0.028536  0  -0.089607  -0.134416  0  3.971588  0
C  C58  1  0.36828134  0.64013362  0.49371083  1  -0.14442  0  -0.014512  -0.13088  0  3.923757  0
C  C59  1  0.64915065  0.36758123  0.49186016  1  -0.149327  0  -0.023184  -0.132124  0  3.972774  0
C  C60  1  0.51923346  0.50069014  0.44753434  1  -0.198089  0  -0.019968  -0.014048  0  4.069558  0
C  C61  1  0.50002589  0.50529100  0.53888474  1  -0.103035  0  -0.018563  -0.039022  0  4.075235  0
C  C62  1  0.02996791  0.62370209  0.91339471  1  -0.022464  0  -0.073664  -0.128526  0  3.895249  0
C  C63  1  0.88298415  0.63485672  0.90094223  1  0.00284  0  -0.085763  -0.098601  0  3.994641  0
C  C64  1  0.87105661  0.55695694  0.98515134  1  0.016047  0  -0.085488  -0.130613  0  3.993456  0
C  C65  1  0.94060985  0.50682044  0.03476284  1  -0.033752  0  -0.002996  0.077861  0  4.004036  0
C  C66  1  0.93677587  0.42001927  0.11505290  1  -0.062446  0  -0.073671  -0.129751  0  3.925629  0
C  C67  1  0.08390233  0.40852251  0.12730350  1  -0.023743  0  -0.088108  -0.103169  0  4.000634  0
C  C68  1  0.08864813  0.49354970  0.05006456  1  -0.044389  0  -0.084575  -0.127879  0  3.979913  0
C  C69  1  0.01982956  0.54282516  0.99970056  1  -0.042129  0  -0.002529  0.078236  0  3.992705  0
C  C70  1  0.96475649  0.66682408  0.86330052  1  -0.082233  0  -0.019431  -0.043877  0  3.989158  0
C  C71  1  0.00866408  0.36999828  0.15866313  1  -0.041702  0  -0.020979  -0.047474  0  3.998639  0
C  C72  1  0.42081513  0.06426883  0.42406431  1  -0.084528  0  -0.026932  -0.153095  0  3.985753  0
C  C73  1  0.60352678  0.92772838  0.54482003  1  0.028688  0  -0.083764  -0.12745  0  3.952495  0
C  C74  1  0.37338156  0.99382559  0.48609437  1  -0.146804  0  -0.012652  -0.131612  0  3.926167  0
C  C75  1  0.64887855  0.99855900  0.48385676  1  -0.158142  0  -0.023493  -0.12567  0  3.980318  0
C  C76  1  0.52070750  0.95146568  0.52220478  1  -0.145086  0  -0.016563  -0.012945  0  4.058777  0
C  C77  1  0.50519439  0.04013311  0.44473517  1  -0.163321  0  -0.019765  -0.035545  0  4.084904  0
S  S78  1  0.07340652  0.42445566  0.39354470  1  0.303798  0  0.12281  0.181774  0  2.790129  0
S  S79  1  0.90768703  0.59613160  0.58223469  1  0.338441  0  0.107904  0.176726  0  2.832449  0
S  S80  1  0.42805906  0.07245375  0.09658981  1  0.336943  0  0.129244  0.20815  0  2.781335  0
S  S81  1  0.59930118  0.90723016  0.90127183  1  0.339517  0  0.112465  0.176864  0  2.824362  0
S  S82  1  0.90436898  0.07362147  0.92245926  1  0.286485  0  0.10708  0.161843  0  2.76308  0
S  S83  1  0.08906886  0.89924137  0.09137410  1  0.366178  0  0.123092  0.20657  0  2.862891  0
S  S84  1  0.43133921  0.59406106  0.39552405  1  0.354854  0  0.134817  0.219787  0  2.782607  0
S  S85  1  0.58819029  0.41271022  0.59096057  1  0.350196  0  0.118666  0.205351  0  2.839425  0
S  S86  1  0.43187154  0.89921914  0.56839732  1  0.392858  0  0.152783  0.246129  0  2.778006  0
S  S87  1  0.59279266  0.09373827  0.39924624  1  0.315015  0  0.097197  0.162932  0  2.834578  0
S  S88  1  0.83531586  0.38906858  0.67768667  1  3.080267  0  0.544969  1.181964  0  5.976387  0
S  S89  1  0.40780450  0.81792952  0.09595030  1  3.164315  0  0.534684  1.184944  0  6.038474  0
S  S90  1  0.17324411  0.81329454  0.89698196  1  3.157002  0  0.539452  1.175233  0  6.051456  0
S  S91  1  0.37784460  0.60413809  0.67694321  1  3.089967  0  0.546041  1.179751  0  5.979345  0
S  S92  1  0.38869970  0.17409202  0.33003535  1  3.067865  0  0.541818  1.186715  0  5.974352  0
O  O93  1  0.92834617  0.77259568  0.55138009  1  -1.178333  0  -0.35307  -0.611911  0  2.293605  0
O  O94  1  0.25287492  0.05058921  0.26525933  1  -1.161788  0  -0.331846  -0.579635  0  2.275299  0
O  O95  1  0.06929931  0.23719645  0.43022454  1  -1.169637  0  -0.34406  -0.597916  0  2.287711  0
O  O96  1  0.76429605  0.93918546  0.72669297  1  -1.173973  0  -0.356734  -0.617781  0  2.301248  0
O  O97  1  0.05484812  0.77410592  0.73330564  1  -1.17947  0  -0.351148  -0.606283  0  2.278519  0
O  O98  1  0.76915531  0.07111724  0.42137919  1  -1.175436  0  -0.354745  -0.619497  0  2.270568  0
O  O99  1  0.94128089  0.24007593  0.26497198  1  -1.178288  0  -0.353179  -0.621115  0  2.268257  0
O  O100  1  0.24708837  0.92474026  0.55994394  1  -1.176787  0  -0.341474  -0.598748  0  2.258271  0
O  O101  1  0.24584054  0.76126354  0.42183294  1  -1.172233  0  -0.346599  -0.607823  0  2.239063  0
O  O102  1  0.93458852  0.05638958  0.74272482  1  -1.171377  0  -0.329039  -0.583305  0  2.253364  0
O  O103  1  0.77081047  0.24158162  0.56152248  1  -1.171781  0  -0.35019  -0.60706  0  2.269649  0
O  O104  1  0.06961542  0.92984688  0.25841810  1  -1.182619  0  -0.357203  -0.620259  0  2.281913  0
O  O105  1  0.07936469  0.92572386  0.73125469  1  -1.190508  0  -0.349455  -0.625769  0  2.335236  0
O  O106  1  0.77417321  0.24233756  0.42188517  1  -1.171654  0  -0.36392  -0.617727  0  2.265525  0
O  O107  1  0.93324766  0.07020188  0.25934901  1  -1.180599  0  -0.355269  -0.608324  0  2.247217  0
O  O108  1  0.23686158  0.76342113  0.56251602  1  -1.169961  0  -0.358542  -0.599859  0  2.33504  0
O  O109  1  0.92139621  0.77606356  0.72328355  1  -1.172274  0  -0.36982  -0.625096  0  2.320854  0
O  O110  1  0.24379802  0.06205167  0.42676809  1  -1.172865  0  -0.35801  -0.596694  0  2.339185  0
O  O111  1  0.08258367  0.22911115  0.26845412  1  -1.181306  0  -0.369158  -0.624667  0  2.305751  0
O  O112  1  0.76774299  0.93451567  0.55588554  1  -1.178174  0  -0.362688  -0.609804  0  2.277769  0
O  O113  1  0.76830423  0.07249062  0.73318080  1  -1.177274  0  -0.360235  -0.610875  0  2.252993  0
O  O114  1  0.06893761  0.76842240  0.41502513  1  -1.172471  0  -0.359389  -0.609769  0  2.251585  0
O  O115  1  0.24388612  0.92184978  0.25604365  1  -1.19195  0  -0.352558  -0.625987  0  2.333621  0
O  O116  1  0.93406536  0.23371684  0.57122313  1  -1.172815  0  -0.354132  -0.595982  0  2.319504  0
O  O117  1  0.82224298  0.06521184  0.55269188  1  -1.232467  0  -0.693007  -1.068942  0  2.356665  0
O  O118  1  0.06522237  0.05684460  0.55823960  1  -1.251831  0  -0.69274  -1.076913  0  2.355158  0
O  O119  1  0.06798363  0.05731126  0.31550328  1  -1.229045  0  -0.695612  -1.074862  0  2.361334  0
O  O120  1  0.06108314  0.82001421  0.55083132  1  -1.231714  0  -0.695663  -1.074171  0  2.357741  0
O  O121  1  0.13904315  0.95124331  0.45054973  1  -1.199393  0  -0.788892  -1.148934  0  2.118797  0
O  O122  1  0.95916421  0.95834733  0.44681410  1  -1.199774  0  -0.790702  -1.14773  0  2.127182  0
O  O123  1  0.96213875  0.13160169  0.45343420  1  -1.194053  0  -0.786484  -1.147469  0  2.123223  0
O  O124  1  0.95757543  0.95782887  0.62568257  1  -1.19834  0  -0.790849  -1.149765  0  2.130529  0
O  O125  1  0.89368679  0.28074041  0.73638902  1  -1.176855  0  -0.357564  -0.541169  0  2.227508  0
O  O126  1  0.76199635  0.37897876  0.66436169  1  -1.260299  0  -0.28402  -0.485955  0  2.178876  0
O  O127  1  0.80857923  0.45615189  0.72661755  1  -1.290689  0  -0.316247  -0.539524  0  2.137539  0
O  O128  1  0.29285246  0.86080180  0.11122890  1  -1.266733  0  -0.358816  -0.529082  0  2.244401  0
O  O129  1  0.42570755  0.74200324  0.18332039  1  -1.300265  0  -0.321323  -0.551255  0  2.172898  0
O  O130  1  0.46106386  0.79866891  0.00338962  1  -1.284942  0  -0.307354  -0.507384  0  2.124564  0
O  O131  1  0.23414065  0.85447137  0.78566737  1  -1.236419  0  -0.354116  -0.521648  0  2.25049  0
O  O132  1  0.14006504  0.73998727  0.91076804  1  -1.287212  0  -0.306368  -0.53142  0  2.173815  0
O  O133  1  0.23037189  0.79081177  0.95242788  1  -1.277795  0  -0.30232  -0.501221  0  2.136548  0
O  O134  1  0.26514402  0.60177837  0.73426823  1  -1.184677  0  -0.350105  -0.522954  0  2.196005  0
O  O135  1  0.37271357  0.70014732  0.65955047  1  -1.264813  0  -0.290404  -0.499013  0  2.209326  0
O  O136  1  0.43905015  0.51686378  0.72993660  1  -1.297791  0  -0.315262  -0.539754  0  2.141723  0
O  O137  1  0.27759043  0.23583010  0.38732419  1  -1.178441  0  -0.356866  -0.539965  0  2.242587  0
O  O138  1  0.38058069  0.15568934  0.25892226  1  -1.273249  0  -0.291689  -0.504993  0  2.207864  0
O  O139  1  0.45371454  0.22560902  0.30095191  1  -1.290823  0  -0.320275  -0.546334  0  2.147853  0
