# generated using pymatgen
data_Zn4H13C29NO15
_symmetry_space_group_name_H-M   'P 1'
_cell_length_a   16.11601385
_cell_length_b   16.12381720
_cell_length_c   16.12481971
_cell_angle_alpha   89.85768307
_cell_angle_beta   83.94061251
_cell_angle_gamma   84.37812950
_symmetry_Int_Tables_number   1
_chemical_formula_structural   Zn4H13C29NO15
_chemical_formula_sum   'Zn4 H13 C29 N1 O15'
_cell_volume   4146.47943300
_cell_formula_units_Z   1
loop_
 _symmetry_equiv_pos_site_id
 _symmetry_equiv_pos_as_xyz
  1  'x, y, z'
loop_
 _atom_site_type_symbol
 _atom_site_label
 _atom_site_symmetry_multiplicity
 _atom_site_fract_x
 _atom_site_fract_y
 _atom_site_fract_z
 _atom_site_occupancy
 _atom_site_pbe_bader_charge
 _atom_site_pbe_bader_spin_density
 _atom_site_pbe_cm5_charge
 _atom_site_pbe_ddec_charge
 _atom_site_pbe_ddec_spin_density
 _atom_site_pbe_ddec_sum_bond_order
 _atom_site_pbe_magmom
Zn  Zn0  1  0.57035229  0.57149568  0.42934812  1  1.314942  0  0.674391  0.967877  0  2.361938  0
Zn  Zn1  1  0.57124434  0.42271048  0.56318277  1  1.315032  0  0.676563  0.967498  0  2.358097  0
Zn  Zn2  1  0.43437715  0.43688020  0.42971868  1  1.320149  0  0.678755  0.968677  0  2.359011  0
Zn  Zn3  1  0.42060677  0.57059751  0.57759221  1  1.31564  0  0.676305  0.966877  0  2.366389  0
H  H4  1  0.42792579  0.00826813  0.57263430  1  0.123204  0  0.125146  0.130077  0  0.952922  0
H  H5  1  0.94380484  0.33629143  0.39372133  1  0.066597  0  0.105066  0.066298  0  0.962779  0
H  H6  1  0.08966824  0.28389828  0.33202291  1  0.039405  0  0.100647  0.136415  0  0.982697  0
H  H7  1  0.01845911  0.29076340  0.25439296  1  0.014473  0  0.099075  0.130659  0  0.990138  0
H  H8  1  0.08923125  0.36822862  0.26045371  1  0.035037  0  0.102834  0.14046  0  0.980419  0
H  H9  1  0.57111544  0.99188956  0.42822304  1  0.12997  0  0.129492  0.133046  0  0.947099  0
H  H10  1  0.98138526  0.55922908  0.56929949  1  0.095367  0  0.119266  0.143566  0  0.974316  0
H  H11  1  0.66761764  0.57716959  0.06387309  1  0.04214  0  0.107495  0.07145  0  0.959403  0
H  H12  1  0.58667727  0.66142567  0.07202362  1  0.062105  0  0.108854  0.07311  0  0.957532  0
H  H13  1  0.64200776  0.71311186  0.93103634  1  0.053905  0  0.099681  0.135163  0  0.985261  0
H  H14  1  0.72064724  0.70683717  0.00117147  1  0.051373  0  0.102142  0.136338  0  0.98369  0
H  H15  1  0.72286174  0.62875115  0.92285660  1  0.04265  0  0.099527  0.134112  0  0.986507  0
H  H16  1  0.94321041  0.42095088  0.32199338  1  0.065829  0  0.104325  0.066012  0  0.962831  0
C  C17  1  0.48973991  0.48870907  0.72411349  1  1.644531  0  0.238768  0.681252  0  4.234381  0
C  C18  1  0.51665126  0.51503049  0.18590562  1  -0.301318  0  -0.008592  -0.104777  0  3.893754  0
C  C19  1  0.81649895  0.48320744  0.48052527  1  0.021368  0  -0.020318  -0.134964  0  3.906738  0
C  C20  1  0.51232315  0.51095027  0.27551645  1  1.64327  0  0.234355  0.660415  0  4.251224  0
C  C21  1  0.98143357  0.47398297  0.46984691  1  0.609414  0  0.113831  0.286523  0  4.140749  0
C  C22  1  0.02083919  0.51973598  0.52304254  1  0.162429  0  -0.100884  -0.234957  0  4.077134  0
C  C23  1  0.10770125  0.51722256  0.51985240  1  -0.476872  0  -0.02165  0.066506  0  4.17521  0
C  C24  1  0.89276556  0.47882504  0.47548237  1  -0.26092  0  -0.014387  -0.082735  0  4.088588  0
C  C25  1  0.18403564  0.51485342  0.51696173  1  0.195823  0  -0.051053  -0.222266  0  3.960406  0
C  C26  1  0.72599241  0.48853009  0.48666616  1  1.704739  0  0.238616  0.676897  0  4.23927  0
C  C27  1  0.27313059  0.51092171  0.51227126  1  1.649474  0  0.224404  0.673616  0  4.250406  0
C  C28  1  0.47979045  0.88987500  0.52053374  1  -0.116955  0  -0.019539  0.018391  0  4.142945  0
C  C29  1  0.51360232  0.27601443  0.48673728  1  1.643478  0  0.237848  0.679584  0  4.239074  0
C  C30  1  0.48897375  0.72474237  0.51177797  1  1.638389  0  0.230974  0.677909  0  4.240142  0
C  C31  1  0.51838745  0.18640688  0.48159246  1  0.142722  0  -0.024252  -0.172073  0  3.903616  0
C  C32  1  0.52469388  0.02342598  0.47503462  1  0.013678  0  -0.050714  -0.040323  0  4.041201  0
C  C33  1  0.47444018  0.97705817  0.52576077  1  0.093001  0  -0.061866  -0.063083  0  4.057474  0
C  C34  1  0.62878402  0.62074644  0.02790999  1  0.397696  0  -0.057569  0.083762  0  3.886008  0
C  C35  1  0.68147335  0.67011282  0.96667372  1  -0.054495  0  -0.237674  -0.399369  0  3.974938  0
C  C36  1  0.42054918  0.42492043  0.01935703  1  0.867772  0  0.171529  0.238652  0  4.051062  0
C  C37  1  0.98372293  0.37691194  0.35591159  1  0.369064  0  -0.059595  0.082005  0  3.90128  0
C  C38  1  0.04948559  0.32716286  0.29737348  1  -0.004643  0  -0.237043  -0.397762  0  3.972207  0
C  C39  1  0.52083319  0.11055055  0.47897588  1  -0.332277  0  -0.01081  0.025253  0  4.110885  0
C  C40  1  0.48375616  0.81397192  0.51678635  1  -0.098927  0  -0.040287  -0.195114  0  3.950772  0
C  C41  1  0.48503916  0.48460981  0.81383688  1  0.161304  0  -0.025418  -0.164173  0  3.903361  0
C  C42  1  0.47685496  0.47761797  0.97727736  1  0.229491  0  0.010343  -0.034011  0  4.126686  0
C  C43  1  0.52545792  0.52343281  0.02261520  1  0.645917  0  0.120139  0.241169  0  4.109285  0
C  C44  1  0.52040502  0.51881422  0.11010545  1  0.128255  0  -0.021425  -0.100645  0  4.121688  0
C  C45  1  0.48143385  0.48164670  0.88962327  1  -0.299994  0  -0.004869  0.016921  0  4.085151  0
N  N46  1  0.37370286  0.38112103  0.05225913  1  -1.089634  0  -0.312836  -0.351308  0  2.658137  0
O  O47  1  0.50061740  0.49986106  0.49957140  1  -1.23285  0  -0.56817  -1.038327  0  2.521175  0
O  O48  1  0.55973418  0.30562250  0.53669675  1  -1.143753  0  -0.304669  -0.531563  0  2.271522  0
O  O49  1  0.43862583  0.68885104  0.56321752  1  -1.152011  0  -0.308992  -0.536111  0  2.2798  0
O  O50  1  0.46379180  0.31592869  0.44114100  1  -1.140144  0  -0.301442  -0.527361  0  2.273795  0
O  O51  1  0.54387821  0.69002835  0.45606910  1  -1.143874  0  -0.31282  -0.543553  0  2.275911  0
O  O52  1  0.57783009  0.57271168  0.98009575  1  -1.034466  0  -0.152905  -0.170813  0  2.495813  0
O  O53  1  0.02748009  0.42396681  0.41148353  1  -1.030125  0  -0.155354  -0.170752  0  2.485261  0
O  O54  1  0.69084745  0.54272814  0.44073381  1  -1.140535  0  -0.303803  -0.531526  0  2.272464  0
O  O55  1  0.30415963  0.55675467  0.56363147  1  -1.149031  0  -0.316248  -0.545259  0  2.285675  0
O  O56  1  0.54521102  0.43758911  0.68418406  1  -1.137422  0  -0.304551  -0.532795  0  2.27308  0
O  O57  1  0.46273415  0.46166051  0.31062807  1  -1.14137  0  -0.295568  -0.515255  0  2.275711  0
O  O58  1  0.43842184  0.54282104  0.69416429  1  -1.143017  0  -0.300201  -0.526069  0  2.276779  0
O  O59  1  0.55904171  0.55743710  0.30967345  1  -1.131538  0  -0.308531  -0.537018  0  2.272107  0
O  O60  1  0.69134824  0.43834230  0.53725473  1  -1.143577  0  -0.300606  -0.526982  0  2.272663  0
O  O61  1  0.31426152  0.46160296  0.45677499  1  -1.149887  0  -0.315732  -0.545546  0  2.286545  0
