# generated using pymatgen
data_ErH6C9N2O7
_symmetry_space_group_name_H-M   'P 1'
_cell_length_a   6.58486976
_cell_length_b   12.89213279
_cell_length_c   12.89533505
_cell_angle_alpha   94.91540427
_cell_angle_beta   89.99992403
_cell_angle_gamma   90.00045201
_symmetry_Int_Tables_number   1
_chemical_formula_structural   ErH6C9N2O7
_chemical_formula_sum   'Er4 H24 C36 N8 O28'
_cell_volume   1090.69780387
_cell_formula_units_Z   4
loop_
 _symmetry_equiv_pos_site_id
 _symmetry_equiv_pos_as_xyz
  1  'x, y, z'
loop_
 _atom_site_type_symbol
 _atom_site_label
 _atom_site_symmetry_multiplicity
 _atom_site_fract_x
 _atom_site_fract_y
 _atom_site_fract_z
 _atom_site_occupancy
 _atom_site_hle17_bader_spin_density
 _atom_site_hle17_ddec_charge
 _atom_site_hle17_ddec_spin_density
 _atom_site_hle17_ddec_sum_bond_order
 _atom_site_hle17_magmom
 _atom_site_hse06_10hf_bader_spin_density
 _atom_site_hse06_10hf_ddec_charge
 _atom_site_hse06_10hf_ddec_spin_density
 _atom_site_hse06_10hf_ddec_sum_bond_order
 _atom_site_hse06_10hf_magmom
 _atom_site_hse06_bader_spin_density
 _atom_site_hse06_ddec_charge
 _atom_site_hse06_ddec_spin_density
 _atom_site_hse06_ddec_sum_bond_order
 _atom_site_hse06_magmom
 _atom_site_pbe_bader_spin_density
 _atom_site_pbe_cm5_charge
 _atom_site_pbe_ddec_charge
 _atom_site_pbe_ddec_spin_density
 _atom_site_pbe_ddec_sum_bond_order
 _atom_site_pbe_magmom
Er  Er0  1  0.81944055  0.82338658  0.33867612  1  0  2.237937  0  1.664382  0  0  2.089047  0  2.145593  0  0  2.220501  0  1.947031  0  0  1.531088  2.053032  0  2.175906  0
Er  Er1  1  0.31944127  0.67661111  0.66132319  1  0  2.238011  0  1.664292  0  0  2.089106  0  2.145475  0  0  2.220576  0  1.946921  0  0  1.531171  2.053141  0  2.175766  0
Er  Er2  1  0.18056297  0.17661139  0.66132523  1  0  2.237952  0  1.664248  0  0  2.088998  0  2.145464  0  0  2.220535  0  1.946884  0  0  1.531126  2.053075  0  2.175718  0
Er  Er3  1  0.68056225  0.32338843  0.33867906  1  0  2.238081  0  1.664048  0  0  2.089114  0  2.145308  0  0  2.220625  0  1.946667  0  0  1.531161  2.053157  0  2.175586  0
H  H4  1  0.31806010  0.70375834  0.19382254  1  0  0.103897  0  0.922766  0  0  0.113419  0  0.983371  0  0  0.116607  0  0.979001  0  0  0.144544  0.111128  0  0.986209  0
H  H5  1  0.81805173  0.79624556  0.80617495  1  0  0.103962  0  0.922777  0  0  0.113464  0  0.983405  0  0  0.116678  0  0.978999  0  0  0.144516  0.111154  0  0.986256  0
H  H6  1  0.68194189  0.29624198  0.80617978  1  0  0.103925  0  0.922717  0  0  0.113439  0  0.983328  0  0  0.116632  0  0.978947  0  0  0.144519  0.111151  0  0.986166  0
H  H7  1  0.18193660  0.20375632  0.19382982  1  0  0.104042  0  0.922696  0  0  0.1135  0  0.983366  0  0  0.116732  0  0.97894  0  0  0.144513  0.111193  0  0.986204  0
H  H8  1  0.81818822  0.06965460  0.08335649  1  0  0.107013  0  0.932649  0  0  0.118272  0  0.989414  0  0  0.122182  0  0.986517  0  0  0.107522  0.115552  0  0.99133  0
H  H9  1  0.31819073  0.43034964  0.91664496  1  0  0.106987  0  0.932776  0  0  0.118254  0  0.989542  0  0  0.122161  0  0.986646  0  0  0.107517  0.11554  0  0.991458  0
H  H10  1  0.18178948  0.93036053  0.91665322  1  0  0.106919  0  0.932733  0  0  0.118181  0  0.98951  0  0  0.122095  0  0.986608  0  0  0.107466  0.115469  0  0.991417  0
H  H11  1  0.68181734  0.56964674  0.08334929  1  0  0.106986  0  0.932721  0  0  0.118257  0  0.989479  0  0  0.122165  0  0.986583  0  0  0.107521  0.115541  0  0.991396  0
H  H12  1  0.37041308  0.82652427  0.03974255  1  0  0.105838  0  0.933671  0  0  0.117212  0  0.989699  0  0  0.120994  0  0.986912  0  0  0.107632  0.114613  0  0.991454  0
H  H13  1  0.87042975  0.67347749  0.96025163  1  0  0.105835  0  0.933607  0  0  0.117186  0  0.989664  0  0  0.120961  0  0.986886  0  0  0.107652  0.11461  0  0.991418  0
H  H14  1  0.62957221  0.17348384  0.96026117  1  0  0.105743  0  0.933778  0  0  0.117102  0  0.98982  0  0  0.120873  0  0.987047  0  0  0.107583  0.114502  0  0.991572  0
H  H15  1  0.12958439  0.32651812  0.03974333  1  0  0.10574  0  0.933645  0  0  0.117105  0  0.989711  0  0  0.120875  0  0.98694  0  0  0.107596  0.114523  0  0.991468  0
H  H16  1  0.42485648  0.51745119  0.22760535  1  0  0.33326  0  0.883085  0  0  0.31116  0  0.947575  0  0  0.320296  0  0.939627  0  0  0.327463  0.304783  0  0.953151  0
H  H17  1  0.92485563  0.98255470  0.77239223  1  0  0.333235  0  0.883068  0  0  0.31116  0  0.947556  0  0  0.320293  0  0.93961  0  0  0.327424  0.304781  0  0.953133  0
H  H18  1  0.57515008  0.48254834  0.77239458  1  0  0.333205  0  0.883087  0  0  0.311243  0  0.947459  0  0  0.320376  0  0.939508  0  0  0.327501  0.304874  0  0.953028  0
H  H19  1  0.07514789  0.01744404  0.22760686  1  0  0.333164  0  0.883134  0  0  0.311162  0  0.947573  0  0  0.320289  0  0.939632  0  0  0.327412  0.30478  0  0.953153  0
H  H20  1  0.85421030  0.74491501  0.54469069  1  0  0.439259  0  0.850351  0  0  0.408595  0  0.919033  0  0  0.420118  0  0.902406  0  0  0.308507  0.400568  0  0.930819  0
H  H21  1  0.35421731  0.75507735  0.45530508  1  0  0.439305  0  0.850429  0  0  0.408583  0  0.919093  0  0  0.420127  0  0.902447  0  0  0.308514  0.400561  0  0.930879  0
H  H22  1  0.14580080  0.25507908  0.45531191  1  0  0.439355  0  0.850274  0  0  0.408642  0  0.918982  0  0  0.420186  0  0.902336  0  0  0.308528  0.400617  0  0.93077  0
H  H23  1  0.64579684  0.24492064  0.54469861  1  0  0.439288  0  0.850328  0  0  0.40855  0  0.9191  0  0  0.420091  0  0.90246  0  0  0.308492  0.400527  0  0.930882  0
H  H24  1  0.97707607  0.84520494  0.55041695  1  0  0.447637  0  0.846258  0  0  0.417435  0  0.907998  0  0  0.4296  0  0.890476  0  0  0.307757  0.40895  0  0.920408  0
H  H25  1  0.47706635  0.65479571  0.44958250  1  0  0.447681  0  0.846245  0  0  0.417533  0  0.907883  0  0  0.429687  0  0.890375  0  0  0.307821  0.409046  0  0.920291  0
H  H26  1  0.02294111  0.15479069  0.44958267  1  0  0.44765  0  0.846264  0  0  0.417467  0  0.907965  0  0  0.429628  0  0.890447  0  0  0.307776  0.408985  0  0.92037  0
H  H27  1  0.52293413  0.34520695  0.55042311  1  0  0.447734  0  0.846145  0  0  0.417565  0  0.907809  0  0  0.429738  0  0.890277  0  0  0.307845  0.409071  0  0.920228  0
C  C28  1  0.98316856  0.57725040  0.31523732  1  0  -0.003256  0  3.779346  0  0  -0.009311  0  4.042147  0  0  -0.012305  0  4.06604  0  0  0.089484  -0.007977  0  4.029664  0
C  C29  1  0.48316544  0.92275255  0.68474990  1  0  -0.002758  0  3.779222  0  0  -0.00892  0  4.042099  0  0  -0.011867  0  4.06594  0  0  0.089616  -0.007613  0  4.029621  0
C  C30  1  0.01683040  0.42275381  0.68476531  1  0  -0.00291  0  3.779554  0  0  -0.009172  0  4.04247  0  0  -0.012118  0  4.066303  0  0  0.089529  -0.007877  0  4.029994  0
C  C31  1  0.51682896  0.07723604  0.31524217  1  0  -0.00283  0  3.779106  0  0  -0.009027  0  4.042076  0  0  -0.011945  0  4.06586  0  0  0.089569  -0.007678  0  4.029598  0
C  C32  1  0.78357000  0.57539403  0.36663075  1  0  0.701175  0  3.894658  0  0  0.649693  0  4.191323  0  0  0.686097  0  4.183196  0  0  0.235584  0.62523  0  4.199754  0
C  C33  1  0.28357615  0.92460895  0.63336437  1  0  0.700801  0  3.89464  0  0  0.649388  0  4.191256  0  0  0.685762  0  4.183163  0  0  0.235475  0.624924  0  4.199678  0
C  C34  1  0.21641985  0.42460400  0.63337992  1  0  0.700977  0  3.894107  0  0  0.649633  0  4.190664  0  0  0.686024  0  4.182542  0  0  0.235577  0.625194  0  4.199093  0
C  C35  1  0.71642584  0.07539599  0.36662902  1  0  0.700989  0  3.894404  0  0  0.649458  0  4.191265  0  0  0.685839  0  4.183139  0  0  0.235573  0.624978  0  4.199693  0
C  C36  1  0.22489909  0.64926399  0.23272941  1  0  0.288271  0  3.608477  0  0  0.225755  0  3.892819  0  0  0.240968  0  3.903612  0  0  0.173792  0.216272  0  3.886383  0
C  C37  1  0.72489014  0.85073719  0.76726482  1  0  0.288232  0  3.608662  0  0  0.225748  0  3.893021  0  0  0.240939  0  3.903834  0  0  0.173857  0.216279  0  3.886598  0
C  C38  1  0.77510290  0.35073475  0.76727045  1  0  0.288006  0  3.608272  0  0  0.225553  0  3.89265  0  0  0.240776  0  3.903444  0  0  0.173724  0.21608  0  3.886215  0
C  C39  1  0.27510274  0.14926080  0.23273809  1  0  0.287829  0  3.60856  0  0  0.225439  0  3.892928  0  0  0.240616  0  3.903727  0  0  0.173693  0.215977  0  3.886485  0
C  C40  1  0.71286510  0.88168626  0.14625162  1  0  0.624671  0  3.959843  0  0  0.581937  0  4.250548  0  0  0.613265  0  4.253466  0  0  0.18842  0.559505  0  4.25464  0
C  C41  1  0.21286748  0.61831638  0.85373499  1  0  0.62492  0  3.959846  0  0  0.582115  0  4.250586  0  0  0.613444  0  4.253502  0  0  0.188613  0.55972  0  4.254674  0
C  C42  1  0.28712931  0.11831555  0.85373997  1  0  0.624735  0  3.960152  0  0  0.58196  0  4.250928  0  0  0.613286  0  4.253867  0  0  0.188493  0.559532  0  4.25502  0
C  C43  1  0.78713907  0.38168392  0.14626500  1  0  0.624925  0  3.959986  0  0  0.582143  0  4.250748  0  0  0.613471  0  4.253664  0  0  0.188615  0.559731  0  4.254835  0
C  C44  1  0.17447540  0.40380068  0.34749667  1  0  0.724602  0  3.87656  0  0  0.677305  0  4.166947  0  0  0.714818  0  4.155879  0  0  0.247387  0.652718  0  4.175144  0
C  C45  1  0.67447949  0.09620455  0.65250574  1  0  0.724759  0  3.876408  0  0  0.67729  0  4.167069  0  0  0.714837  0  4.155956  0  0  0.247363  0.652706  0  4.17527  0
C  C46  1  0.82551597  0.59620822  0.65251099  1  0  0.724878  0  3.876049  0  0  0.677318  0  4.166833  0  0  0.714856  0  4.155732  0  0  0.247443  0.652741  0  4.175033  0
C  C47  1  0.32551795  0.90379181  0.34748541  1  0  0.724474  0  3.87663  0  0  0.676983  0  4.167262  0  0  0.714542  0  4.156135  0  0  0.247197  0.652404  0  4.175456  0
C  C48  1  0.60662361  0.94122176  0.06822444  1  0  -0.056024  0  3.756807  0  0  -0.035953  0  3.992464  0  0  -0.042272  0  4.014856  0  0  -0.016684  -0.031266  0  3.976361  0
C  C49  1  0.10662791  0.55877896  0.93177217  1  0  -0.056305  0  3.757363  0  0  -0.036082  0  3.992858  0  0  -0.042408  0  4.015258  0  0  -0.016788  -0.031458  0  3.976787  0
C  C50  1  0.39335712  0.05878632  0.93177618  1  0  -0.056035  0  3.757237  0  0  -0.036018  0  3.992998  0  0  -0.04235  0  4.015401  0  0  -0.016724  -0.031364  0  3.976915  0
C  C51  1  0.89337864  0.44121434  0.06822649  1  0  -0.056267  0  3.757207  0  0  -0.036141  0  3.992853  0  0  -0.042475  0  4.015259  0  0  -0.016768  -0.031478  0  3.976764  0
C  C52  1  0.67974642  0.03912658  0.04601525  1  0  -0.053905  0  3.70213  0  0  -0.080026  0  3.957849  0  0  -0.080059  0  3.976054  0  0  -0.078253  -0.079734  0  3.944742  0
C  C53  1  0.17975538  0.46087706  0.95397695  1  0  -0.053776  0  3.702398  0  0  -0.079961  0  3.958115  0  0  -0.07999  0  3.976317  0  0  -0.078215  -0.079648  0  3.945006  0
C  C54  1  0.32024039  0.96088696  0.95398658  1  0  -0.053736  0  3.702389  0  0  -0.079864  0  3.958153  0  0  -0.079887  0  3.976347  0  0  -0.078204  -0.079559  0  3.945039  0
C  C55  1  0.82025421  0.53911930  0.04601420  1  0  -0.05377  0  3.702128  0  0  -0.079937  0  3.957885  0  0  -0.079964  0  3.976089  0  0  -0.078248  -0.079638  0  3.944784  0
C  C56  1  0.13994708  0.50473274  0.30382116  1  0  0.018881  0  3.641025  0  0  0.003549  0  3.895606  0  0  0.002809  0  3.911246  0  0  0.102307  0.004241  0  3.884033  0
C  C57  1  0.63995421  0.99526966  0.69617401  1  0  0.018599  0  3.640876  0  0  0.003388  0  3.895523  0  0  0.002629  0  3.911144  0  0  0.102353  0.004101  0  3.88395  0
C  C58  1  0.86005188  0.49527459  0.69618250  1  0  0.018568  0  3.640876  0  0  0.003511  0  3.895481  0  0  0.00276  0  3.911096  0  0  0.102329  0.004218  0  3.883897  0
C  C59  1  0.36004778  0.00471736  0.30381638  1  0  0.018624  0  3.641158  0  0  0.003528  0  3.895748  0  0  0.002757  0  3.911346  0  0  0.102335  0.00422  0  3.884183  0
C  C60  1  0.42628723  0.90246675  0.02179609  1  0  -0.063029  0  3.711131  0  0  -0.087849  0  3.964328  0  0  -0.088251  0  3.982723  0  0  -0.079362  -0.087304  0  3.951025  0
C  C61  1  0.92631028  0.59753294  0.97820564  1  0  -0.06295  0  3.711302  0  0  -0.08779  0  3.964479  0  0  -0.088181  0  3.982869  0  0  -0.079358  -0.087212  0  3.951164  0
C  C62  1  0.57369047  0.09754682  0.97820962  1  0  -0.063012  0  3.711122  0  0  -0.087811  0  3.964351  0  0  -0.088195  0  3.982737  0  0  -0.079392  -0.087243  0  3.951036  0
C  C63  1  0.07370387  0.40246423  0.02179100  1  0  -0.062892  0  3.711386  0  0  -0.087738  0  3.96464  0  0  -0.088122  0  3.983032  0  0  -0.079354  -0.087178  0  3.951335  0
N  N64  1  0.28959816  0.55274466  0.25077399  1  0  -0.275755  0  3.381673  0  0  -0.211714  0  3.615907  0  0  -0.226542  0  3.627433  0  0  -0.351034  -0.201379  0  3.606714  0
N  N65  1  0.78959682  0.94725523  0.74922320  1  0  -0.275601  0  3.381645  0  0  -0.211663  0  3.615936  0  0  -0.226488  0  3.627477  0  0  -0.350998  -0.20132  0  3.606748  0
N  N66  1  0.71039320  0.44726033  0.74923104  1  0  -0.275443  0  3.381258  0  0  -0.211693  0  3.615509  0  0  -0.226524  0  3.627039  0  0  -0.350997  -0.201367  0  3.60631  0
N  N67  1  0.21039910  0.05273570  0.25077138  1  0  -0.275245  0  3.381372  0  0  -0.211485  0  3.615642  0  0  -0.226317  0  3.627207  0  0  -0.350789  -0.201137  0  3.606436  0
N  N68  1  0.03946499  0.66715128  0.27183453  1  0  -0.498031  0  3.181111  0  0  -0.45764  0  3.472929  0  0  -0.484509  0  3.491138  0  0  -0.386168  -0.446793  0  3.461873  0
N  N69  1  0.53945890  0.83285223  0.72815227  1  0  -0.498341  0  3.181186  0  0  -0.457921  0  3.473051  0  0  -0.484812  0  3.491269  0  0  -0.38639  -0.447088  0  3.462012  0
N  N70  1  0.96054460  0.33285367  0.72816196  1  0  -0.498118  0  3.181336  0  0  -0.457655  0  3.473151  0  0  -0.484563  0  3.491366  0  0  -0.386222  -0.446825  0  3.462109  0
N  N71  1  0.46054006  0.16714340  0.27184657  1  0  -0.49824  0  3.181056  0  0  -0.45778  0  3.472853  0  0  -0.484688  0  3.491068  0  0  -0.386312  -0.446953  0  3.461808  0
O  O72  1  0.63657436  0.79760266  0.17497649  1  0  -0.698354  0  1.949539  0  0  -0.658215  0  2.190158  0  0  -0.691553  0  2.181859  0  0  -0.373776  -0.641518  0  2.195316  0
O  O73  1  0.13656901  0.70239036  0.82501327  1  0  -0.69841  0  1.949945  0  0  -0.658247  0  2.190561  0  0  -0.691579  0  2.182256  0  0  -0.373797  -0.641535  0  2.19575  0
O  O74  1  0.36342459  0.20239292  0.82501459  1  0  -0.698354  0  1.949859  0  0  -0.658167  0  2.190454  0  0  -0.691511  0  2.182155  0  0  -0.373784  -0.641488  0  2.195668  0
O  O75  1  0.86342995  0.29760918  0.17498898  1  0  -0.698436  0  1.949941  0  0  -0.658247  0  2.190534  0  0  -0.691586  0  2.182232  0  0  -0.373847  -0.641557  0  2.195746  0
O  O76  1  0.87579186  0.91903712  0.19013128  1  0  -0.728352  0  2.03588  0  0  -0.677794  0  2.273425  0  0  -0.711779  0  2.265419  0  0  -0.382976  -0.660393  0  2.27871  0
O  O77  1  0.37580289  0.58095920  0.80986014  1  0  -0.728497  0  2.035597  0  0  -0.677954  0  2.273182  0  0  -0.711946  0  2.265169  0  0  -0.383102  -0.660544  0  2.278462  0
O  O78  1  0.12420406  0.08095613  0.80986040  1  0  -0.728441  0  2.035737  0  0  -0.677831  0  2.273277  0  0  -0.711834  0  2.265286  0  0  -0.383043  -0.660423  0  2.278551  0
O  O79  1  0.62420670  0.41904421  0.19013933  1  0  -0.728492  0  2.035664  0  0  -0.677909  0  2.273238  0  0  -0.711903  0  2.265222  0  0  -0.383063  -0.660509  0  2.278521  0
O  O80  1  0.35611884  0.37349795  0.35430861  1  0  -0.732637  0  2.109247  0  0  -0.682012  0  2.374974  0  0  -0.719246  0  2.356741  0  0  -0.409484  -0.664566  0  2.383054  0
O  O81  1  0.85612038  0.12650646  0.64569516  1  0  -0.732556  0  2.109354  0  0  -0.681862  0  2.375114  0  0  -0.719103  0  2.356876  0  0  -0.409437  -0.664465  0  2.38322  0
O  O82  1  0.64388012  0.62651252  0.64570150  1  0  -0.732516  0  2.109258  0  0  -0.681824  0  2.375097  0  0  -0.719062  0  2.356873  0  0  -0.409463  -0.664412  0  2.383201  0
O  O83  1  0.14388769  0.87348840  0.35430440  1  0  -0.732381  0  2.10946  0  0  -0.681727  0  2.375303  0  0  -0.718963  0  2.357062  0  0  -0.40934  -0.664294  0  2.38339  0
O  O84  1  0.71048360  0.49455423  0.40011347  1  0  -0.680304  0  2.05159  0  0  -0.633799  0  2.30671  0  0  -0.668288  0  2.29086  0  0  -0.387582  -0.617217  0  2.313855  0
O  O85  1  0.21047879  0.00545657  0.59988394  1  0  -0.680101  0  2.051382  0  0  -0.633625  0  2.306463  0  0  -0.668124  0  2.290652  0  0  -0.387475  -0.616994  0  2.313544  0
O  O86  1  0.28952447  0.50546086  0.59988772  1  0  -0.680417  0  2.051023  0  0  -0.633903  0  2.306003  0  0  -0.66842  0  2.290219  0  0  -0.387603  -0.617294  0  2.313136  0
O  O87  1  0.78952928  0.99452820  0.40012024  1  0  -0.680529  0  2.050974  0  0  -0.633972  0  2.306054  0  0  -0.668489  0  2.290263  0  0  -0.387695  -0.617362  0  2.313199  0
O  O88  1  0.85632632  0.81268537  0.51391827  1  0  -0.902136  0  1.870464  0  0  -0.858153  0  2.081055  0  0  -0.888913  0  2.039941  0  0  -0.656288  -0.844567  0  2.104718  0
O  O89  1  0.35633675  0.68731322  0.48607489  1  0  -0.902273  0  1.870589  0  0  -0.858259  0  2.081166  0  0  -0.889053  0  2.039982  0  0  -0.656378  -0.844695  0  2.104833  0
O  O90  1  0.14367719  0.18731257  0.48607610  1  0  -0.902199  0  1.870473  0  0  -0.858182  0  2.081095  0  0  -0.888983  0  2.039908  0  0  -0.656263  -0.844626  0  2.104756  0
O  O91  1  0.64367435  0.31268710  0.51392821  1  0  -0.902294  0  1.870355  0  0  -0.858233  0  2.081057  0  0  -0.889051  0  2.03984  0  0  -0.65635  -0.844663  0  2.104736  0
O  O92  1  0.68862725  0.66283836  0.37375075  1  0  -0.72212  0  2.078206  0  0  -0.659536  0  2.324724  0  0  -0.696142  0  2.310236  0  0  -0.379913  -0.641011  0  2.332219  0
O  O93  1  0.18863511  0.83716499  0.62623981  1  0  -0.722111  0  2.078249  0  0  -0.659425  0  2.32461  0  0  -0.696028  0  2.310141  0  0  -0.379855  -0.6409  0  2.332101  0
O  O94  1  0.31136107  0.33717286  0.62625478  1  0  -0.72196  0  2.078118  0  0  -0.659406  0  2.32456  0  0  -0.696021  0  2.310089  0  0  -0.379894  -0.640881  0  2.332056  0
O  O95  1  0.81136385  0.16282361  0.37375459  1  0  -0.721937  0  2.078586  0  0  -0.659233  0  2.324983  0  0  -0.695831  0  2.310501  0  0  -0.379808  -0.640718  0  2.332485  0
O  O96  1  0.02455400  0.35258056  0.37886234  1  0  -0.718598  0  2.073508  0  0  -0.66146  0  2.320665  0  0  -0.698478  0  2.305768  0  0  -0.370013  -0.642999  0  2.327338  0
O  O97  1  0.52454985  0.14742954  0.62114289  1  0  -0.718673  0  2.073336  0  0  -0.661469  0  2.320562  0  0  -0.698501  0  2.305655  0  0  -0.370012  -0.643024  0  2.327226  0
O  O98  1  0.97545559  0.64742988  0.62114157  1  0  -0.718689  0  2.073035  0  0  -0.661511  0  2.320319  0  0  -0.698523  0  2.305405  0  0  -0.370066  -0.643073  0  2.327  0
O  O99  1  0.47544455  0.85255519  0.37885585  1  0  -0.71856  0  2.073061  0  0  -0.66134  0  2.320231  0  0  -0.698379  0  2.305329  0  0  -0.369928  -0.642879  0  2.326899  0
