# generated using pymatgen
data_NiPH10C6NO6
_symmetry_space_group_name_H-M   'P 1'
_cell_length_a   6.55334981
_cell_length_b   7.38827532
_cell_length_c   9.98097348
_cell_angle_alpha   87.04114481
_cell_angle_beta   76.56796376
_cell_angle_gamma   70.15119741
_symmetry_Int_Tables_number   1
_chemical_formula_structural   NiPH10C6NO6
_chemical_formula_sum   'Ni2 P2 H20 C12 N2 O12'
_cell_volume   441.91896921
_cell_formula_units_Z   2
loop_
 _symmetry_equiv_pos_site_id
 _symmetry_equiv_pos_as_xyz
  1  'x, y, z'
loop_
 _atom_site_type_symbol
 _atom_site_label
 _atom_site_symmetry_multiplicity
 _atom_site_fract_x
 _atom_site_fract_y
 _atom_site_fract_z
 _atom_site_occupancy
 _atom_site_hle17_ddec_charge
 _atom_site_hle17_ddec_spin_density
 _atom_site_hle17_ddec_sum_bond_order
 _atom_site_hle17_magmom
 _atom_site_hse06_10hf_ddec_charge
 _atom_site_hse06_10hf_ddec_spin_density
 _atom_site_hse06_10hf_ddec_sum_bond_order
 _atom_site_hse06_10hf_magmom
 _atom_site_hse06_ddec_charge
 _atom_site_hse06_ddec_spin_density
 _atom_site_hse06_ddec_sum_bond_order
 _atom_site_hse06_magmom
 _atom_site_pbe_cm5_charge
 _atom_site_pbe_ddec_charge
 _atom_site_pbe_ddec_spin_density
 _atom_site_pbe_ddec_sum_bond_order
 _atom_site_pbe_magmom
Ni  Ni0  1  0.26447920  0.17625783  0.03596497  1  1.058925  1.803066  1.732581  1.54  1.080709  1.856941  2.102101  1.674  1.161459  1.917393  2.040839  1.755  0.624396  1.007395  1.793399  2.161642  1.593
Ni  Ni1  1  0.73551962  0.82374186  0.96403296  1  1.058952  -1.80307  1.732599  -1.54  1.080726  -1.856938  2.102117  -1.674  1.161509  -1.917392  2.040851  -1.755  0.624398  1.007424  -1.7934  2.161659  -1.593
P  P2  1  0.72845038  0.21476146  0.10909578  1  1.52391  0.003685  4.777855  0.002  1.376187  0.004263  5.284452  0.004  1.430663  0.003314  5.244363  0.003  0.350652  1.336497  0.005196  5.309764  0.004
P  P3  1  0.27155158  0.78523825  0.89090170  1  1.523981  -0.003689  4.777783  -0.002  1.37623  -0.004261  5.284382  -0.004  1.430718  -0.003312  5.244284  -0.003  0.350684  1.336545  -0.005195  5.309696  -0.004
H  H4  1  0.54816639  0.27110739  0.48783941  1  0.108186  9e-05  0.953046  0.0  0.12227  1e-06  1.007763  0.0  0.124812  3e-06  1.00738  0.0  0.109528  0.120464  5e-06  1.008279  0.0
H  H5  1  0.45183392  0.72889226  0.51216332  1  0.108162  -9.4e-05  0.953051  0.0  0.122245  -1e-06  1.007778  0.0  0.124786  -3e-06  1.007396  0.0  0.109518  0.120439  -5e-06  1.008294  0.0
H  H6  1  0.67356944  0.40822910  0.66255523  1  0.118996  -0.000264  0.976538  -0.001  0.128226  6.7e-05  1.035546  0.0  0.132139  3.7e-05  1.031956  0.0  0.112175  0.125056  0.000112  1.0386  0.0
H  H7  1  0.32643210  0.59176330  0.33745155  1  0.118919  0.000261  0.976741  0.001  0.128178  -6.7e-05  1.035713  0.0  0.132078  -3.7e-05  1.032123  0.0  0.112202  0.125017  -0.000112  1.038752  0.0
H  H8  1  0.08257730  0.35669703  0.62842188  1  0.126866  1.8e-05  0.934377  0.0  0.134623  -0.000119  0.991883  0.0  0.138564  -7.9e-05  0.990303  0.0  0.115453  0.131565  -0.000107  0.993361  0.0
H  H9  1  0.91742429  0.64329542  0.37158088  1  0.126833  -2.3e-05  0.934366  0.0  0.134579  0.000119  0.991892  0.0  0.138513  7.9e-05  0.990315  0.0  0.115453  0.131517  0.000107  0.993374  0.0
H  H10  1  0.34149467  0.18612892  0.40499532  1  0.099178  -0.000315  0.959696  -0.001  0.109559  -2.5e-05  1.022372  0.0  0.112722  -2.6e-05  1.018961  0.0  0.127265  0.107039  -1.1e-05  1.025369  0.0
H  H11  1  0.65850825  0.81387222  0.59500399  1  0.099236  0.000314  0.959718  0.001  0.109561  2.6e-05  1.022438  0.0  0.112723  2.6e-05  1.019028  0.0  0.127251  0.107042  1.1e-05  1.025436  0.0
H  H12  1  0.66743174  0.01650900  0.29896276  1  0.140514  0.000172  0.95132  0.0  0.154316  0.000104  1.010343  0.0  0.156985  7.5e-05  1.009127  0.0  0.109379  0.15233  0.000132  1.011387  0.0
H  H13  1  0.33256851  0.98349503  0.70103484  1  0.140492  -0.000175  0.951305  0.0  0.154317  -0.000104  1.010297  0.0  0.156986  -7.5e-05  1.009082  0.0  0.109378  0.152335  -0.000132  1.01134  0.0
H  H14  1  0.94843604  0.93198306  0.20339988  1  0.179708  0.000186  0.938859  0.0  0.185017  0.000196  1.002877  0.0  0.189729  0.000157  0.99973  0.0  0.121792  0.181542  0.000236  1.005258  0.0
H  H15  1  0.05156588  0.06801663  0.79659961  1  0.179687  -0.000187  0.938901  0.0  0.185003  -0.000196  1.002898  0.0  0.189716  -0.000158  0.99975  0.0  0.121778  0.181532  -0.000236  1.005281  0.0
H  H16  1  0.11714802  0.55565924  0.07850867  1  0.432087  9.4e-05  0.864738  -0.001  0.408579  0.000377  0.917881  0.0  0.419664  0.000259  0.902097  0.0  0.295273  0.400332  0.000473  0.929528  0.0
H  H17  1  0.88285237  0.44434046  0.92148904  1  0.432094  -9.3e-05  0.86471  0.001  0.408595  -0.000377  0.917852  0.0  0.419679  -0.000259  0.90207  0.0  0.295296  0.400346  -0.000473  0.9295  0.0
H  H18  1  0.31688105  0.44076307  0.14951191  1  0.415822  -0.000354  0.899835  -0.001  0.385289  3.3e-05  0.964894  0.0  0.396755  -5.8e-05  0.948464  0.0  0.285629  0.377027  0.000116  0.976613  0.0
H  H19  1  0.68312034  0.55923808  0.85048561  1  0.415865  0.000355  0.899759  0.001  0.385301  -3.3e-05  0.964871  0.0  0.396772  5.8e-05  0.948437  0.0  0.285618  0.377045  -0.000116  0.976583  0.0
H  H20  1  0.37878217  0.39425778  0.83496404  1  0.429281  -0.000105  0.87523  -0.001  0.398787  0.000201  0.938988  0.0  0.410335  7e-05  0.922489  0.0  0.288068  0.39045  0.00033  0.950757  0.0
H  H21  1  0.62121594  0.60574768  0.16503383  1  0.429272  0.000105  0.875244  0.001  0.398808  -0.0002  0.938961  0.0  0.410357  -7e-05  0.922462  0.0  0.288084  0.390472  -0.00033  0.950729  0.0
H  H22  1  0.50658806  0.17022157  0.80239735  1  0.409719  -0.000482  0.884776  -0.001  0.382147  7.4e-05  0.95724  0.0  0.392592  -2e-06  0.942278  0.0  0.292423  0.37479  0.000153  0.967614  0.0
H  H23  1  0.49340905  0.82978245  0.19760070  1  0.40968  0.000481  0.884797  0.001  0.382102  -7.4e-05  0.957294  0.0  0.392549  2e-06  0.942331  0.0  0.292394  0.374745  -0.000153  0.96767  0.0
C  C24  1  0.87250695  0.15292884  0.35607469  1  0.22777  0.011276  3.676275  0.014  0.212939  0.006576  3.931668  0.008  0.222707  0.005463  3.950139  0.007  0.124084  0.206553  0.008589  3.919241  0.01
C  C25  1  0.12749124  0.84707225  0.64392731  1  0.227667  -0.011274  3.676297  -0.014  0.212879  -0.006574  3.931651  -0.008  0.222645  -0.005462  3.95012  -0.007  0.124037  0.206493  -0.008587  3.919229  -0.01
C  C26  1  0.72346348  0.25398063  0.47355920  1  -0.149609  -0.007434  3.708933  -0.009  -0.168924  -0.002526  3.969138  -0.004  -0.175302  -0.002888  3.98746  -0.004  -0.08155  -0.165509  -0.00251  3.957669  -0.004
C  C27  1  0.27653994  0.74601901  0.52644508  1  -0.14941  0.007442  3.708681  0.009  -0.168752  0.002526  3.968871  0.004  -0.175128  0.002888  3.98719  0.004  -0.081459  -0.165339  0.00251  3.957408  0.004
C  C28  1  0.79359574  0.32859148  0.57242022  1  -0.013907  0.013033  3.696189  0.015  -0.046279  0.007189  3.962548  0.008  -0.039552  0.005826  3.975297  0.007  -0.077279  -0.050972  0.009686  3.954838  0.011
C  C29  1  0.20640260  0.67140528  0.42758189  1  -0.01408  -0.01303  3.69625  -0.015  -0.046467  -0.007188  3.962632  -0.008  -0.039725  -0.005826  3.975368  -0.007  -0.07738  -0.051163  -0.009685  3.954923  -0.011
C  C30  1  0.02017500  0.30230918  0.55262162  1  -0.099355  -0.006744  3.761539  -0.008  -0.10986  -0.002339  4.020009  -0.003  -0.116043  -0.002741  4.039207  -0.004  -0.078861  -0.105853  -0.002418  4.007804  -0.004
C  C31  1  0.97983014  0.69768615  0.44738154  1  -0.099123  0.006753  3.761485  0.008  -0.109633  0.002338  4.019931  0.003  -0.115804  0.00274  4.03913  0.004  -0.078799  -0.105627  0.002418  4.007725  0.004
C  C32  1  0.16450867  0.20818536  0.43386050  1  0.019191  0.01124  3.612008  0.013  -0.026008  0.006477  3.877468  0.008  -0.018879  0.005517  3.89031  0.007  0.040306  -0.031141  0.008064  3.869643  0.009
C  C33  1  0.83549052  0.79181718  0.56614131  1  0.019065  -0.011239  3.612128  -0.013  -0.026063  -0.006477  3.877531  -0.008  -0.018932  -0.005517  3.890367  -0.007  0.040301  -0.031198  -0.008065  3.869707  -0.009
C  C34  1  0.81111781  0.06031406  0.25126275  1  -0.528847  0.000546  3.717131  0.0  -0.548723  0.000737  3.957018  0.0  -0.560088  0.000464  3.961503  0.0  -0.172181  -0.540657  0.001046  3.953798  0.001
C  C35  1  0.18887981  0.93968848  0.74873928  1  -0.528828  -0.000539  3.717022  0.0  -0.548698  -0.000738  3.956818  0.0  -0.560061  -0.000465  3.961298  0.0  -0.172155  -0.540639  -0.001046  3.953603  -0.001
N  N36  1  0.09193607  0.13571265  0.33861993  1  0.218205  -0.006097  3.64684  -0.012  0.272098  -0.002695  3.91005  -0.006  0.270447  -0.003369  3.932515  -0.007  -0.112943  0.272255  -0.00204  3.894024  -0.005
N  N37  1  0.90806582  0.86428702  0.66138157  1  0.218213  0.006092  3.646937  0.012  0.272085  0.002694  3.91013  0.006  0.270434  0.003369  3.932592  0.007  -0.112955  0.272241  0.00204  3.894107  0.005
O  O38  1  0.93911266  0.23621016  0.01333905  1  -0.845631  0.039746  2.02548  0.062  -0.782742  0.025324  2.296933  0.039  -0.81852  0.019368  2.276117  0.03  -0.360953  -0.75373  0.030974  2.310653  0.047
O  O39  1  0.06089049  0.76378672  0.98665433  1  -0.845699  -0.039743  2.025514  -0.062  -0.782796  -0.025324  2.296956  -0.039  -0.818591  -0.019367  2.276149  -0.03  -0.360984  -0.753764  -0.030972  2.310637  -0.047
O  O40  1  0.61259201  0.10792948  0.03834088  1  -0.85964  0.000654  2.122409  0.001  -0.820167  0.000679  2.440287  0.001  -0.863381  -6.4e-05  2.420832  0.0  -0.367159  -0.782985  0.002315  2.451723  0.004
O  O41  1  0.38740718  0.89207306  0.96166092  1  -0.859647  -0.000657  2.122375  -0.001  -0.820188  -0.000681  2.440277  -0.001  -0.863395  6.3e-05  2.420804  0.0  -0.36717  -0.78301  -0.002317  2.451722  -0.004
O  O42  1  0.56034988  0.40791197  0.17314878  1  -0.863583  -0.003319  1.966564  -0.005  -0.775668  -0.002082  2.195516  -0.003  -0.804182  -0.001536  2.176359  -0.002  -0.37268  -0.754592  -0.002573  2.208257  -0.003
O  O43  1  0.43965423  0.59208634  0.82684642  1  -0.863614  0.003321  1.966606  0.005  -0.775628  0.002081  2.195525  0.003  -0.804154  0.001535  2.176369  0.002  -0.372634  -0.754555  0.002573  2.208267  0.003
O  O44  1  0.23925563  0.04223233  0.22803560  1  -0.530061  0.040729  1.930272  0.065  -0.510967  0.021676  2.197144  0.034  -0.542219  0.016901  2.196789  0.027  -0.223117  -0.485714  0.02474  2.196762  0.038
O  O45  1  0.76074302  0.95777167  0.77196424  1  -0.530069  -0.04073  1.93024  -0.065  -0.511001  -0.021678  2.197135  -0.034  -0.542259  -0.016903  2.19678  -0.027  -0.223132  -0.485752  -0.02474  2.196759  -0.038
O  O46  1  0.16954178  0.44027172  0.13472956  1  -0.819905  0.045554  1.905824  0.071  -0.793963  0.030155  2.110584  0.048  -0.824446  0.023328  2.078189  0.038  -0.57873  -0.768728  0.035754  2.133832  0.055
O  O47  1  0.83046015  0.55972798  0.86526893  1  -0.819946  -0.045557  1.905721  -0.071  -0.793993  -0.030156  2.110491  -0.048  -0.824489  -0.023328  2.078094  -0.038  -0.578742  -0.768762  -0.035754  2.133739  -0.055
O  O48  1  0.35580416  0.26615494  0.83274755  1  -0.797787  0.041416  1.890922  0.064  -0.767437  0.029591  2.097033  0.046  -0.79696  0.022821  2.064937  0.037  -0.570994  -0.743416  0.035273  2.119604  0.054
O  O49  1  0.64419395  0.73385053  0.16725032  1  -0.797738  -0.041415  1.890985  -0.064  -0.767397  -0.029592  2.097083  -0.046  -0.796924  -0.022821  2.064979  -0.037  -0.570957  -0.743381  -0.035274  2.119654  -0.054
