# generated using pymatgen
data_CuH8C8(NO)4
_symmetry_space_group_name_H-M   'P 1'
_cell_length_a   8.19829283
_cell_length_b   8.19831588
_cell_length_c   9.19303948
_cell_angle_alpha   85.31133703
_cell_angle_beta   85.31127806
_cell_angle_gamma   80.88620272
_symmetry_Int_Tables_number   1
_chemical_formula_structural   CuH8C8(NO)4
_chemical_formula_sum   'Cu2 H16 C16 N8 O8'
_cell_volume   606.55477032
_cell_formula_units_Z   2
loop_
 _symmetry_equiv_pos_site_id
 _symmetry_equiv_pos_as_xyz
  1  'x, y, z'
loop_
 _atom_site_type_symbol
 _atom_site_label
 _atom_site_symmetry_multiplicity
 _atom_site_fract_x
 _atom_site_fract_y
 _atom_site_fract_z
 _atom_site_occupancy
 _atom_site_hle17_ddec_charge
 _atom_site_hle17_ddec_spin_density
 _atom_site_hle17_ddec_sum_bond_order
 _atom_site_hle17_magmom
 _atom_site_hse06_10hf_ddec_charge
 _atom_site_hse06_10hf_ddec_spin_density
 _atom_site_hse06_10hf_ddec_sum_bond_order
 _atom_site_hse06_10hf_magmom
 _atom_site_hse06_ddec_charge
 _atom_site_hse06_ddec_spin_density
 _atom_site_hse06_ddec_sum_bond_order
 _atom_site_hse06_magmom
 _atom_site_pbe_cm5_charge
 _atom_site_pbe_ddec_charge
 _atom_site_pbe_ddec_spin_density
 _atom_site_pbe_ddec_sum_bond_order
 _atom_site_pbe_magmom
Cu  Cu0  1  0.65835633  0.34164326  0.75000030  1  0.871021  0.758304  1.896675  0.554  0.848417  0.832415  2.283181  0.664  0.930681  0.897855  2.223321  0.741  0.749883  0.791408  0.762918  2.327166  0.592
Cu  Cu1  1  0.34164951  0.65835163  0.24999978  1  0.871011  -0.758277  1.896497  -0.554  0.848471  -0.832411  2.28299  -0.664  0.930682  -0.897847  2.223114  -0.741  0.749909  0.791397  -0.76291  2.32703  -0.592
H  H2  1  0.19790473  0.20790545  0.02787438  1  0.108476  0.000622  0.97601  0.001  0.115119  0.000452  1.041668  0.001  0.117532  0.000339  1.040647  0.0  0.118002  0.112857  0.000532  1.043227  0.001
H  H3  1  0.79209842  0.80209500  0.47212715  1  0.10851  0.000619  0.97597  0.001  0.11516  0.000451  1.041623  0.001  0.117574  0.000339  1.040601  0.0  0.11801  0.112875  0.000532  1.043205  0.001
H  H4  1  0.80209853  0.79209809  0.97212526  1  0.108513  -0.00062  0.975968  -0.001  0.115146  -0.000451  1.041641  -0.001  0.117559  -0.000339  1.04062  0.0  0.118019  0.112877  -0.000532  1.043205  -0.001
H  H5  1  0.20789603  0.19790229  0.52787142  1  0.108526  -0.000622  0.975936  -0.001  0.115161  -0.000451  1.041608  -0.001  0.117574  -0.000339  1.040586  0.0  0.118016  0.112894  -0.000532  1.043167  -0.001
H  H6  1  0.86122556  0.18082686  0.03077841  1  0.108297  0.000231  0.947158  0.001  0.116959  0.000352  1.005061  0.001  0.118961  0.000247  1.004659  0.0  0.118115  0.115148  0.000434  1.005722  0.001
H  H7  1  0.81918087  0.13877144  0.46922605  1  0.108287  0.000228  0.947138  0.001  0.11694  0.000352  1.00507  0.001  0.118942  0.000247  1.004669  0.0  0.118119  0.115129  0.000434  1.005731  0.001
H  H8  1  0.13877569  0.81918163  0.96922428  1  0.108319  -0.00023  0.947186  -0.001  0.116977  -0.000352  1.005089  -0.001  0.118979  -0.000247  1.00469  0.0  0.118128  0.115167  -0.000434  1.005749  -0.001
H  H9  1  0.18081500  0.86122463  0.53077359  1  0.108263  -0.000227  0.947152  -0.001  0.116918  -0.000351  1.00507  -0.001  0.11892  -0.000247  1.004671  0.0  0.118105  0.115107  -0.000434  1.00573  -0.001
H  H10  1  0.26278952  0.35902604  0.77551923  1  0.310686  0.000687  0.933516  0.001  0.289234  0.000542  0.997632  0.001  0.298489  0.000357  0.990512  0.001  0.30883  0.282331  0.000653  1.003113  0.001
H  H11  1  0.64097226  0.73721000  0.72448054  1  0.310694  0.000687  0.933498  0.001  0.289246  0.000542  0.997611  0.001  0.298502  0.000357  0.990489  0.001  0.308832  0.282341  0.000653  1.003093  0.001
H  H12  1  0.73721149  0.64097626  0.22448175  1  0.310698  -0.000687  0.933482  -0.001  0.28925  -0.000542  0.997599  -0.001  0.298504  -0.000357  0.99048  -0.001  0.308849  0.282346  -0.000653  1.003082  -0.001
H  H13  1  0.35902322  0.26278854  0.27551787  1  0.31064  -0.000687  0.933467  -0.001  0.289173  -0.000542  0.99762  -0.001  0.298428  -0.000357  0.990501  -0.001  0.308803  0.282267  -0.000653  1.003102  -0.001
H  H14  1  0.00516822  0.43850630  0.63682657  1  0.098062  0.000114  0.941937  0.001  0.105035  0.000154  1.009409  0.0  0.107725  0.000115  1.004782  0.0  0.134707  0.102492  0.000187  1.013295  0.001
H  H15  1  0.56149078  0.99483048  0.86317348  1  0.098044  0.000112  0.94194  0.001  0.105022  0.000155  1.009414  0.0  0.107713  0.000115  1.004787  0.0  0.134705  0.102481  0.000187  1.013301  0.001
H  H16  1  0.99483420  0.56149476  0.36317549  1  0.098066  -0.00011  0.941896  -0.001  0.105038  -0.000154  1.009379  0.0  0.10773  -0.000115  1.004752  0.0  0.134721  0.102486  -0.000187  1.013277  -0.001
H  H17  1  0.43851018  0.00516438  0.13682697  1  0.098081  -0.00011  0.9419  -0.001  0.105051  -0.000154  1.00938  0.0  0.107742  -0.000115  1.004752  0.0  0.134707  0.1025  -0.000187  1.013279  -0.001
C  C18  1  0.47609248  0.41876520  0.04098247  1  0.534699  0.002645  3.89115  0.005  0.497123  -0.000275  4.191616  0.001  0.528866  -8.8e-05  4.183921  0.001  0.202464  0.474868  -0.000148  4.195404  0.002
C  C19  1  0.58123502  0.52390655  0.45901609  1  0.534755  0.002644  3.890888  0.005  0.497155  -0.000276  4.191376  0.001  0.528899  -8.8e-05  4.183679  0.001  0.202458  0.474898  -0.000148  4.19516  0.002
C  C20  1  0.52390470  0.58124574  0.95901489  1  0.53485  -0.002657  3.891272  -0.005  0.497403  0.000272  4.191572  -0.001  0.529145  8.7e-05  4.183876  -0.001  0.202519  0.475151  0.000148  4.19536  -0.002
C  C21  1  0.41875312  0.47609195  0.54098286  1  0.534891  -0.002639  3.89112  -0.005  0.497449  0.000272  4.191412  -0.001  0.52919  8.7e-05  4.183714  -0.001  0.202556  0.475194  0.000148  4.195198  -0.002
C  C22  1  0.10700189  0.25001380  0.94870948  1  -0.007763  0.004597  3.69557  0.005  -0.043367  0.002346  3.949651  0.003  -0.041805  0.001991  3.969037  0.002  -0.001437  -0.04462  0.002586  3.937551  0.003
C  C23  1  0.74999123  0.89299717  0.55129420  1  -0.007872  0.004612  3.695499  0.005  -0.043493  0.002346  3.949596  0.003  -0.041931  0.001991  3.968982  0.002  -0.001474  -0.044724  0.002586  3.93751  0.003
C  C24  1  0.89299647  0.74998972  0.05129378  1  -0.007791  -0.004607  3.695486  -0.005  -0.043394  -0.002347  3.949581  -0.003  -0.04183  -0.001992  3.968967  -0.002  -0.001438  -0.044641  -0.002586  3.937487  -0.003
C  C25  1  0.25000772  0.10700263  0.44870495  1  -0.007864  -0.004594  3.695505  -0.005  -0.043493  -0.002348  3.949613  -0.003  -0.041927  -0.00199  3.968999  -0.002  -0.001491  -0.044743  -0.002586  3.937513  -0.003
C  C26  1  0.94125078  0.23802961  0.94904262  1  -0.018139  -0.00057  3.749605  -0.001  -0.046277  0.000667  4.017935  0.0  -0.043918  -9.3e-05  4.039963  -0.001  -0.007919  -0.047583  0.001231  4.003475  0.001
C  C27  1  0.76197689  0.05874672  0.55096184  1  -0.018082  -0.00057  3.749463  -0.001  -0.046223  0.000667  4.01782  0.0  -0.043866  -9.3e-05  4.039851  -0.001  -0.007908  -0.047528  0.001231  4.003354  0.001
C  C28  1  0.05875086  0.76197641  0.05096022  1  -0.018193  0.000573  3.749469  0.001  -0.046329  -0.000669  4.017809  0.0  -0.043972  9.4e-05  4.039838  0.001  -0.007933  -0.047633  -0.001231  4.003347  -0.001
C  C29  1  0.23801878  0.94125058  0.44903773  1  -0.018022  0.000559  3.749321  0.001  -0.04615  -0.000668  4.017666  0.0  -0.043793  9.3e-05  4.039695  0.001  -0.007877  -0.047453  -0.001231  4.003204  -0.001
C  C30  1  0.00931754  0.37177647  0.74349037  1  0.205057  -0.005267  3.667506  -0.005  0.149364  -0.000724  3.943608  -0.001  0.165002  -0.001673  3.955692  -0.002  0.138266  0.138911  -0.000133  3.936548  0.0
C  C31  1  0.62822369  0.99068233  0.75651042  1  0.205089  -0.005248  3.667441  -0.005  0.149369  -0.000727  3.943565  -0.001  0.165006  -0.001671  3.955651  -0.002  0.138271  0.138914  -0.000133  3.936509  0.0
C  C32  1  0.99068244  0.62822457  0.25650970  1  0.205062  0.005235  3.667462  0.005  0.149345  0.000726  3.943589  0.001  0.164981  0.001672  3.955673  0.002  0.138249  0.1389  0.000132  3.936537  0.0
C  C33  1  0.37177790  0.00931624  0.24348970  1  0.20501  0.005233  3.667524  0.005  0.149295  0.000725  3.943624  0.001  0.164931  0.001672  3.955709  0.002  0.138256  0.138847  0.000132  3.936577  0.0
N  N34  1  0.88254407  0.31461858  0.82019507  1  -0.354901  0.081759  3.366301  0.104  -0.319445  0.055529  3.68791  0.075  -0.350801  0.045722  3.709785  0.064  -0.381686  -0.300318  0.059716  3.674914  0.077
N  N35  1  0.68538451  0.11745369  0.67980641  1  -0.354882  0.081752  3.366184  0.104  -0.319388  0.05553  3.687761  0.075  -0.350743  0.04572  3.709635  0.064  -0.381686  -0.300262  0.059716  3.674769  0.077
N  N36  1  0.11745693  0.68538372  0.17980591  1  -0.354918  -0.081755  3.366214  -0.104  -0.319446  -0.055533  3.687815  -0.075  -0.350787  -0.045725  3.70967  -0.064  -0.381694  -0.300307  -0.059716  3.674827  -0.077
N  N37  1  0.31461728  0.88254365  0.32019380  1  -0.354913  -0.081755  3.366204  -0.104  -0.319453  -0.055535  3.68782  -0.075  -0.350794  -0.045726  3.709675  -0.064  -0.381686  -0.300313  -0.059717  3.674832  -0.077
N  N38  1  0.14687074  0.33458219  0.81847322  1  -0.277609  0.002549  3.463549  0.003  -0.208088  0.001999  3.693766  0.003  -0.224322  0.001322  3.707978  0.002  -0.37843  -0.19759  0.002422  3.685047  0.003
N  N39  1  0.66541813  0.85312879  0.68152752  1  -0.277608  0.002533  3.463519  0.003  -0.208074  0.002001  3.69374  0.003  -0.22431  0.001321  3.707953  0.002  -0.378417  -0.197575  0.002422  3.685015  0.003
N  N40  1  0.85313148  0.66542011  0.18152659  1  -0.277558  -0.002532  3.463638  -0.003  -0.208018  -0.002001  3.693832  -0.003  -0.224252  -0.001323  3.708048  -0.002  -0.378392  -0.197518  -0.002422  3.685111  -0.003
N  N41  1  0.33457896  0.14686728  0.31847203  1  -0.277524  -0.002533  3.463673  -0.003  -0.207937  -0.002  3.693816  -0.003  -0.224174  -0.001323  3.708039  -0.002  -0.378326  -0.197436  -0.002422  3.685094  -0.003
O  O42  1  0.51613809  0.28394576  0.98291542  1  -0.57022  -0.010229  1.96726  -0.012  -0.541712  -0.005677  2.20692  -0.007  -0.565284  -0.003541  2.195254  -0.004  -0.312649  -0.521713  -0.010325  2.213191  -0.014
O  O43  1  0.71605410  0.48386004  0.51708313  1  -0.570252  -0.010232  1.967234  -0.012  -0.541722  -0.005676  2.206869  -0.007  -0.565295  -0.003541  2.195202  -0.004  -0.312646  -0.521726  -0.010326  2.213136  -0.014
O  O44  1  0.48386940  0.71605408  0.01707221  1  -0.570106  0.010228  1.967661  0.012  -0.541659  0.005677  2.207273  0.007  -0.565217  0.003541  2.195601  0.004  -0.312591  -0.521655  0.010317  2.213546  0.014
O  O45  1  0.28394643  0.51612987  0.48292533  1  -0.570151  0.010214  1.967684  0.012  -0.541697  0.005677  2.20728  0.007  -0.565254  0.00354  2.195607  0.004  -0.312622  -0.521695  0.010317  2.213552  0.014
O  O46  1  0.39577385  0.43489835  0.16619835  1  -0.572225  -0.06513  2.186407  -0.088  -0.538284  -0.043254  2.449458  -0.063  -0.575909  -0.033576  2.444039  -0.051  -0.313285  -0.510603  -0.050431  2.452439  -0.071
O  O47  1  0.56510126  0.60422775  0.33380010  1  -0.572285  -0.065132  2.186325  -0.088  -0.538326  -0.043255  2.449363  -0.063  -0.575951  -0.033577  2.443942  -0.051  -0.313308  -0.510646  -0.050434  2.452341  -0.071
O  O48  1  0.60422611  0.56510268  0.83379084  1  -0.572356  0.065143  2.186185  0.088  -0.538417  0.043261  2.449147  0.063  -0.576055  0.033578  2.44374  0.051  -0.313298  -0.510747  0.050438  2.452124  0.071
O  O49  1  0.43489686  0.39576958  0.66620799  1  -0.572374  0.065141  2.186139  0.088  -0.53843  0.043262  2.449095  0.063  -0.576067  0.033579  2.443685  0.051  -0.313305  -0.510761  0.050439  2.452073  0.071
