# generated using pymatgen
data_SmAgH12C14N2O11
_symmetry_space_group_name_H-M   'P 1'
_cell_length_a   7.29725916
_cell_length_b   14.17084130
_cell_length_c   19.37488076
_cell_angle_alpha   103.92637999
_cell_angle_beta   90.00011252
_cell_angle_gamma   89.99940019
_symmetry_Int_Tables_number   1
_chemical_formula_structural   SmAgH12C14N2O11
_chemical_formula_sum   'Sm4 Ag4 H48 C56 N8 O44'
_cell_volume   1944.63148775
_cell_formula_units_Z   4
loop_
 _symmetry_equiv_pos_site_id
 _symmetry_equiv_pos_as_xyz
  1  'x, y, z'
loop_
 _atom_site_type_symbol
 _atom_site_label
 _atom_site_symmetry_multiplicity
 _atom_site_fract_x
 _atom_site_fract_y
 _atom_site_fract_z
 _atom_site_occupancy
 _atom_site_pbe_bader_charge
 _atom_site_pbe_bader_spin_density
 _atom_site_pbe_cm5_charge
 _atom_site_pbe_ddec_charge
 _atom_site_pbe_ddec_spin_density
 _atom_site_pbe_ddec_sum_bond_order
 _atom_site_pbe_magmom
Sm  Sm0  1  0.55769650  0.70005389  0.85501815  1  2.201171  0  1.487996  2.004566  0  2.161488  0
Sm  Sm1  1  0.05769758  0.79995058  0.64498540  1  2.201149  0  1.488023  2.004723  0  2.161177  0
Sm  Sm2  1  0.44230454  0.29994791  0.14497955  1  2.201248  0  1.487995  2.004659  0  2.161134  0
Sm  Sm3  1  0.94230620  0.20004711  0.35501583  1  2.201206  0  1.488011  2.004602  0  2.161268  0
Ag  Ag4  1  0.05115265  0.62813703  0.02119209  1  0.637707  0  0.438515  0.507358  0  1.61564  0
Ag  Ag5  1  0.55117619  0.87187259  0.47881928  1  0.637959  0  0.438464  0.507272  0  1.615582  0
Ag  Ag6  1  0.94883332  0.37186429  0.97880968  1  0.63766  0  0.438451  0.507277  0  1.61573  0
Ag  Ag7  1  0.44881251  0.12813429  0.52119104  1  0.637848  0  0.438461  0.507264  0  1.615769  0
H  H8  1  0.87731907  0.86096228  0.88586405  1  0.657478  0  0.298067  0.401368  0  0.938045  0
H  H9  1  0.37732872  0.63903727  0.61413482  1  0.657529  0  0.298112  0.401488  0  0.937873  0
H  H10  1  0.12267237  0.13903828  0.11413709  1  0.657443  0  0.298079  0.401415  0  0.938007  0
H  H11  1  0.62266821  0.36095720  0.38586078  1  0.657594  0  0.298151  0.401519  0  0.937827  0
H  H12  1  0.67981295  0.90653436  0.88539620  1  0.599457  0  0.308018  0.374378  0  0.948488  0
H  H13  1  0.17981941  0.59346849  0.61460357  1  0.599515  0  0.308009  0.374344  0  0.948466  0
H  H14  1  0.32017849  0.09346693  0.11460505  1  0.599499  0  0.307989  0.374344  0  0.948496  0
H  H15  1  0.82017615  0.40652987  0.38539673  1  0.599529  0  0.308039  0.374375  0  0.948447  0
H  H16  1  0.47790902  0.80061881  0.73142492  1  0.6475  0  0.302226  0.401718  0  0.931255  0
H  H17  1  0.97789650  0.69938890  0.76857519  1  0.647521  0  0.302241  0.401791  0  0.931178  0
H  H18  1  0.52209750  0.19938153  0.26857257  1  0.647498  0  0.302229  0.401709  0  0.931264  0
H  H19  1  0.02209632  0.30061454  0.23142585  1  0.647544  0  0.302216  0.401786  0  0.931211  0
H  H20  1  0.64034467  0.72402994  0.70354176  1  0.653378  0  0.302382  0.40048  0  0.936463  0
H  H21  1  0.14034024  0.77597167  0.79645781  1  0.653414  0  0.302407  0.400516  0  0.936438  0
H  H22  1  0.35964266  0.27596171  0.29645499  1  0.653316  0  0.30237  0.400474  0  0.936479  0
H  H23  1  0.85965258  0.22403167  0.20354167  1  0.653388  0  0.302371  0.400458  0  0.936495  0
H  H24  1  0.23982900  0.56324564  0.77621657  1  0.648416  0  0.291684  0.397795  0  0.939532  0
H  H25  1  0.73982651  0.93675657  0.72378986  1  0.648412  0  0.291692  0.397871  0  0.939452  0
H  H26  1  0.76016793  0.43676087  0.22378750  1  0.648409  0  0.291673  0.397831  0  0.939476  0
H  H27  1  0.26017453  0.06324551  0.27621254  1  0.648411  0  0.291707  0.39787  0  0.939445  0
H  H28  1  0.33229720  0.62551669  0.72792058  1  0.625047  0  0.298652  0.395772  0  0.93847  0
H  H29  1  0.83228253  0.87448181  0.77208071  1  0.627096  0  0.298592  0.395666  0  0.938654  0
H  H30  1  0.66770110  0.37449133  0.27208474  1  0.627081  0  0.298636  0.395731  0  0.938545  0
H  H31  1  0.16770754  0.12551436  0.22791928  1  0.625031  0  0.29865  0.395707  0  0.938557  0
H  H32  1  0.13846991  0.95474213  0.05981278  1  0.133857  0  0.118586  0.13663  0  1.002422  0
H  H33  1  0.63850669  0.54526486  0.44018689  1  0.127409  0  0.11852  0.136611  0  1.002382  0
H  H34  1  0.86151331  0.04526768  0.94018661  1  0.134113  0  0.118518  0.136567  0  1.002392  0
H  H35  1  0.36150120  0.45472566  0.55980298  1  0.127447  0  0.118524  0.136632  0  1.002332  0
H  H36  1  0.35425660  0.96559323  0.16553267  1  0.143273  0  0.114275  0.120769  0  1.023688  0
H  H37  1  0.85428615  0.53441128  0.33446932  1  0.143345  0  0.114299  0.120697  0  1.023785  0
H  H38  1  0.64573622  0.03442325  0.83446974  1  0.143255  0  0.114313  0.120732  0  1.023799  0
H  H39  1  0.14572037  0.46558941  0.66552202  1  0.143526  0  0.114368  0.120815  0  1.023757  0
H  H40  1  0.65770557  0.88101687  0.14384037  1  0.119474  0  0.117859  0.131119  0  0.980319  0
H  H41  1  0.15774301  0.61897707  0.35615948  1  0.119269  0  0.117865  0.131052  0  0.980458  0
H  H42  1  0.34227629  0.11898739  0.85616234  1  0.119154  0  0.117851  0.131088  0  0.980395  0
H  H43  1  0.84226899  0.38101977  0.64383957  1  0.119368  0  0.117804  0.130984  0  0.980357  0
H  H44  1  0.40313949  0.34444822  0.91619007  1  0.124956  0  0.111452  0.120001  0  1.03257  0
H  H45  1  0.90314875  0.15555557  0.58380932  1  0.125198  0  0.111503  0.120059  0  1.032656  0
H  H46  1  0.59688210  0.65555942  0.08382088  1  0.124736  0  0.11144  0.119965  0  1.032671  0
H  H47  1  0.09687147  0.84444382  0.41618441  1  0.125085  0  0.111426  0.11994  0  1.032744  0
H  H48  1  0.68451165  0.25312077  0.85956832  1  0.096951  0  0.108484  0.108865  0  1.005783  0
H  H49  1  0.18452338  0.24688167  0.64043645  1  0.096896  0  0.108493  0.108924  0  1.005673  0
H  H50  1  0.31551268  0.74688220  0.14044867  1  0.096729  0  0.108491  0.108895  0  1.005685  0
H  H51  1  0.81551192  0.75311750  0.35955364  1  0.096699  0  0.108508  0.108901  0  1.005702  0
H  H52  1  0.92433761  0.34519071  0.80776888  1  0.096913  0  0.116789  0.130317  0  0.986302  0
H  H53  1  0.42433778  0.15479958  0.69223528  1  0.097169  0  0.116781  0.130325  0  0.986354  0
H  H54  1  0.07567713  0.65480209  0.19223475  1  0.096863  0  0.116721  0.130238  0  0.986265  0
H  H55  1  0.57568381  0.84519432  0.30776283  1  0.097104  0  0.116705  0.130195  0  0.986301  0
C  C56  1  0.21341378  0.85686735  0.92149226  1  1.620642  0  0.230451  0.574894  0  4.197077  0
C  C57  1  0.71344519  0.64313367  0.57850416  1  1.621016  0  0.230593  0.57501  0  4.196437  0
C  C58  1  0.78657766  0.14313381  0.07850690  1  1.62124  0  0.230589  0.575088  0  4.196583  0
C  C59  1  0.28654900  0.35685834  0.42148644  1  1.621573  0  0.230804  0.575282  0  4.196854  0
C  C60  1  0.33187338  0.86952458  0.98698560  1  0.493785  0  0.122562  0.119093  0  3.983857  0
C  C61  1  0.83189645  0.63047275  0.51300828  1  0.493276  0  0.122586  0.119278  0  3.983685  0
C  C62  1  0.66809888  0.13046790  0.01301282  1  0.493027  0  0.122532  0.119175  0  3.983555  0
C  C63  1  0.16810870  0.36951789  0.48698367  1  0.492829  0  0.122539  0.119019  0  3.983824  0
C  C64  1  0.27406498  0.92140627  0.05424141  1  0.014985  0  -0.065712  -0.124459  0  3.897463  0
C  C65  1  0.77410797  0.57859214  0.44574777  1  0.021808  0  -0.065805  -0.124685  0  3.897828  0
C  C66  1  0.72590865  0.07859613  0.94575431  1  0.014821  0  -0.065645  -0.124475  0  3.897818  0
C  C67  1  0.22589033  0.42140630  0.55424221  1  0.021757  0  -0.065705  -0.12444  0  3.897651  0
C  C68  1  0.39280418  0.92715101  0.11170377  1  -0.099781  0  -0.065787  -0.04391  0  3.940475  0
C  C69  1  0.89286067  0.57285018  0.38829467  1  -0.09988  0  -0.065922  -0.043957  0  3.941047  0
C  C70  1  0.60717767  0.07285962  0.88829728  1  -0.099612  0  -0.065943  -0.043941  0  3.941322  0
C  C71  1  0.10715818  0.42714141  0.61170104  1  -0.100162  0  -0.065959  -0.043986  0  3.940868  0
C  C72  1  0.56211614  0.87976344  0.10047287  1  -0.014526  0  -0.063553  -0.109602  0  3.890652  0
C  C73  1  0.06217436  0.62023848  0.39953118  1  -0.015389  0  -0.063449  -0.109322  0  3.890834  0
C  C74  1  0.43786160  0.12023842  0.89952587  1  -0.015034  0  -0.063522  -0.109539  0  3.890965  0
C  C75  1  0.93783216  0.37976028  0.60046402  1  -0.015164  0  -0.063448  -0.109358  0  3.890938  0
C  C76  1  0.60487639  0.82588477  0.03206663  1  0.486894  0  0.122838  0.12563  0  3.970036  0
C  C77  1  0.10490786  0.67411562  0.46793981  1  0.487359  0  0.122914  0.125508  0  3.970074  0
C  C78  1  0.39509587  0.17411004  0.96793471  1  0.487377  0  0.122859  0.125535  0  3.96994  0
C  C79  1  0.89509043  0.32588065  0.53206174  1  0.486505  0  0.122955  0.125477  0  3.970347  0
C  C80  1  0.76746272  0.75874558  0.01532510  1  1.585593  0  0.207307  0.550609  0  4.222672  0
C  C81  1  0.26749430  0.74125577  0.48467639  1  1.585489  0  0.207355  0.550595  0  4.222887  0
C  C82  1  0.23252873  0.24126260  0.98468282  1  1.585524  0  0.207299  0.550613  0  4.222622  0
C  C83  1  0.73250948  0.25873143  0.51531816  1  1.585868  0  0.207263  0.550645  0  4.222948  0
C  C84  1  0.34100599  0.54185598  0.93062688  1  1.5973  0  0.213804  0.562795  0  4.192377  0
C  C85  1  0.84101727  0.95815122  0.56937619  1  1.597861  0  0.213809  0.562778  0  4.19222  0
C  C86  1  0.65900464  0.45814515  0.06937176  1  1.596933  0  0.214022  0.563069  0  4.192145  0
C  C87  1  0.15899336  0.04185487  0.43063298  1  1.596902  0  0.213825  0.562764  0  4.192338  0
C  C88  1  0.49240036  0.47774011  0.89293545  1  0.531888  0  0.128591  0.14287  0  3.936176  0
C  C89  1  0.99240696  0.02226334  0.60706652  1  0.531996  0  0.128685  0.14299  0  3.936016  0
C  C90  1  0.50760890  0.52226203  0.10706799  1  0.531886  0  0.128595  0.142753  0  3.936397  0
C  C91  1  0.00760504  0.97773643  0.39293347  1  0.531914  0  0.128602  0.142831  0  3.93615  0
C  C92  1  0.50978733  0.37942255  0.89209371  1  -0.035222  0  -0.066781  -0.104792  0  3.88065  0
C  C93  1  0.00979595  0.12058484  0.60790549  1  -0.035495  0  -0.066847  -0.104883  0  3.880879  0
C  C94  1  0.49022604  0.62058260  0.10791171  1  -0.035044  0  -0.066775  -0.104676  0  3.880768  0
C  C95  1  0.99023387  0.87941522  0.39208731  1  -0.035419  0  -0.06675  -0.104685  0  3.881127  0
C  C96  1  0.66591075  0.32986509  0.86090041  1  -0.013543  0  -0.071248  -0.045649  0  3.989546  0
C  C97  1  0.16591305  0.17013676  0.63910477  1  -0.013552  0  -0.071216  -0.04566  0  3.989659  0
C  C98  1  0.33410673  0.67013813  0.13910886  1  -0.013498  0  -0.071129  -0.045597  0  3.989357  0
C  C99  1  0.83411676  0.82986165  0.36089657  1  -0.013292  0  -0.071128  -0.045511  0  3.989886  0
C  C100  1  0.79851063  0.37979320  0.83145131  1  -0.058545  0  -0.071118  -0.135301  0  3.952336  0
C  C101  1  0.29851274  0.12020851  0.66855186  1  -0.058921  0  -0.071197  -0.135377  0  3.952187  0
C  C102  1  0.20150548  0.62020685  0.16855337  1  -0.058416  0  -0.071147  -0.135324  0  3.95213  0
C  C103  1  0.70151159  0.87978334  0.33144802  1  -0.059018  0  -0.071187  -0.135333  0  3.952268  0
C  C104  1  0.76582752  0.47725784  0.83201181  1  0.532638  0  0.125866  0.122009  0  3.977851  0
C  C105  1  0.26582885  0.02273897  0.66799063  1  0.532694  0  0.125894  0.122126  0  3.977576  0
C  C106  1  0.23417215  0.52274023  0.16798381  1  0.532599  0  0.125837  0.122092  0  3.977666  0
C  C107  1  0.73417356  0.97725619  0.33201644  1  0.533168  0  0.125876  0.122001  0  3.977793  0
C  C108  1  0.89718435  0.53756304  0.80025674  1  1.604123  0  0.229655  0.57209  0  4.200557  0
C  C109  1  0.39720439  0.96243396  0.69973764  1  1.603734  0  0.2297  0.572034  0  4.200504  0
C  C110  1  0.10281942  0.46244122  0.19974597  1  1.603709  0  0.229617  0.572044  0  4.200607  0
C  C111  1  0.60282406  0.03756445  0.30026370  1  1.603707  0  0.229605  0.57193  0  4.200914  0
N  N112  1  0.49249167  0.82263648  0.97669712  1  -1.242001  0  -0.370075  -0.37081  0  3.552222  0
N  N113  1  0.99251248  0.67736253  0.52330328  1  -1.241378  0  -0.369984  -0.370667  0  3.552189  0
N  N114  1  0.50748607  0.17736231  0.02329859  1  -1.241799  0  -0.369988  -0.370647  0  3.552232  0
N  N115  1  0.00748582  0.32263064  0.47669472  1  -1.241476  0  -0.370076  -0.370718  0  3.552298  0
N  N116  1  0.61588864  0.52415644  0.86191496  1  -1.233623  0  -0.374119  -0.345411  0  3.514577  0
N  N117  1  0.11589983  0.97584168  0.63808409  1  -1.233646  0  -0.374157  -0.345597  0  3.514601  0
N  N118  1  0.38411788  0.47584551  0.13808535  1  -1.233528  0  -0.374114  -0.345482  0  3.514762  0
N  N119  1  0.88410943  0.02415276  0.36191099  1  -1.233533  0  -0.374144  -0.34541  0  3.514625  0
O  O120  1  0.28643330  0.80862565  0.86328477  1  -1.190606  0  -0.361756  -0.623079  0  2.284777  0
O  O121  1  0.78646406  0.69138059  0.63670935  1  -1.190294  0  -0.361815  -0.623086  0  2.284732  0
O  O122  1  0.71356225  0.19137908  0.13671388  1  -1.190704  0  -0.361786  -0.623213  0  2.284697  0
O  O123  1  0.21351368  0.30861568  0.36328032  1  -1.190632  0  -0.361858  -0.623091  0  2.284765  0
O  O124  1  0.05561310  0.89297964  0.92934929  1  -1.176546  0  -0.297499  -0.515314  0  2.190464  0
O  O125  1  0.55564793  0.60701085  0.57064914  1  -1.17705  0  -0.29771  -0.515647  0  2.190034  0
O  O126  1  0.94436739  0.10702143  0.07066019  1  -1.176545  0  -0.297632  -0.515449  0  2.190413  0
O  O127  1  0.44432982  0.39298049  0.42934240  1  -1.176789  0  -0.297875  -0.51583  0  2.19051  0
O  O128  1  0.77788350  0.70537513  0.95257123  1  -1.177774  0  -0.372948  -0.63547  0  2.335647  0
O  O129  1  0.27790470  0.79462572  0.54742830  1  -1.177886  0  -0.372889  -0.635421  0  2.335667  0
O  O130  1  0.22211343  0.29463048  0.04743013  1  -1.178115  0  -0.372858  -0.635396  0  2.335944  0
O  O131  1  0.72207852  0.20536966  0.45257053  1  -1.178194  0  -0.372716  -0.635205  0  2.335926  0
O  O132  1  0.87648603  0.75488793  0.06585121  1  -1.113954  0  -0.325717  -0.508849  0  2.254817  0
O  O133  1  0.37651862  0.74511074  0.43415150  1  -1.113938  0  -0.325788  -0.508842  0  2.254894  0
O  O134  1  0.12347664  0.24509694  0.93415230  1  -1.113475  0  -0.325731  -0.508894  0  2.254605  0
O  O135  1  0.62343720  0.25489958  0.56584434  1  -1.113379  0  -0.325847  -0.509046  0  2.254713  0
O  O136  1  0.34082146  0.62978124  0.92583133  1  -1.178223  0  -0.375656  -0.636411  0  2.32451  0
O  O137  1  0.84080988  0.87022688  0.57416308  1  -1.178018  0  -0.375627  -0.63634  0  2.324398  0
O  O138  1  0.65918506  0.37022261  0.07416460  1  -1.178157  0  -0.375703  -0.63645  0  2.324554  0
O  O139  1  0.15918979  0.12977447  0.42583921  1  -1.178064  0  -0.375579  -0.636298  0  2.32465  0
O  O140  1  0.22747890  0.50621650  0.96732285  1  -1.125889  0  -0.317204  -0.520142  0  2.370284  0
O  O141  1  0.72747829  0.99380105  0.53268631  1  -1.126637  0  -0.317278  -0.520228  0  2.370075  0
O  O142  1  0.77253721  0.49379641  0.03268008  1  -1.125659  0  -0.317359  -0.520318  0  2.370223  0
O  O143  1  0.27253234  0.00620229  0.46732505  1  -1.125753  0  -0.317299  -0.520185  0  2.370039  0
O  O144  1  0.83773378  0.62148073  0.79610191  1  -1.182525  0  -0.362902  -0.615405  0  2.26298  0
O  O145  1  0.33773634  0.87852728  0.70390230  1  -1.182422  0  -0.36285  -0.615313  0  2.263009  0
O  O146  1  0.16226178  0.37852435  0.20390247  1  -1.182426  0  -0.362828  -0.615329  0  2.263057  0
O  O147  1  0.66227155  0.12146892  0.29609820  1  -1.182435  0  -0.362869  -0.615259  0  2.263218  0
O  O148  1  0.05134791  0.50151139  0.78072735  1  -1.178309  0  -0.301205  -0.525682  0  2.170857  0
O  O149  1  0.55137292  0.99848661  0.71926390  1  -1.178068  0  -0.301238  -0.525694  0  2.170711  0
O  O150  1  0.94864080  0.49848583  0.21926607  1  -1.177869  0  -0.301216  -0.525737  0  2.170835  0
O  O151  1  0.44864319  0.00151361  0.28074339  1  -1.178334  0  -0.301191  -0.525725  0  2.170794  0
O  O152  1  0.75200768  0.85013352  0.86186304  1  -1.254592  0  -0.612232  -0.826569  0  2.140183  0
O  O153  1  0.25202273  0.64986524  0.63813514  1  -1.254623  0  -0.612238  -0.826637  0  2.140042  0
O  O154  1  0.24798513  0.14986768  0.13813664  1  -1.254582  0  -0.612213  -0.826627  0  2.14017  0
O  O155  1  0.74797694  0.35013302  0.36186360  1  -1.254682  0  -0.612256  -0.826608  0  2.140028  0
O  O156  1  0.55075338  0.74688168  0.74316982  1  -1.302523  0  -0.661135  -0.849805  0  2.086319  0
O  O157  1  0.05075878  0.75311879  0.75682644  1  -1.302552  0  -0.661215  -0.849961  0  2.086189  0
O  O158  1  0.44924766  0.25311661  0.25682944  1  -1.302422  0  -0.661091  -0.849804  0  2.086226  0
O  O159  1  0.94924089  0.24687789  0.24317001  1  -1.302517  0  -0.661131  -0.849897  0  2.086131  0
O  O160  1  0.35728097  0.59548476  0.76788416  1  -1.275197  0  -0.659385  -0.864407  0  2.068826  0
O  O161  1  0.85726958  0.90450928  0.73211701  1  -1.277284  0  -0.659368  -0.864441  0  2.068871  0
O  O162  1  0.64270774  0.40452695  0.23212273  1  -1.277276  0  -0.659358  -0.864378  0  2.068725  0
O  O163  1  0.14272324  0.09548247  0.26788130  1  -1.275241  0  -0.659439  -0.864396  0  2.068852  0
