# generated using pymatgen
data_ZnH12C10(NO3)2
_symmetry_space_group_name_H-M   'P 1'
_cell_length_a   6.67487047
_cell_length_b   12.76539876
_cell_length_c   14.42020000
_cell_angle_alpha   90.00000000
_cell_angle_beta   90.00000000
_cell_angle_gamma   90.00000000
_symmetry_Int_Tables_number   1
_chemical_formula_structural   ZnH12C10(NO3)2
_chemical_formula_sum   'Zn4 H48 C40 N8 O24'
_cell_volume   1228.70750883
_cell_formula_units_Z   4
loop_
 _symmetry_equiv_pos_site_id
 _symmetry_equiv_pos_as_xyz
  1  'x, y, z'
loop_
 _atom_site_type_symbol
 _atom_site_label
 _atom_site_symmetry_multiplicity
 _atom_site_fract_x
 _atom_site_fract_y
 _atom_site_fract_z
 _atom_site_occupancy
 _atom_site_hle17_bader_spin_density
 _atom_site_hle17_ddec_charge
 _atom_site_hle17_ddec_spin_density
 _atom_site_hle17_ddec_sum_bond_order
 _atom_site_hle17_magmom
 _atom_site_hse06_10hf_bader_spin_density
 _atom_site_hse06_10hf_ddec_charge
 _atom_site_hse06_10hf_ddec_spin_density
 _atom_site_hse06_10hf_ddec_sum_bond_order
 _atom_site_hse06_10hf_magmom
 _atom_site_hse06_bader_spin_density
 _atom_site_hse06_ddec_charge
 _atom_site_hse06_ddec_spin_density
 _atom_site_hse06_ddec_sum_bond_order
 _atom_site_hse06_magmom
 _atom_site_pbe_bader_charge
 _atom_site_pbe_bader_spin_density
 _atom_site_pbe_cm5_charge
 _atom_site_pbe_ddec_charge
 _atom_site_pbe_ddec_spin_density
 _atom_site_pbe_ddec_sum_bond_order
 _atom_site_pbe_magmom
Zn  Zn0  1  0.34090999  0.19193447  0.45732514  1  0  1.132037  0  1.740574  0  0  0.960242  0  2.20966  0  0  1.012062  0  2.146116  0  1.323702  0  0.686021  0.923656  0  2.25344  0
Zn  Zn1  1  0.84090621  0.80806641  0.04267208  1  0  1.132059  0  1.740532  0  0  0.960276  0  2.209578  0  0  1.012098  0  2.146034  0  1.32372  0  0.686053  0.92369  0  2.253359  0
Zn  Zn2  1  0.65909144  0.30806637  0.95732722  1  0  1.132025  0  1.740571  0  0  0.960222  0  2.209651  0  0  1.01204  0  2.146106  0  1.323741  0  0.686021  0.923635  0  2.253433  0
Zn  Zn3  1  0.15908923  0.69193373  0.54267486  1  0  1.132037  0  1.740572  0  0  0.960247  0  2.209669  0  0  1.012069  0  2.146125  0  1.323598  0  0.686018  0.92366  0  2.253452  0
H  H4  1  0.16606465  0.42973981  0.77948641  1  0  0.072567  0  0.918723  0  0  0.081604  0  0.978815  0  0  0.083234  0  0.977618  0  0.091033  0  0.115347  0.080343  0  0.979858  0
H  H5  1  0.66606386  0.57025794  0.72051359  1  0  0.072493  0  0.918742  0  0  0.081569  0  0.97881  0  0  0.083202  0  0.977607  0  0.091002  0  0.115316  0.080308  0  0.979856  0
H  H6  1  0.83393678  0.07025789  0.27948780  1  0  0.072506  0  0.918776  0  0  0.081567  0  0.978818  0  0  0.083199  0  0.977616  0  0.090995  0  0.115318  0.080305  0  0.979864  0
H  H7  1  0.33393607  0.92974064  0.22051289  1  0  0.072565  0  0.91872  0  0  0.081604  0  0.978815  0  0  0.083234  0  0.977615  0  0.091024  0  0.115335  0.080345  0  0.979858  0
H  H8  1  0.28895692  0.23845084  0.75613168  1  0  0.325642  0  0.917169  0  0  0.303625  0  0.985963  0  0  0.312628  0  0.978505  0  0.55027  0  0.310975  0.297238  0  0.991335  0
H  H9  1  0.78895314  0.76154691  0.74386763  1  0  0.325583  0  0.917232  0  0  0.303572  0  0.986011  0  0  0.312571  0  0.97856  0  0.55036  0  0.310978  0.297188  0  0.991381  0
H  H10  1  0.71104601  0.26154686  0.25613237  1  0  0.325596  0  0.917235  0  0  0.303583  0  0.986014  0  0  0.312583  0  0.978562  0  0.550359  0  0.310973  0.297197  0  0.991385  0
H  H11  1  0.21104230  0.73845088  0.24386832  1  0  0.32565  0  0.917151  0  0  0.303627  0  0.985951  0  0  0.31263  0  0.978493  0  0.550249  0  0.310963  0.297242  0  0.991323  0
H  H12  1  0.07001035  0.02733561  0.63417012  1  0  0.077115  0  0.928068  0  0  0.086835  0  0.987875  0  0  0.088303  0  0.987501  0  0.101767  0  0.115954  0.085783  0  0.988255  0
H  H13  1  0.57000956  0.97266527  0.86582988  1  0  0.077078  0  0.928083  0  0  0.086838  0  0.987923  0  0  0.088307  0  0.987551  0  0.101783  0  0.115939  0.085787  0  0.988299  0
H  H14  1  0.92998958  0.47266600  0.13417012  1  0  0.077037  0  0.928082  0  0  0.086787  0  0.987923  0  0  0.088256  0  0.987552  0  0.101791  0  0.115968  0.085736  0  0.9883  0
H  H15  1  0.42999037  0.52733723  0.36582918  1  0  0.077135  0  0.928087  0  0  0.086843  0  0.987882  0  0  0.088311  0  0.987508  0  0.101744  0  0.115945  0.085792  0  0.988262  0
H  H16  1  0.94218907  0.01132828  0.46599007  1  0  0.319303  0  0.864966  0  0  0.302543  0  0.923779  0  0  0.310572  0  0.917575  0  0.506645  0  0.324877  0.296833  0  0.928297  0
H  H17  1  0.44218686  0.98867103  0.03400993  1  0  0.3193  0  0.864973  0  0  0.302561  0  0.923777  0  0  0.310589  0  0.917573  0  0.50689  0  0.32488  0.29685  0  0.928296  0
H  H18  1  0.05781086  0.48867177  0.96599007  1  0  0.319294  0  0.864972  0  0  0.302546  0  0.923782  0  0  0.310575  0  0.917577  0  0.506652  0  0.324879  0.296835  0  0.9283  0
H  H19  1  0.55781007  0.51132911  0.53400993  1  0  0.319266  0  0.86504  0  0  0.302523  0  0.923814  0  0  0.310554  0  0.917606  0  0.50665  0  0.324876  0.296814  0  0.928332  0
H  H20  1  0.10193157  0.39269279  0.54271508  1  0  0.127428  0  0.915696  0  0  0.143394  0  0.969531  0  0  0.146315  0  0.968164  0  0.108394  0  0.109671  0.14125  0  0.970656  0
H  H21  1  0.60193677  0.60730731  0.95728561  1  0  0.127426  0  0.915648  0  0  0.143356  0  0.96951  0  0  0.14628  0  0.968149  0  0.108407  0  0.109661  0.141216  0  0.970634  0
H  H22  1  0.89806836  0.10730726  0.04271577  1  0  0.127437  0  0.915698  0  0  0.143365  0  0.969553  0  0  0.146289  0  0.968192  0  0.108406  0  0.109664  0.141225  0  0.970672  0
H  H23  1  0.39806915  0.89269283  0.45728492  1  0  0.127475  0  0.915709  0  0  0.143379  0  0.969548  0  0  0.146293  0  0.968182  0  0.108411  0  0.109671  0.141238  0  0.970669  0
H  H24  1  0.89596195  0.30637429  0.54508537  1  0  0.118386  0  0.922841  0  0  0.131975  0  0.981751  0  0  0.13442  0  0.981201  0  0.060091  0  0.104275  0.130199  0  0.982211  0
H  H25  1  0.39596274  0.69362346  0.95491463  1  0  0.11838  0  0.922898  0  0  0.131972  0  0.981785  0  0  0.134421  0  0.981237  0  0.060116  0  0.104281  0.130199  0  0.982245  0
H  H26  1  0.10404097  0.19362341  0.04508675  1  0  0.118399  0  0.922895  0  0  0.131988  0  0.981788  0  0  0.134437  0  0.98124  0  0.060124  0  0.104286  0.130195  0  0.982271  0
H  H27  1  0.60404019  0.80637434  0.45491394  1  0  0.118463  0  0.922841  0  0  0.131992  0  0.981747  0  0  0.13443  0  0.981195  0  0.060083  0  0.10429  0.130213  0  0.982215  0
H  H28  1  0.93854106  0.48609919  0.66491935  1  0  0.094401  0  0.952712  0  0  0.107025  0  1.018577  0  0  0.109348  0  1.01715  0  0.062327  0  0.096467  0.105288  0  1.019702  0
H  H29  1  0.43854034  0.51389699  0.83508204  1  0  0.09439  0  0.952657  0  0  0.107002  0  1.018525  0  0  0.109328  0  1.017095  0  0.062301  0  0.096443  0.105266  0  1.019648  0
H  H30  1  0.06145887  0.01389851  0.16491935  1  0  0.09437  0  0.952707  0  0  0.107002  0  1.018586  0  0  0.109327  0  1.017158  0  0.062322  0  0.096452  0.105265  0  1.019709  0
H  H31  1  0.56145958  0.98609846  0.33508065  1  0  0.094325  0  0.952707  0  0  0.106996  0  1.018539  0  0  0.109319  0  1.017112  0  0.062343  0  0.096436  0.105261  0  1.019664  0
H  H32  1  0.77600157  0.37938572  0.68857852  1  0  0.082573  0  0.924785  0  0  0.10057  0  0.981071  0  0  0.102075  0  0.980549  0  0.029437  0  0.09638  0.099353  0  0.981595  0
H  H33  1  0.27600386  0.62061203  0.81142148  1  0  0.082588  0  0.924788  0  0  0.100569  0  0.981074  0  0  0.102078  0  0.980547  0  0.029472  0  0.096369  0.09933  0  0.98162  0
H  H34  1  0.22399835  0.12061198  0.18857991  1  0  0.082572  0  0.924791  0  0  0.100573  0  0.981086  0  0  0.102077  0  0.980564  0  0.02941  0  0.096373  0.099355  0  0.98161  0
H  H35  1  0.72399607  0.87938498  0.31142078  1  0  0.082574  0  0.924761  0  0  0.100575  0  0.981063  0  0  0.102078  0  0.980542  0  0.02944  0  0.096383  0.09936  0  0.981585  0
H  H36  1  0.67455541  0.16858776  0.65256862  1  0  0.121758  0  0.905747  0  0  0.141142  0  0.955369  0  0  0.143238  0  0.955331  0  0.104413  0  0.110707  0.139584  0  0.955576  0
H  H37  1  0.17455620  0.83141234  0.84743138  1  0  0.121786  0  0.905693  0  0  0.141152  0  0.955331  0  0  0.143248  0  0.955292  0  0.104426  0  0.110709  0.139594  0  0.95554  0
H  H38  1  0.32544152  0.33141307  0.15256862  1  0  0.121779  0  0.905725  0  0  0.141149  0  0.955362  0  0  0.143245  0  0.955323  0  0.104426  0  0.110719  0.13959  0  0.955569  0
H  H39  1  0.82544523  0.66858859  0.34743138  1  0  0.121753  0  0.905731  0  0  0.141137  0  0.955348  0  0  0.143233  0  0.95531  0  0.104407  0  0.110713  0.13958  0  0.955556  0
H  H40  1  0.47304289  0.08204836  0.64104936  1  0  0.119908  0  0.960799  0  0  0.130031  0  1.025383  0  0  0.133559  0  1.022848  0  0.066533  0  0.103927  0.127497  0  1.027258  0
H  H41  1  0.97304060  0.91795174  0.85894995  1  0  0.119903  0  0.960792  0  0  0.130013  0  1.025393  0  0  0.133539  0  1.02286  0  0.06651  0  0.103921  0.12748  0  1.027267  0
H  H42  1  0.52695704  0.41795169  0.14105075  1  0  0.119908  0  0.960789  0  0  0.130035  0  1.025365  0  0  0.13356  0  1.022833  0  0.066535  0  0.103921  0.127502  0  1.027239  0
H  H43  1  0.02695783  0.58204762  0.35895064  1  0  0.119925  0  0.960752  0  0  0.130034  0  1.025357  0  0  0.133563  0  1.022821  0  0.066536  0  0.103933  0.127501  0  1.027232  0
H  H44  1  0.81239329  0.03240792  0.74909502  1  0  0.090603  0  0.936179  0  0  0.107835  0  0.995138  0  0  0.108932  0  0.995591  0  0.059567  0  0.100148  0.106962  0  0.994978  0
H  H45  1  0.31239408  0.96759218  0.75090429  1  0  0.090682  0  0.936107  0  0  0.107892  0  0.995082  0  0  0.108984  0  0.99554  0  0.059556  0  0.100171  0.107019  0  0.994924  0
H  H46  1  0.18760664  0.46759448  0.24909571  1  0  0.090632  0  0.936184  0  0  0.107898  0  0.9951  0  0  0.10899  0  0.995558  0  0.05957  0  0.100181  0.107024  0  0.994943  0
H  H47  1  0.68760735  0.53240797  0.25090429  1  0  0.090684  0  0.936108  0  0  0.107898  0  0.995086  0  0  0.108996  0  0.995536  0  0.059551  0  0.100174  0.107026  0  0.994925  0
H  H48  1  0.67085946  0.93356974  0.69087183  1  0  0.088953  0  0.94196  0  0  0.101631  0  1.00981  0  0  0.103709  0  1.00867  0  0.060594  0  0.097006  0.100056  0  1.010784  0
H  H49  1  0.17085875  0.06643036  0.80912817  1  0  0.088939  0  0.941995  0  0  0.101622  0  1.00983  0  0  0.1037  0  1.008689  0  0.060593  0  0.097001  0.100048  0  1.010803  0
H  H50  1  0.32914197  0.56643119  0.19086975  1  0  0.088984  0  0.941946  0  0  0.101645  0  1.009807  0  0  0.103722  0  1.008666  0  0.060599  0  0.09701  0.100072  0  1.010778  0
H  H51  1  0.82913819  0.43357126  0.30912955  1  0  0.088988  0  0.941939  0  0  0.101658  0  1.009799  0  0  0.103736  0  1.008658  0  0.060632  0  0.097038  0.100085  0  1.01077  0
C  C52  1  0.15074749  0.26086925  0.62836022  1  0  0.622607  0  3.745041  0  0  0.574973  0  4.035159  0  0  0.604878  0  4.034375  0  1.397568  0  0.256623  0.554684  0  4.035181  0
C  C53  1  0.65074671  0.73913006  0.87163909  1  0  0.622602  0  3.745102  0  0  0.574928  0  4.035236  0  0  0.604839  0  4.034457  0  1.397806  0  0.256642  0.55464  0  4.035264  0
C  C54  1  0.84925693  0.23913002  0.12836022  1  0  0.622628  0  3.74499  0  0  0.574939  0  4.035164  0  0  0.604848  0  4.034386  0  1.39782  0  0.256607  0.554647  0  4.035195  0
C  C55  1  0.34925322  0.76086930  0.37163978  1  0  0.622668  0  3.745096  0  0  0.57497  0  4.03522  0  0  0.604868  0  4.034434  0  1.397856  0  0.256611  0.554683  0  4.035242  0
C  C56  1  0.01177551  0.34246952  0.58862637  1  0  -0.260585  0  3.650134  0  0  -0.300616  0  3.90725  0  0  -0.306063  0  3.914992  0  -0.038778  0  -0.158398  -0.296801  0  3.901824  0
C  C57  1  0.51177772  0.65753058  0.91137363  1  0  -0.260631  0  3.650252  0  0  -0.3006  0  3.907275  0  0  -0.306071  0  3.915049  0  -0.038815  0  -0.158412  -0.296789  0  3.901852  0
C  C58  1  0.98822592  0.15752974  0.08862706  1  0  -0.260624  0  3.650333  0  0  -0.300575  0  3.907393  0  0  -0.306047  0  3.915169  0  -0.038855  0  -0.158385  -0.29675  0  3.901981  0
C  C59  1  0.48822520  0.84246800  0.41137363  1  0  -0.260835  0  3.650418  0  0  -0.30063  0  3.907344  0  0  -0.306046  0  3.915054  0  -0.038786  0  -0.158418  -0.296812  0  3.901919  0
C  C60  1  0.93213944  0.40110302  0.67411548  1  0  -0.126502  0  3.599703  0  0  -0.176437  0  3.863578  0  0  -0.176704  0  3.874154  0  -0.012423  0  -0.154963  -0.176001  0  3.85621  0
C  C61  1  0.43214172  0.59889473  0.82588522  1  0  -0.126547  0  3.599666  0  0  -0.176446  0  3.863474  0  0  -0.176714  0  3.874061  0  -0.012473  0  -0.154925  -0.175989  0  3.856109  0
C  C62  1  0.06786049  0.09889546  0.17411548  1  0  -0.126405  0  3.599728  0  0  -0.176422  0  3.863629  0  0  -0.176685  0  3.874215  0  -0.012422  0  -0.154929  -0.17598  0  3.856255  0
C  C63  1  0.56786121  0.90110229  0.32588522  1  0  -0.126375  0  3.599644  0  0  -0.17642  0  3.863529  0  0  -0.176697  0  3.8741  0  -0.012427  0  -0.154941  -0.175985  0  3.856159  0
C  C64  1  0.06866800  0.36548800  0.75596802  1  0  0.050842  0  3.588337  0  0  0.033822  0  3.827606  0  0  0.03374  0  3.83963  0  0.322724  0  0.020147  0.033857  0  3.819418  0
C  C65  1  0.56867021  0.63451054  0.74403198  1  0  0.051015  0  3.588241  0  0  0.033951  0  3.827544  0  0  0.033866  0  3.839574  0  0.322765  0  0.020195  0.033988  0  3.819348  0
C  C66  1  0.93132893  0.13451049  0.25596871  1  0  0.05088  0  3.588376  0  0  0.033925  0  3.827554  0  0  0.033845  0  3.839575  0  0.322775  0  0.020166  0.03396  0  3.819364  0
C  C67  1  0.43133122  0.86548804  0.24403198  1  0  0.050778  0  3.588274  0  0  0.033756  0  3.827582  0  0  0.033675  0  3.839604  0  0.322627  0  0.020103  0.03379  0  3.819394  0
C  C68  1  0.94677792  0.32684995  0.83859933  1  0  0.620723  0  3.894906  0  0  0.57075  0  4.202785  0  0  0.602933  0  4.197331  0  1.570263  0  0.197522  0.548876  0  4.205765  0
C  C69  1  0.44677721  0.67314701  0.66140206  1  0  0.620568  0  3.894921  0  0  0.570586  0  4.202831  0  0  0.602767  0  4.197381  0  1.570216  0  0.197457  0.548713  0  4.205809  0
C  C70  1  0.05322201  0.17314853  0.33859863  1  0  0.6206  0  3.895061  0  0  0.570605  0  4.202936  0  0  0.602786  0  4.197484  0  1.570231  0  0.197454  0.548729  0  4.205917  0
C  C71  1  0.55322122  0.82685079  0.16139998  1  0  0.620785  0  3.894957  0  0  0.570808  0  4.20283  0  0  0.60299  0  4.197373  0  1.570194  0  0.197537  0.548933  0  4.205814  0
C  C72  1  0.69276400  0.07625535  0.53058834  1  0  0.612569  0  3.753969  0  0  0.567062  0  4.042546  0  0  0.596573  0  4.042919  0  1.3649  0  0.254843  0.547059  0  4.041677  0
C  C73  1  0.19276179  0.92374553  0.96941166  1  0  0.612516  0  3.754023  0  0  0.567028  0  4.042592  0  0  0.596538  0  4.042967  0  1.364834  0  0.254821  0.547025  0  4.041724  0
C  C74  1  0.30723742  0.42374548  0.03058834  1  0  0.612471  0  3.754003  0  0  0.566972  0  4.042582  0  0  0.596482  0  4.042958  0  1.364908  0  0.254799  0.546969  0  4.041713  0
C  C75  1  0.80723514  0.57625540  0.46941235  1  0  0.612536  0  3.754024  0  0  0.567043  0  4.042546  0  0  0.596554  0  4.042919  0  1.364899  0  0.254806  0.547041  0  4.041678  0
C  C76  1  0.63476438  0.08843907  0.63100859  1  0  -0.26255  0  3.672211  0  0  -0.301722  0  3.926083  0  0  -0.307195  0  3.933487  0  -0.018247  0  -0.159755  -0.297848  0  3.920809  0
C  C77  1  0.13476217  0.91156181  0.86899141  1  0  -0.262543  0  3.672155  0  0  -0.301682  0  3.925989  0  0  -0.307152  0  3.933394  0  -0.018174  0  -0.159738  -0.297809  0  3.920716  0
C  C78  1  0.36523555  0.41156176  0.13100859  1  0  -0.262517  0  3.672178  0  0  -0.301663  0  3.926034  0  0  -0.307134  0  3.93344  0  -0.018236  0  -0.159745  -0.297787  0  3.920759  0
C  C79  1  0.86523477  0.58843912  0.36899211  1  0  -0.262515  0  3.67216  0  0  -0.301686  0  3.926034  0  0  -0.307159  0  3.933438  0  -0.018227  0  -0.159761  -0.297811  0  3.92076  0
C  C80  1  0.75940500  0.00535745  0.68138029  1  0  -0.12516  0  3.622542  0  0  -0.17449  0  3.884103  0  0  -0.174906  0  3.895608  0  -0.035431  0  -0.154802  -0.173987  0  3.876209  0
C  C81  1  0.25940428  0.99464265  0.81861902  1  0  -0.125259  0  3.622466  0  0  -0.174514  0  3.884054  0  0  -0.174926  0  3.895559  0  -0.035425  0  -0.154825  -0.174017  0  3.876166  0
C  C82  1  0.24059493  0.49464416  0.18138098  1  0  -0.125314  0  3.622533  0  0  -0.174626  0  3.884171  0  0  -0.175035  0  3.895673  0  -0.035458  0  -0.154861  -0.174124  0  3.876275  0
C  C83  1  0.74059415  0.50535828  0.31861902  1  0  -0.125239  0  3.622573  0  0  -0.174588  0  3.884143  0  0  -0.175006  0  3.89565  0  -0.035465  0  -0.154847  -0.174087  0  3.876255  0
C  C84  1  0.93487507  0.98261404  0.61473281  1  0  0.042337  0  3.589962  0  0  0.024517  0  3.830907  0  0  0.023561  0  3.843825  0  0.298484  0  0.017994  0.025099  0  3.822217  0
C  C85  1  0.43487436  0.01738684  0.88526789  1  0  0.042448  0  3.589713  0  0  0.024414  0  3.831068  0  0  0.023455  0  3.843988  0  0.298495  0  0.01803  0.025005  0  3.822362  0
C  C86  1  0.06512636  0.51738768  0.11473211  1  0  0.042566  0  3.589796  0  0  0.024592  0  3.831077  0  0  0.023631  0  3.844  0  0.298478  0  0.018016  0.025177  0  3.822381  0
C  C87  1  0.56512707  0.48261555  0.38526719  1  0  0.042212  0  3.590191  0  0  0.024453  0  3.831019  0  0  0.023496  0  3.843937  0  0.298596  0  0.017972  0.025032  0  3.822339  0
C  C88  1  0.99775569  0.86808256  0.60879391  1  0  0.644059  0  3.872007  0  0  0.593571  0  4.174012  0  0  0.626905  0  4.167287  0  1.598865  0  0.211617  0.570918  0  4.177858  0
C  C89  1  0.49775498  0.13191832  0.89120609  1  0  0.644076  0  3.871702  0  0  0.593583  0  4.17382  0  0  0.626919  0  4.167093  0  1.598876  0  0.211596  0.570929  0  4.177669  0
C  C90  1  0.00224274  0.63191837  0.10879391  1  0  0.64393  0  3.871799  0  0  0.593391  0  4.173981  0  0  0.626727  0  4.167256  0  1.598891  0  0.211561  0.570738  0  4.177827  0
C  C91  1  0.50224046  0.36808408  0.39120470  1  0  0.644079  0  3.871977  0  0  0.593565  0  4.173989  0  0  0.626899  0  4.167259  0  1.598814  0  0.21161  0.570912  0  4.177836  0
N  N92  1  0.18752274  0.28108327  0.71695608  1  0  -0.407169  0  3.266964  0  0  -0.349911  0  3.501916  0  0  -0.37065  0  3.509299  0  -1.275855  0  -0.395042  -0.335947  0  3.496802  0
N  N93  1  0.68752645  0.71891448  0.78304392  1  0  -0.407092  0  3.266934  0  0  -0.349837  0  3.50193  0  0  -0.37057  0  3.509313  0  -1.275954  0  -0.395047  -0.335875  0  3.496815  0
N  N94  1  0.81247419  0.21891521  0.21695608  1  0  -0.407123  0  3.266853  0  0  -0.349882  0  3.501821  0  0  -0.37062  0  3.509205  0  -1.275934  0  -0.395044  -0.335916  0  3.496707  0
N  N95  1  0.31247498  0.78108332  0.28304462  1  0  -0.407134  0  3.266888  0  0  -0.349865  0  3.50186  0  0  -0.370605  0  3.509247  0  -1.275721  0  -0.394962  -0.3359  0  3.496745  0
N  N96  1  0.86185642  0.02106711  0.52554750  1  0  -0.404405  0  3.256987  0  0  -0.349438  0  3.496881  0  0  -0.369771  0  3.504961  0  -1.226192  0  -0.399695  -0.335685  0  3.491303  0
N  N97  1  0.36185421  0.97893377  0.97445250  1  0  -0.404414  0  3.256965  0  0  -0.349455  0  3.496986  0  0  -0.369786  0  3.505066  0  -1.226431  0  -0.399718  -0.3357  0  3.491405  0
N  N98  1  0.13814500  0.47893373  0.02554750  1  0  -0.404384  0  3.256914  0  0  -0.349408  0  3.496889  0  0  -0.369739  0  3.50497  0  -1.226204  0  -0.399696  -0.335653  0  3.491308  0
N  N99  1  0.63814272  0.52106794  0.47445250  1  0  -0.40433  0  3.257133  0  0  -0.349342  0  3.496917  0  0  -0.369679  0  3.504996  0  -1.226212  0  -0.399648  -0.335587  0  3.49134  0
O  O100  1  0.22421259  0.18266409  0.58602100  1  0  -0.632988  0  2.096189  0  0  -0.562908  0  2.365813  0  0  -0.589663  0  2.350995  0  -1.197284  0  -0.312433  -0.544497  0  2.375707  0
O  O101  1  0.72420431  0.81733757  0.91397761  1  0  -0.632976  0  2.096232  0  0  -0.562873  0  2.365855  0  0  -0.589632  0  2.351039  0  -1.197521  0  -0.312445  -0.544461  0  2.375748  0
O  O102  1  0.77579333  0.31733674  0.08602239  1  0  -0.633024  0  2.096189  0  0  -0.562912  0  2.365804  0  0  -0.589659  0  2.350975  0  -1.197527  0  -0.312443  -0.5445  0  2.375701  0
O  O103  1  0.27578812  0.68266414  0.41397900  1  0  -0.632994  0  2.096193  0  0  -0.562904  0  2.365831  0  0  -0.589662  0  2.351017  0  -1.197587  0  -0.312427  -0.544493  0  2.375725  0
O  O104  1  0.95741333  0.23436557  0.86602890  1  0  -0.600476  0  1.913679  0  0  -0.554154  0  2.137061  0  0  -0.578204  0  2.129789  0  -1.168418  0  -0.314646  -0.537406  0  2.141478  0
O  O105  1  0.45741262  0.76563296  0.63397456  1  0  -0.600392  0  1.913636  0  0  -0.55407  0  2.137035  0  0  -0.578123  0  2.129768  0  -1.168277  0  -0.314595  -0.537323  0  2.141454  0
O  O106  1  0.04258809  0.26563369  0.36602613  1  0  -0.600365  0  1.913722  0  0  -0.554051  0  2.137117  0  0  -0.578102  0  2.129847  0  -1.168332  0  -0.314576  -0.537309  0  2.141545  0
O  O107  1  0.54258581  0.73436876  0.13397248  1  0  -0.60045  0  1.913755  0  0  -0.554142  0  2.137151  0  0  -0.578193  0  2.129876  0  -1.168359  0  -0.314634  -0.537401  0  2.141585  0
O  O108  1  0.82841158  0.39686108  0.87512517  1  0  -0.668128  0  1.966761  0  0  -0.600214  0  2.228221  0  0  -0.629681  0  2.212972  0  -1.16581  0  -0.340542  -0.579546  0  2.237987  0
O  O109  1  0.32840937  0.60313745  0.62487691  1  0  -0.668078  0  1.966689  0  0  -0.600209  0  2.228215  0  0  -0.629674  0  2.212964  0  -1.165746  0  -0.34054  -0.579539  0  2.237981  0
O  O110  1  0.17159284  0.10313975  0.37512378  1  0  -0.668136  0  1.966819  0  0  -0.600225  0  2.228298  0  0  -0.629691  0  2.213048  0  -1.165827  0  -0.340551  -0.579557  0  2.238066  0
O  O111  1  0.67159056  0.89686192  0.12487622  1  0  -0.668184  0  1.966744  0  0  -0.600271  0  2.228214  0  0  -0.629737  0  2.212962  0  -1.165779  0  -0.340557  -0.579599  0  2.237981  0
O  O112  1  0.60337650  0.11240072  0.46021276  1  0  -0.606319  0  2.057631  0  0  -0.539386  0  2.324212  0  0  -0.565783  0  2.309839  0  -1.181974  0  -0.301572  -0.521112  0  2.333607  0
O  O113  1  0.10337279  0.88760016  0.03978655  1  0  -0.606327  0  2.057641  0  0  -0.539379  0  2.324201  0  0  -0.565775  0  2.30983  0  -1.181968  0  -0.301566  -0.521105  0  2.333596  0
O  O114  1  0.39662642  0.38760090  0.96021345  1  0  -0.606301  0  2.057654  0  0  -0.539349  0  2.324221  0  0  -0.565745  0  2.309851  0  -1.181968  0  -0.30155  -0.521075  0  2.333617  0
O  O115  1  0.89662414  0.61239998  0.53978724  1  0  -0.606349  0  2.057658  0  0  -0.539424  0  2.324217  0  0  -0.56582  0  2.309844  0  -1.181986  0  -0.301578  -0.521148  0  2.333613  0
O  O116  1  0.06151430  0.83846734  0.52871666  1  0  -0.654094  0  2.038095  0  0  -0.588653  0  2.301163  0  0  -0.618604  0  2.287326  0  -1.164228  0  -0.329008  -0.567694  0  2.309907  0
O  O117  1  0.56151502  0.16153275  0.97128334  1  0  -0.654098  0  2.038033  0  0  -0.588624  0  2.301099  0  0  -0.618576  0  2.287263  0  -1.164229  0  -0.329  -0.567666  0  2.309844  0
O  O118  1  0.93848263  0.66153280  0.02871597  1  0  -0.654025  0  2.037948  0  0  -0.588558  0  2.301052  0  0  -0.618507  0  2.28721  0  -1.164249  0  -0.328977  -0.567597  0  2.309793  0
O  O119  1  0.43848192  0.33846965  0.47128195  1  0  -0.654058  0  2.038045  0  0  -0.588639  0  2.301154  0  0  -0.618593  0  2.287321  0  -1.164239  0  -0.329009  -0.567679  0  2.309895  0
O  O120  1  0.99330916  0.81084267  0.67943926  1  0  -0.615436  0  1.961471  0  0  -0.565199  0  2.190818  0  0  -0.589737  0  2.181754  0  -1.192974  0  -0.309644  -0.547999  0  2.196516  0
O  O121  1  0.49330995  0.18915821  0.82056005  1  0  -0.61544  0  1.961258  0  0  -0.565188  0  2.190628  0  0  -0.589726  0  2.181561  0  -1.192996  0  -0.309637  -0.547987  0  2.196328  0
O  O122  1  0.00668777  0.68915904  0.17943926  1  0  -0.615415  0  1.961341  0  0  -0.565134  0  2.190712  0  0  -0.589672  0  2.181644  0  -1.192992  0  -0.309632  -0.547934  0  2.196413  0
O  O123  1  0.50668848  0.31084340  0.32056005  1  0  -0.615445  0  1.961404  0  0  -0.565206  0  2.190765  0  0  -0.589742  0  2.181699  0  -1.192985  0  -0.309629  -0.548005  0  2.196464  0
