# generated using pymatgen
data_ZnH16C20(NO2)2
_symmetry_space_group_name_H-M   'P 1'
_cell_length_a   8.29977282
_cell_length_b   9.68807922
_cell_length_c   11.58307410
_cell_angle_alpha   66.65452495
_cell_angle_beta   76.68981902
_cell_angle_gamma   88.63233162
_symmetry_Int_Tables_number   1
_chemical_formula_structural   ZnH16C20(NO2)2
_chemical_formula_sum   'Zn2 H32 C40 N4 O8'
_cell_volume   829.79241118
_cell_formula_units_Z   2
loop_
 _symmetry_equiv_pos_site_id
 _symmetry_equiv_pos_as_xyz
  1  'x, y, z'
loop_
 _atom_site_type_symbol
 _atom_site_label
 _atom_site_symmetry_multiplicity
 _atom_site_fract_x
 _atom_site_fract_y
 _atom_site_fract_z
 _atom_site_occupancy
 _atom_site_hle17_bader_spin_density
 _atom_site_hle17_ddec_charge
 _atom_site_hle17_ddec_spin_density
 _atom_site_hle17_ddec_sum_bond_order
 _atom_site_hle17_magmom
 _atom_site_hse06_10hf_bader_spin_density
 _atom_site_hse06_10hf_ddec_charge
 _atom_site_hse06_10hf_ddec_spin_density
 _atom_site_hse06_10hf_ddec_sum_bond_order
 _atom_site_hse06_10hf_magmom
 _atom_site_hse06_bader_spin_density
 _atom_site_hse06_ddec_charge
 _atom_site_hse06_ddec_spin_density
 _atom_site_hse06_ddec_sum_bond_order
 _atom_site_hse06_magmom
 _atom_site_pbe_bader_spin_density
 _atom_site_pbe_cm5_charge
 _atom_site_pbe_ddec_charge
 _atom_site_pbe_ddec_spin_density
 _atom_site_pbe_ddec_sum_bond_order
 _atom_site_pbe_magmom
Zn  Zn0  1  0.72920094  0.22405837  0.06797020  1  0  0.994574  0  1.827432  0  0  0.797818  0  2.300026  0  0  0.846556  0  2.246217  0  0  0.69188  0.762486  0  2.337654  0
Zn  Zn1  1  0.27079547  0.77593940  0.93203142  1  0  0.994628  0  1.827387  0  0  0.797849  0  2.299982  0  0  0.846572  0  2.246202  0  0  0.691904  0.762519  0  2.337613  0
H  H2  1  0.76352373  0.67710509  0.07096413  1  0  0.09627  0  0.975604  0  0  0.105328  0  1.041957  0  0  0.108825  0  1.03885  0  0  0.102767  0.102929  0  1.043828  0
H  H3  1  0.23648523  0.32289486  0.92903289  1  0  0.096233  0  0.975579  0  0  0.105324  0  1.041896  0  0  0.108851  0  1.038749  0  0  0.102762  0.102924  0  1.043772  0
H  H4  1  0.96692963  0.38558086  0.38253905  1  0  0.083445  0  0.976019  0  0  0.091384  0  1.045144  0  0  0.094968  0  1.042149  0  0  0.096024  0.088783  0  1.047377  0
H  H5  1  0.03307562  0.61441911  0.61745861  1  0  0.083422  0  0.976034  0  0  0.091397  0  1.045124  0  0  0.09498  0  1.042129  0  0  0.096021  0.088792  0  1.04736  0
H  H6  1  0.05419622  0.60937140  0.41683590  1  0  0.080695  0  0.982173  0  0  0.091644  0  1.045698  0  0  0.093747  0  1.046199  0  0  0.095002  0.090128  0  1.045286  0
H  H7  1  0.94580647  0.39062746  0.58316342  1  0  0.080602  0  0.982218  0  0  0.091597  0  1.045691  0  0  0.093702  0  1.04619  0  0  0.094985  0.090081  0  1.04528  0
H  H8  1  0.98664027  0.86629633  0.27913600  1  0  0.093044  0  0.990329  0  0  0.101484  0  1.058579  0  0  0.10406  0  1.057329  0  0  0.100443  0.099506  0  1.059701  0
H  H9  1  0.01335986  0.13370142  0.72086500  1  0  0.09306  0  0.990301  0  0  0.101488  0  1.05856  0  0  0.104063  0  1.05731  0  0  0.100457  0.099508  0  1.059681  0
H  H10  1  0.37955040  0.24976971  0.04876907  1  0  0.072695  0  0.970367  0  0  0.080545  0  1.037233  0  0  0.083051  0  1.034349  0  0  0.116939  0.078569  0  1.039677  0
H  H11  1  0.62044339  0.75022694  0.95122991  1  0  0.072662  0  0.970448  0  0  0.080554  0  1.037264  0  0  0.083068  0  1.034376  0  0  0.116964  0.078576  0  1.039707  0
H  H12  1  0.09395865  0.15443305  0.18980216  1  0  0.135284  0  0.937189  0  0  0.144597  0  0.995022  0  0  0.148206  0  0.99394  0  0  0.116677  0.141931  0  0.996178  0
H  H13  1  0.90603745  0.84556134  0.81019977  1  0  0.135295  0  0.937194  0  0  0.144608  0  0.995032  0  0  0.148216  0  0.993948  0  0  0.116696  0.141944  0  0.99618  0
H  H14  1  0.32302438  0.90280851  0.50251883  1  0  0.125932  0  0.973978  0  0  0.133518  0  1.038964  0  0  0.137441  0  1.03703  0  0  0.107666  0.130894  0  1.04012  0
H  H15  1  0.67696980  0.09719153  0.49748587  1  0  0.125971  0  0.973947  0  0  0.133553  0  1.038934  0  0  0.137472  0  1.036999  0  0  0.107696  0.13093  0  1.040089  0
H  H16  1  0.60141605  0.01445638  0.34736739  1  0  0.082557  0  0.941116  0  0  0.090806  0  1.006012  0  0  0.09349  0  1.003563  0  0  0.117421  0.088787  0  1.00803  0
H  H17  1  0.39857800  0.98554253  0.65263512  1  0  0.082589  0  0.941073  0  0  0.090837  0  1.005967  0  0  0.093523  0  1.003516  0  0  0.117415  0.088819  0  1.007988  0
H  H18  1  0.01116586  0.84318261  0.49836561  1  0  0.083444  0  0.936388  0  0  0.103499  0  0.994437  0  0  0.104511  0  0.99403  0  0  0.097329  0.102921  0  0.994506  0
H  H19  1  0.98882704  0.15681743  0.50163585  1  0  0.083446  0  0.93642  0  0  0.103484  0  0.994486  0  0  0.104491  0  0.994082  0  0  0.097315  0.102906  0  0.994552  0
H  H20  1  0.92234502  0.99780983  0.39276922  1  0  0.096017  0  0.940884  0  0  0.111308  0  1.004053  0  0  0.11321  0  1.002784  0  0  0.10112  0.110035  0  1.004834  0
H  H21  1  0.07765038  0.00219020  0.60723355  1  0  0.096019  0  0.940932  0  0  0.111347  0  1.004057  0  0  0.113251  0  1.002786  0  0  0.101119  0.110072  0  1.004842  0
H  H22  1  0.72006495  0.53806946  0.88386652  1  0  0.083209  0  0.959597  0  0  0.090573  0  1.025891  0  0  0.092902  0  1.023986  0  0  0.116184  0.088486  0  1.028143  0
H  H23  1  0.27993889  0.46192827  0.11613471  1  0  0.083231  0  0.959566  0  0  0.09057  0  1.025886  0  0  0.0929  0  1.02398  0  0  0.116184  0.088484  0  1.028137  0
H  H24  1  0.63884992  0.67551181  0.67480815  1  0  0.103277  0  0.962559  0  0  0.11356  0  1.023212  0  0  0.115509  0  1.025384  0  0  0.103754  0.111539  0  1.023049  0
H  H25  1  0.36115569  0.32449155  0.32519264  1  0  0.103291  0  0.9626  0  0  0.113597  0  1.023226  0  0  0.11555  0  1.025386  0  0  0.103774  0.111576  0  1.023063  0
H  H26  1  0.53786592  0.24124844  0.67316400  1  0  0.097089  0  0.983482  0  0  0.106543  0  1.047437  0  0  0.108572  0  1.049005  0  0  0.101852  0.104627  0  1.047646  0
H  H27  1  0.46213140  0.75875948  0.32683409  1  0  0.097073  0  0.983515  0  0  0.106531  0  1.047466  0  0  0.108563  0  1.049027  0  0  0.101871  0.104617  0  1.047677  0
H  H28  1  0.62418459  0.12340488  0.88105720  1  0  0.101932  0  0.967071  0  0  0.108974  0  1.030055  0  0  0.112062  0  1.027149  0  0  0.119885  0.106604  0  1.032598  0
H  H29  1  0.37581116  0.87659966  0.11893970  1  0  0.101884  0  0.96705  0  0  0.108922  0  1.030075  0  0  0.112003  0  1.027171  0  0  0.119876  0.106567  0  1.032579  0
H  H30  1  0.63470817  0.62850825  0.45798672  1  0  0.08316  0  0.938158  0  0  0.102699  0  0.997546  0  0  0.102798  0  0.999289  0  0  0.096995  0.10261  0  0.996343  0
H  H31  1  0.36528896  0.37149742  0.54201302  1  0  0.083136  0  0.938131  0  0  0.102662  0  0.997545  0  0  0.102761  0  0.999291  0  0  0.096979  0.10257  0  0.996339  0
H  H32  1  0.42943252  0.62287039  0.54632835  1  0  0.089059  0  0.931102  0  0  0.10768  0  0.991757  0  0  0.108417  0  0.992109  0  0  0.099925  0.107191  0  0.991237  0
H  H33  1  0.57056575  0.37713413  0.45367157  1  0  0.089072  0  0.931036  0  0  0.107685  0  0.991708  0  0  0.108422  0  0.992059  0  0  0.099922  0.107193  0  0.991186  0
C  C34  1  0.82665945  0.66226761  0.14693079  1  0  -0.063013  0  3.694408  0  0  -0.097396  0  3.939464  0  0  -0.094249  0  3.95755  0  0  -0.075349  -0.098639  0  3.927012  0
C  C35  1  0.17334817  0.33773122  0.85306598  1  0  -0.062991  0  3.694372  0  0  -0.097385  0  3.93942  0  0  -0.094261  0  3.957497  0  0  -0.075359  -0.09863  0  3.926969  0
C  C36  1  0.86260515  0.51766611  0.22313978  1  0  -0.063991  0  3.74901  0  0  -0.03735  0  3.977809  0  0  -0.046102  0  4.00063  0  0  -0.019881  -0.031678  0  3.961812  0
C  C37  1  0.13739744  0.48233163  0.77685993  1  0  -0.063964  0  3.749122  0  0  -0.037331  0  3.977936  0  0  -0.046084  0  4.000764  0  0  -0.01987  -0.031658  0  3.961938  0
C  C38  1  0.94050126  0.49897927  0.32317499  1  0  -0.07488  0  3.749559  0  0  -0.098901  0  3.997786  0  0  -0.09733  0  4.016678  0  0  -0.087687  -0.100041  0  3.985083  0
C  C39  1  0.05950390  0.50101958  0.67682392  1  0  -0.074881  0  3.749552  0  0  -0.098927  0  3.997791  0  0  -0.097356  0  4.01668  0  0  -0.087655  -0.100064  0  3.985085  0
C  C40  1  0.98695973  0.62367414  0.34291555  1  0  -0.090882  0  3.80407  0  0  -0.102042  0  4.05615  0  0  -0.106395  0  4.07839  0  0  -0.100707  -0.09908  0  4.041011  0
C  C41  1  0.01304419  0.37632472  0.65708357  1  0  -0.090795  0  3.803967  0  0  -0.101978  0  4.05606  0  0  -0.106333  0  4.078299  0  0  -0.100709  -0.099015  0  4.040919  0
C  C42  1  0.95076062  0.76741600  0.26606209  1  0  -0.067636  0  3.726343  0  0  -0.094123  0  3.974404  0  0  -0.091691  0  3.992632  0  0  -0.086582  -0.095597  0  3.962336  0
C  C43  1  0.04924340  0.23258398  0.73393578  1  0  -0.067671  0  3.726235  0  0  -0.09416  0  3.974342  0  0  -0.091729  0  3.99257  0  0  -0.086616  -0.095632  0  3.962272  0
C  C44  1  0.86660811  0.78737983  0.16951735  1  0  -0.063631  0  3.754908  0  0  -0.038048  0  3.987703  0  0  -0.046638  0  4.009807  0  0  -0.019507  -0.032947  0  3.973282  0
C  C45  1  0.13339837  0.21262013  0.83047923  1  0  -0.063569  0  3.754714  0  0  -0.037996  0  3.987516  0  0  -0.046589  0  4.009628  0  0  -0.019448  -0.032894  0  3.973094  0
C  C46  1  0.80830930  0.93873397  0.09834442  1  0  0.635552  0  3.921673  0  0  0.585669  0  4.213238  0  0  0.619689  0  4.207077  0  0  0.199536  0.562719  0  4.216293  0
C  C47  1  0.19169595  0.06126600  0.90165238  1  0  0.635502  0  3.921561  0  0  0.585634  0  4.213101  0  0  0.619654  0  4.20694  0  0  0.199543  0.562684  0  4.216157  0
C  C48  1  0.81565399  0.38171556  0.20236926  1  0  0.635967  0  3.929512  0  0  0.589143  0  4.219042  0  0  0.623378  0  4.211682  0  0  0.198668  0.566432  0  4.222134  0
C  C49  1  0.18434622  0.61828331  0.79763048  1  0  0.635902  0  3.92959  0  0  0.589081  0  4.219128  0  0  0.623317  0  4.211764  0  0  0.1986  0.566371  0  4.22222  0
C  C50  1  0.36107977  0.17549928  0.15051889  1  0  0.152523  0  3.703853  0  0  0.118474  0  3.958596  0  0  0.127377  0  3.974284  0  0  0.054961  0.112093  0  3.949086  0
C  C51  1  0.63891930  0.82450073  0.84947981  1  0  0.152597  0  3.703896  0  0  0.118497  0  3.958657  0  0  0.127396  0  3.974345  0  0  0.054964  0.112122  0  3.949147  0
C  C52  1  0.20290061  0.12215380  0.22930706  1  0  -0.159828  0  3.65468  0  0  -0.177214  0  3.898686  0  0  -0.185499  0  3.918763  0  0  -0.075807  -0.172562  0  3.886927  0
C  C53  1  0.79709867  0.87784846  0.77069172  1  0  -0.159808  0  3.654617  0  0  -0.177198  0  3.898666  0  0  -0.185483  0  3.918742  0  0  -0.075793  -0.172546  0  3.886903  0
C  C54  1  0.18607622  0.02379020  0.35869890  1  0  0.163749  0  3.702385  0  0  0.181319  0  3.936605  0  0  0.186531  0  3.959205  0  0  0.018343  0.178269  0  3.922026  0
C  C55  1  0.81392140  0.97620756  0.64129992  1  0  0.163682  0  3.70225  0  0  0.181241  0  3.936496  0  0  0.186454  0  3.95909  0  0  0.018299  0.178192  0  3.921914  0
C  C56  1  0.33159840  0.98245463  0.40277544  1  0  -0.195122  0  3.695597  0  0  -0.210399  0  3.938674  0  0  -0.219012  0  3.959664  0  0  -0.089959  -0.205228  0  3.926193  0
C  C57  1  0.66839824  0.01754540  0.59722798  1  0  -0.195042  0  3.695502  0  0  -0.210312  0  3.938576  0  0  -0.218917  0  3.959558  0  0  -0.089941  -0.205142  0  3.926093  0
C  C58  1  0.48493118  0.04180604  0.31795861  1  0  0.124729  0  3.721172  0  0  0.09364  0  3.971687  0  0  0.101144  0  3.989296  0  0  0.042792  0.088256  0  3.961113  0
C  C59  1  0.51506650  0.95819173  0.68204538  1  0  0.124525  0  3.721058  0  0  0.093438  0  3.971563  0  0  0.100939  0  3.989171  0  0  0.042711  0.088056  0  3.960992  0
C  C60  1  0.01781427  0.96675665  0.44839478  1  0  -0.156866  0  3.683391  0  0  -0.201492  0  3.93168  0  0  -0.202996  0  3.942598  0  0  -0.15471  -0.200364  0  3.923441  0
C  C61  1  0.98218604  0.03324335  0.55160371  1  0  -0.156901  0  3.68344  0  0  -0.201516  0  3.931682  0  0  -0.203013  0  3.942591  0  0  -0.154708  -0.20038  0  3.923433  0
C  C62  1  0.67802637  0.47794909  0.83294759  1  0  0.128148  0  3.712362  0  0  0.096198  0  3.961771  0  0  0.103631  0  3.981344  0  0  0.043702  0.091712  0  3.948367  0
C  C63  1  0.32197539  0.52205316  0.16705162  1  0  0.128155  0  3.712402  0  0  0.096203  0  3.961804  0  0  0.103634  0  3.981379  0  0  0.043724  0.091715  0  3.9484  0
C  C64  1  0.63308193  0.55268841  0.71662147  1  0  -0.16969  0  3.695953  0  0  -0.186524  0  3.9437  0  0  -0.195939  0  3.967039  0  0  -0.08658  -0.180092  0  3.92838  0
C  C65  1  0.36691995  0.44731497  0.28337822  1  0  -0.169689  0  3.695998  0  0  -0.186545  0  3.943739  0  0  -0.19596  0  3.967085  0  0  -0.086591  -0.180114  0  3.928423  0
C  C66  1  0.58050243  0.47024176  0.65407990  1  0  0.162503  0  3.691763  0  0  0.177336  0  3.930084  0  0  0.183605  0  3.951421  0  0  0.018657  0.173174  0  3.915397  0
C  C67  1  0.41949717  0.52976389  0.34591942  1  0  0.162492  0  3.691808  0  0  0.177342  0  3.930126  0  0  0.183611  0  3.951468  0  0  0.018641  0.173175  0  3.915436  0
C  C68  1  0.57813138  0.31340093  0.71452073  1  0  -0.169619  0  3.698913  0  0  -0.185884  0  3.945822  0  0  -0.195607  0  3.968538  0  0  -0.085481  -0.179647  0  3.931721  0
C  C69  1  0.42186708  0.68660585  0.28547755  1  0  -0.169566  0  3.699075  0  0  -0.185837  0  3.945965  0  0  -0.195558  0  3.96868  0  0  -0.08544  -0.179607  0  3.931871  0
C  C70  1  0.62520586  0.24525598  0.83105759  1  0  0.151254  0  3.668599  0  0  0.115482  0  3.922739  0  0  0.124981  0  3.938184  0  0  0.053335  0.109593  0  3.912171  0
C  C71  1  0.37479219  0.75474629  0.16894225  1  0  0.151291  0  3.668646  0  0  0.11549  0  3.922774  0  0  0.124995  0  3.938215  0  0  0.053311  0.109604  0  3.912213  0
C  C72  1  0.52895054  0.55094379  0.52864890  1  0  -0.155602  0  3.692362  0  0  -0.199242  0  3.940468  0  0  -0.200329  0  3.951909  0  0  -0.155479  -0.198188  0  3.932075  0
C  C73  1  0.47105023  0.44906072  0.47135233  1  0  -0.155556  0  3.692163  0  0  -0.199229  0  3.940325  0  0  -0.200318  0  3.951772  0  0  -0.15547  -0.198151  0  3.931913  0
N  N74  1  0.67392040  0.32601325  0.89028595  1  0  -0.34727  0  3.306863  0  0  -0.258897  0  3.583968  0  0  -0.279918  0  3.598263  0  0  -0.334256  -0.244224  0  3.573006  0
N  N75  1  0.32607889  0.67398902  0.10971368  1  0  -0.347387  0  3.306978  0  0  -0.258944  0  3.584018  0  0  -0.27996  0  3.598305  0  0  -0.334308  -0.244273  0  3.573056  0
N  N76  1  0.49971579  0.13791448  0.19339993  1  0  -0.340915  0  3.316919  0  0  -0.256389  0  3.592062  0  0  -0.275825  0  3.606459  0  0  -0.333291  -0.242728  0  3.582668  0
N  N77  1  0.50028188  0.86208329  0.80660321  1  0  -0.340862  0  3.316738  0  0  -0.256304  0  3.591858  0  0  -0.275737  0  3.606259  0  0  -0.333256  -0.242659  0  3.58248  0
O  O78  1  0.79414178  0.40752065  0.08829650  1  0  -0.647814  0  2.033349  0  0  -0.574201  0  2.303604  0  0  -0.603533  0  2.289342  0  0  -0.336393  -0.553461  0  2.312605  0
O  O79  1  0.20586069  0.59247595  0.91170275  1  0  -0.647804  0  2.033306  0  0  -0.574202  0  2.303571  0  0  -0.603533  0  2.289313  0  0  -0.336388  -0.553462  0  2.312572  0
O  O80  1  0.79993454  0.25371936  0.29346015  1  0  -0.630569  0  1.921315  0  0  -0.586032  0  2.153341  0  0  -0.608668  0  2.144228  0  0  -0.327236  -0.568926  0  2.158068  0
O  O81  1  0.20006073  0.74627955  0.70654043  1  0  -0.63051  0  1.92133  0  0  -0.585969  0  2.153349  0  0  -0.608615  0  2.144253  0  0  -0.32719  -0.568864  0  2.158076  0
O  O82  1  0.70422554  0.94907628  0.03320736  1  0  -0.60729  0  1.962801  0  0  -0.559145  0  2.195518  0  0  -0.583579  0  2.189873  0  0  -0.308687  -0.541761  0  2.198904  0
O  O83  1  0.29578082  0.05092255  0.96678789  1  0  -0.607244  0  1.96275  0  0  -0.559142  0  2.195501  0  0  -0.583572  0  2.189856  0  0  -0.308693  -0.541757  0  2.198885  0
O  O84  1  0.86548052  0.05118065  0.11616250  1  0  -0.65149  0  2.039698  0  0  -0.575943  0  2.318319  0  0  -0.605356  0  2.303251  0  0  -0.334271  -0.555124  0  2.328259  0
O  O85  1  0.13451848  0.94881824  0.88383918  1  0  -0.651517  0  2.03969  0  0  -0.575958  0  2.318293  0  0  -0.605363  0  2.303214  0  0  -0.334291  -0.555138  0  2.328232  0
