# generated using pymatgen
data_ZnH9C14NO3
_symmetry_space_group_name_H-M   'P 1'
_cell_length_a   7.02693363
_cell_length_b   9.46923775
_cell_length_c   9.80014361
_cell_angle_alpha   96.83775358
_cell_angle_beta   90.00166385
_cell_angle_gamma   90.00010792
_symmetry_Int_Tables_number   1
_chemical_formula_structural   ZnH9C14NO3
_chemical_formula_sum   'Zn2 H18 C28 N2 O6'
_cell_volume   647.46046642
_cell_formula_units_Z   2
loop_
 _symmetry_equiv_pos_site_id
 _symmetry_equiv_pos_as_xyz
  1  'x, y, z'
loop_
 _atom_site_type_symbol
 _atom_site_label
 _atom_site_symmetry_multiplicity
 _atom_site_fract_x
 _atom_site_fract_y
 _atom_site_fract_z
 _atom_site_occupancy
 _atom_site_hle17_bader_spin_density
 _atom_site_hle17_ddec_charge
 _atom_site_hle17_ddec_spin_density
 _atom_site_hle17_ddec_sum_bond_order
 _atom_site_hle17_magmom
 _atom_site_hse06_10hf_bader_spin_density
 _atom_site_hse06_10hf_ddec_charge
 _atom_site_hse06_10hf_ddec_spin_density
 _atom_site_hse06_10hf_ddec_sum_bond_order
 _atom_site_hse06_10hf_magmom
 _atom_site_hse06_bader_spin_density
 _atom_site_hse06_ddec_charge
 _atom_site_hse06_ddec_spin_density
 _atom_site_hse06_ddec_sum_bond_order
 _atom_site_hse06_magmom
 _atom_site_pbe_bader_spin_density
 _atom_site_pbe_cm5_charge
 _atom_site_pbe_ddec_charge
 _atom_site_pbe_ddec_spin_density
 _atom_site_pbe_ddec_sum_bond_order
 _atom_site_pbe_magmom
Zn  Zn0  1  0.88640247  0.92552838  0.30685389  1  0  1.09236  0  1.803644  0  0  0.912719  0  2.279243  0  0  0.961584  0  2.218556  0  0  0.721311  0.879585  0  2.319605  0
Zn  Zn1  1  0.38640435  0.07447697  0.69314945  1  0  1.092316  0  1.803621  0  0  0.912647  0  2.279232  0  0  0.961547  0  2.218489  0  0  0.721306  0.879515  0  2.319595  0
H  H2  1  0.87495617  0.57619153  0.95511796  1  0  0.110168  0  0.939361  0  0  0.124455  0  0.991874  0  0  0.128028  0  0.990944  0  0  0.103624  0.122334  0  0.991928  0
H  H3  1  0.37496300  0.42380944  0.04488968  1  0  0.110221  0  0.939363  0  0  0.124508  0  0.991865  0  0  0.128082  0  0.990933  0  0  0.103629  0.122384  0  0.991924  0
H  H4  1  0.90560617  0.60058187  0.70732682  1  0  0.083837  0  0.949143  0  0  0.09841  0  1.005921  0  0  0.100145  0  1.005425  0  0  0.10182  0.096749  0  1.006962  0
H  H5  1  0.40560289  0.39940327  0.29268045  1  0  0.083789  0  0.949217  0  0  0.098358  0  1.005979  0  0  0.100092  0  1.005484  0  0  0.101823  0.096649  0  1.007078  0
H  H6  1  0.97117408  0.83976115  0.63008164  1  0  0.096811  0  0.972642  0  0  0.104395  0  1.040034  0  0  0.107645  0  1.03923  0  0  0.094461  0.102011  0  1.040904  0
H  H7  1  0.47115476  0.16021895  0.36992534  1  0  0.096791  0  0.972618  0  0  0.104375  0  1.040014  0  0  0.107623  0  1.039214  0  0  0.094455  0.10199  0  1.040882  0
H  H8  1  0.98609909  0.05186244  0.80297297  1  0  0.086034  0  0.94978  0  0  0.097852  0  1.011187  0  0  0.101347  0  1.007839  0  0  0.099994  0.095661  0  1.012931  0
H  H9  1  0.48608061  0.94812749  0.19702233  1  0  0.086055  0  0.949801  0  0  0.097877  0  1.0112  0  0  0.101371  0  1.007853  0  0  0.099986  0.095685  0  1.012944  0
H  H10  1  0.99785825  0.16057707  0.01617555  1  0  0.063637  0  0.933672  0  0  0.07717  0  0.996919  0  0  0.079549  0  0.992886  0  0  0.116185  0.075647  0  0.998891  0
H  H11  1  0.49786514  0.83942458  0.98382253  1  0  0.063699  0  0.933649  0  0  0.077237  0  0.996874  0  0  0.079617  0  0.99284  0  0  0.11621  0.075715  0  0.998844  0
H  H12  1  0.10108594  0.40166093  0.57532335  1  0  0.097347  0  0.973346  0  0  0.106249  0  1.037096  0  0  0.108991  0  1.035635  0  0  0.103078  0.104044  0  1.038575  0
H  H13  1  0.60110072  0.59834222  0.42467266  1  0  0.097342  0  0.973208  0  0  0.106226  0  1.036996  0  0  0.108974  0  1.035527  0  0  0.103046  0.104022  0  1.038471  0
H  H14  1  0.99725577  0.60977083  0.46133834  1  0  0.095745  0  0.944951  0  0  0.1087  0  1.000724  0  0  0.111358  0  1.000491  0  0  0.103635  0.106568  0  1.001465  0
H  H15  1  0.49726511  0.39023933  0.53866082  1  0  0.095738  0  0.945019  0  0  0.108694  0  1.000783  0  0  0.11138  0  1.000509  0  0  0.103653  0.106564  0  1.001518  0
H  H16  1  0.85984116  0.57130050  0.22566992  1  0  0.107193  0  0.978271  0  0  0.11395  0  1.040953  0  0  0.118472  0  1.036933  0  0  0.1018  0.111274  0  1.043002  0
H  H17  1  0.35986141  0.42870282  0.77431933  1  0  0.10729  0  0.978105  0  0  0.114031  0  1.040814  0  0  0.118554  0  1.03679  0  0  0.101819  0.111354  0  1.042863  0
H  H18  1  0.81925754  0.32536243  0.10993122  1  0  0.097847  0  0.958347  0  0  0.108454  0  1.017321  0  0  0.111196  0  1.016826  0  0  0.10311  0.10699  0  1.016866  0
H  H19  1  0.31928161  0.67463003  0.89005986  1  0  0.097856  0  0.958408  0  0  0.108412  0  1.017439  0  0  0.111153  0  1.016945  0  0  0.103093  0.106948  0  1.016983  0
C  C20  1  0.94385913  0.93706745  0.97855943  1  0  -0.138975  0  3.811458  0  0  -0.118294  0  4.053916  0  0  -0.135119  0  4.083958  0  0  -0.043637  -0.107849  0  4.03459  0
C  C21  1  0.44385129  0.06292758  0.02143869  1  0  -0.138876  0  3.811442  0  0  -0.118166  0  4.053864  0  0  -0.134996  0  4.083914  0  0  -0.043633  -0.107723  0  4.034548  0
C  C22  1  0.91504074  0.79886659  0.02385819  1  0  0.355634  0  3.853957  0  0  0.339929  0  4.109098  0  0  0.359398  0  4.123931  0  0  0.094098  0.326795  0  4.099736  0
C  C23  1  0.41504426  0.20112822  0.97614644  1  0  0.355652  0  3.854048  0  0  0.339944  0  4.109153  0  0  0.359412  0  4.123995  0  0  0.09412  0.32681  0  4.099793  0
C  C24  1  0.90082608  0.68000009  0.92082239  1  0  -0.218354  0  3.727736  0  0  -0.234879  0  3.979467  0  0  -0.245693  0  3.99903  0  0  -0.113366  -0.228562  0  3.967277  0
C  C25  1  0.40083259  0.31999784  0.07918234  1  0  -0.218455  0  3.727722  0  0  -0.234996  0  3.979454  0  0  -0.245809  0  3.999014  0  0  -0.113367  -0.228673  0  3.967244  0
C  C26  1  0.91893082  0.69452917  0.78278836  1  0  -0.003618  0  3.770416  0  0  -0.021493  0  4.024632  0  0  -0.015532  0  4.044353  0  0  -0.080312  -0.025323  0  4.012214  0
C  C27  1  0.41893567  0.30546249  0.21721390  1  0  -0.003489  0  3.770471  0  0  -0.021335  0  4.024645  0  0  -0.015376  0  4.044365  0  0  -0.080332  -0.025131  0  4.012226  0
C  C28  1  0.95298479  0.82865087  0.73856756  1  0  -0.120123  0  3.789825  0  0  -0.140171  0  4.059022  0  0  -0.148874  0  4.082996  0  0  -0.116457  -0.134539  0  4.04254  0
C  C29  1  0.45298964  0.17133986  0.26143530  1  0  -0.120092  0  3.789582  0  0  -0.140138  0  4.058782  0  0  -0.148842  0  4.082751  0  0  -0.116415  -0.134504  0  4.042291  0
C  C30  1  0.96360886  0.94659659  0.83548732  1  0  -0.069032  0  3.765287  0  0  -0.09381  0  4.023904  0  0  -0.089573  0  4.04502  0  0  -0.089581  -0.096198  0  4.009597  0
C  C31  1  0.46360670  0.05339315  0.16451360  1  0  -0.069228  0  3.765191  0  0  -0.094035  0  4.023848  0  0  -0.089796  0  4.044954  0  0  -0.089659  -0.096425  0  4.009543  0
C  C32  1  0.95851340  0.06758602  0.06722245  1  0  0.190887  0  3.694127  0  0  0.143045  0  3.951232  0  0  0.162299  0  3.962509  0  0  0.079948  0.130421  0  3.94344  0
C  C33  1  0.45851564  0.93241335  0.93277450  1  0  0.190647  0  3.694206  0  0  0.14279  0  3.951296  0  0  0.162044  0  3.962582  0  0  0.079827  0.130168  0  3.943502  0
C  C34  1  0.94874102  0.22477211  0.27269899  1  0  0.217599  0  3.80442  0  0  0.208609  0  4.044946  0  0  0.216501  0  4.07077  0  0  0.095567  0.203397  0  4.027802  0
C  C35  1  0.44874749  0.77523149  0.72729728  1  0  0.217693  0  3.804419  0  0  0.20865  0  4.044978  0  0  0.21654  0  4.070808  0  0  0.095592  0.203436  0  4.027833  0
C  C36  1  0.02489981  0.24586662  0.40775089  1  0  -0.172775  0  3.713817  0  0  -0.150193  0  3.94492  0  0  -0.162661  0  3.969144  0  0  -0.022645  -0.142284  0  3.928746  0
C  C37  1  0.52489463  0.75414258  0.59224634  1  0  -0.172841  0  3.713733  0  0  -0.150271  0  3.944838  0  0  -0.162738  0  3.969059  0  0  -0.022626  -0.142361  0  3.928665  0
C  C38  1  0.03956913  0.38617708  0.47281593  1  0  -0.055707  0  3.755331  0  0  -0.082401  0  4.005612  0  0  -0.080555  0  4.02701  0  0  -0.084385  -0.082553  0  3.990312  0
C  C39  1  0.53956527  0.61383108  0.52718351  1  0  -0.055684  0  3.755099  0  0  -0.082357  0  4.005365  0  0  -0.080515  0  4.026773  0  0  -0.084407  -0.082507  0  3.990068  0
C  C40  1  0.98308339  0.50226444  0.40854108  1  0  -0.080481  0  3.76513  0  0  -0.094234  0  4.020319  0  0  -0.099345  0  4.042628  0  0  -0.091451  -0.090984  0  4.004326  0
C  C41  1  0.48310080  0.49773931  0.59145492  1  0  -0.080438  0  3.765113  0  0  -0.09419  0  4.020274  0  0  -0.099318  0  4.042585  0  0  -0.091431  -0.090939  0  4.00428  0
C  C42  1  0.90534981  0.48047630  0.27640588  1  0  -0.033461  0  3.741995  0  0  -0.049748  0  3.992504  0  0  -0.047809  0  4.010363  0  0  -0.082607  -0.050502  0  3.979313  0
C  C43  1  0.40537824  0.51952812  0.72359468  1  0  -0.033622  0  3.741918  0  0  -0.049901  0  3.992444  0  0  -0.047963  0  4.010307  0  0  -0.082659  -0.050656  0  3.979255  0
C  C44  1  0.88722093  0.34295008  0.21048800  1  0  -0.16062  0  3.747975  0  0  -0.177389  0  3.998192  0  0  -0.184799  0  4.021878  0  0  -0.092719  -0.172493  0  3.981765  0
C  C45  1  0.38723810  0.65705640  0.78951142  1  0  -0.160622  0  3.748171  0  0  -0.177344  0  3.998438  0  0  -0.184757  0  4.022127  0  0  -0.092702  -0.17245  0  3.982016  0
C  C46  1  0.10625814  0.13118803  0.48371693  1  0  0.679334  0  3.85844  0  0  0.626399  0  4.147427  0  0  0.662639  0  4.13991  0  0  0.22335  0.60221  0  4.151335  0
C  C47  1  0.60625877  0.86882254  0.51628320  1  0  0.679397  0  3.858522  0  0  0.62653  0  4.147413  0  0  0.662771  0  4.139896  0  0  0.223439  0.602342  0  4.151319  0
N  N48  1  0.93370583  0.08733523  0.20080436  1  0  -0.438182  0  3.353932  0  0  -0.350347  0  3.640681  0  0  -0.375371  0  3.652673  0  0  -0.356119  -0.333968  0  3.632199  0
N  N49  1  0.43371409  0.91266720  0.79919450  1  0  -0.43799  0  3.353775  0  0  -0.350104  0  3.640483  0  0  -0.375134  0  3.652484  0  0  -0.356026  -0.333733  0  3.632015  0
O  O50  1  0.90167756  0.77631394  0.15262160  1  0  -0.618079  0  2.088351  0  0  -0.540416  0  2.354424  0  0  -0.570144  0  2.343336  0  0  -0.337289  -0.520267  0  2.359721  0
O  O51  1  0.40168597  0.22369253  0.84738323  1  0  -0.618099  0  2.088471  0  0  -0.540417  0  2.354522  0  0  -0.570151  0  2.343436  0  0  -0.337259  -0.520266  0  2.359819  0
O  O52  1  0.07718616  0.99856588  0.45009384  1  0  -0.633886  0  2.037232  0  0  -0.564911  0  2.30668  0  0  -0.592004  0  2.288535  0  0  -0.317233  -0.54658  0  2.319111  0
O  O53  1  0.57720440  0.00144233  0.54991355  1  0  -0.633964  0  2.037364  0  0  -0.565018  0  2.306777  0  0  -0.592117  0  2.288636  0  0  -0.317315  -0.546674  0  2.319176  0
O  O54  1  0.20976487  0.17620527  0.58755313  1  0  -0.631113  0  2.095326  0  0  -0.552029  0  2.372602  0  0  -0.581663  0  2.355826  0  0  -0.314197  -0.531564  0  2.382851  0
O  O55  1  0.70975556  0.82380691  0.41244123  1  0  -0.631112  0  2.095468  0  0  -0.552029  0  2.372687  0  0  -0.581661  0  2.355911  0  0  -0.314152  -0.531562  0  2.382934  0
