# generated using pymatgen
data_Ag2H12C16S(N2O3)2
_symmetry_space_group_name_H-M   'P 1'
_cell_length_a   7.32106140
_cell_length_b   11.33573972
_cell_length_c   12.74412389
_cell_angle_alpha   70.53121882
_cell_angle_beta   73.33882754
_cell_angle_gamma   71.17908121
_symmetry_Int_Tables_number   1
_chemical_formula_structural   Ag2H12C16S(N2O3)2
_chemical_formula_sum   'Ag4 H24 C32 S2 N8 O12'
_cell_volume   924.61996555
_cell_formula_units_Z   2
loop_
 _symmetry_equiv_pos_site_id
 _symmetry_equiv_pos_as_xyz
  1  'x, y, z'
loop_
 _atom_site_type_symbol
 _atom_site_label
 _atom_site_symmetry_multiplicity
 _atom_site_fract_x
 _atom_site_fract_y
 _atom_site_fract_z
 _atom_site_occupancy
 _atom_site_hle17_bader_spin_density
 _atom_site_hle17_ddec_charge
 _atom_site_hle17_ddec_spin_density
 _atom_site_hle17_ddec_sum_bond_order
 _atom_site_hle17_magmom
 _atom_site_hse06_10hf_bader_spin_density
 _atom_site_hse06_10hf_ddec_charge
 _atom_site_hse06_10hf_ddec_spin_density
 _atom_site_hse06_10hf_ddec_sum_bond_order
 _atom_site_hse06_10hf_magmom
 _atom_site_hse06_bader_spin_density
 _atom_site_hse06_ddec_charge
 _atom_site_hse06_ddec_spin_density
 _atom_site_hse06_ddec_sum_bond_order
 _atom_site_hse06_magmom
 _atom_site_pbe_bader_spin_density
 _atom_site_pbe_cm5_charge
 _atom_site_pbe_ddec_charge
 _atom_site_pbe_ddec_spin_density
 _atom_site_pbe_ddec_sum_bond_order
 _atom_site_pbe_magmom
Ag  Ag0  1  0.35614325  0.41321740  0.65196310  1  0  0.547703  0  1.583712  0  0  0.434908  0  2.066339  0  0  0.458154  0  2.014635  0  0  0.4682  0.418844  0  2.102205  0
Ag  Ag1  1  0.42076166  0.08722951  0.84813235  1  0  0.547618  0  1.585306  0  0  0.434733  0  2.067965  0  0  0.457852  0  2.016328  0  0  0.467912  0.418685  0  2.103926  0
Ag  Ag2  1  0.64385480  0.58678426  0.34803102  1  0  0.547676  0  1.58384  0  0  0.434888  0  2.066481  0  0  0.458131  0  2.01478  0  0  0.468209  0.418824  0  2.102344  0
Ag  Ag3  1  0.57923482  0.91276916  0.15186942  1  0  0.547609  0  1.585397  0  0  0.434716  0  2.068077  0  0  0.457834  0  2.016437  0  0  0.467904  0.418666  0  2.10404  0
H  H4  1  0.86768936  0.39156787  0.02384714  1  0  0.110718  0  0.97151  0  0  0.114035  0  1.041581  0  0  0.118081  0  1.038678  0  0  0.104448  0.110994  0  1.043796  0
H  H5  1  0.28386147  0.10850397  0.47571702  1  0  0.111361  0  0.970433  0  0  0.114533  0  1.040777  0  0  0.11866  0  1.037816  0  0  0.104522  0.111564  0  1.042864  0
H  H6  1  0.13230919  0.60843565  0.97615245  1  0  0.110793  0  0.971434  0  0  0.11404  0  1.041585  0  0  0.118107  0  1.038659  0  0  0.104436  0.111001  0  1.043798  0
H  H7  1  0.71614012  0.89149475  0.52428106  1  0  0.111269  0  0.970462  0  0  0.114487  0  1.040754  0  0  0.118608  0  1.037808  0  0  0.104493  0.111527  0  1.042833  0
H  H8  1  0.58454301  0.45464423  0.17749471  1  0  0.102247  0  0.957684  0  0  0.108762  0  1.02805  0  0  0.112262  0  1.025765  0  0  0.102042  0.106189  0  1.029877  0
H  H9  1  0.21749321  0.04529326  0.32202163  1  0  0.099959  0  0.960729  0  0  0.107172  0  1.030409  0  0  0.110583  0  1.028149  0  0  0.10222  0.104619  0  1.032309  0
H  H10  1  0.41545831  0.54535634  0.82250963  1  0  0.102278  0  0.957676  0  0  0.108767  0  1.028062  0  0  0.112275  0  1.025758  0  0  0.102046  0.106195  0  1.029889  0
H  H11  1  0.78251066  0.95470259  0.67797450  1  0  0.100015  0  0.960669  0  0  0.107237  0  1.030319  0  0  0.110649  0  1.028055  0  0  0.102238  0.104683  0  1.032222  0
H  H12  1  0.39750099  0.82616433  0.94919836  1  0  0.105319  0  0.964526  0  0  0.112673  0  1.033109  0  0  0.116212  0  1.03071  0  0  0.100331  0.110058  0  1.035114  0
H  H13  1  0.17239642  0.67411050  0.55059903  1  0  0.103093  0  0.965366  0  0  0.110949  0  1.033637  0  0  0.114495  0  1.031217  0  0  0.09933  0.108343  0  1.035622  0
H  H14  1  0.60249233  0.17383434  0.05080373  1  0  0.10536  0  0.964489  0  0  0.112715  0  1.033071  0  0  0.116247  0  1.030689  0  0  0.100341  0.110104  0  1.035066  0
H  H15  1  0.82759813  0.32588813  0.44940612  1  0  0.103159  0  0.965301  0  0  0.11102  0  1.033559  0  0  0.114569  0  1.031138  0  0  0.099361  0.108413  0  1.035544  0
H  H16  1  0.67563520  0.76449663  0.79457015  1  0  0.105932  0  0.945367  0  0  0.117699  0  1.004121  0  0  0.120413  0  1.002624  0  0  0.109606  0.115669  0  1.005397  0
H  H17  1  0.23401230  0.73596548  0.70530574  1  0  0.106213  0  0.945045  0  0  0.116856  0  1.005059  0  0  0.119659  0  1.003449  0  0  0.109736  0.114788  0  1.006305  0
H  H18  1  0.32435819  0.23550593  0.20542950  1  0  0.106023  0  0.945398  0  0  0.117764  0  1.004151  0  0  0.12048  0  1.002653  0  0  0.109636  0.115724  0  1.005441  0
H  H19  1  0.76597571  0.26404284  0.29469575  1  0  0.106124  0  0.945086  0  0  0.116813  0  1.005048  0  0  0.119617  0  1.003438  0  0  0.10971  0.114745  0  1.006292  0
H  H20  1  0.25864768  0.60015317  0.22524006  1  0  0.120323  0  0.937355  0  0  0.131023  0  1.001231  0  0  0.132865  0  1.000539  0  0  0.106599  0.129675  0  1.001796  0
H  H21  1  0.08418657  0.89995615  0.27438237  1  0  0.119118  0  0.937197  0  0  0.130377  0  1.000904  0  0  0.132175  0  1.000261  0  0  0.106598  0.129051  0  1.001492  0
H  H22  1  0.74135237  0.39984649  0.77476040  1  0  0.120309  0  0.93742  0  0  0.131009  0  1.001282  0  0  0.132854  0  1.000594  0  0  0.106578  0.129662  0  1.001847  0
H  H23  1  0.91581522  0.10004730  0.72562258  1  0  0.119111  0  0.937222  0  0  0.130374  0  1.00092  0  0  0.132171  0  1.000279  0  0  0.106597  0.129048  0  1.001509  0
H  H24  1  0.18867094  0.75894366  0.13070624  1  0  0.129944  0  0.916027  0  0  0.146499  0  0.968051  0  0  0.148313  0  0.967551  0  0  0.111295  0.145137  0  0.96855  0
H  H25  1  0.07824601  0.74118041  0.36885909  1  0  0.13174  0  0.914478  0  0  0.148143  0  0.966557  0  0  0.149979  0  0.966028  0  0  0.112169  0.146831  0  0.966969  0
H  H26  1  0.81131997  0.24105505  0.86929254  1  0  0.129957  0  0.916007  0  0  0.146507  0  0.968038  0  0  0.148331  0  0.967526  0  0  0.111283  0.145145  0  0.968541  0
H  H27  1  0.92175718  0.25881829  0.63114025  1  0  0.131703  0  0.914561  0  0  0.148105  0  0.966636  0  0  0.149939  0  0.966109  0  0  0.112152  0.146793  0  0.967047  0
C  C28  1  0.95092646  0.54039614  0.81490454  1  0  0.35098  0  3.693261  0  0  0.331161  0  3.952611  0  0  0.346645  0  3.968913  0  0  0.229205  0.320418  0  3.941932  0
C  C29  1  0.30552780  0.96012745  0.68497228  1  0  0.352872  0  3.69276  0  0  0.333082  0  3.95166  0  0  0.348484  0  3.968064  0  0  0.229796  0.32232  0  3.941063  0
C  C30  1  0.04907081  0.45960354  0.18509442  1  0  0.350898  0  3.693203  0  0  0.331068  0  3.952567  0  0  0.346553  0  3.968867  0  0  0.229135  0.320322  0  3.941887  0
C  C31  1  0.69447498  0.03986830  0.31503212  1  0  0.35282  0  3.692236  0  0  0.333063  0  3.951182  0  0  0.348465  0  3.967587  0  0  0.229748  0.3223  0  3.940586  0
C  C32  1  0.79092758  0.57616908  0.90173535  1  0  0.003566  0  3.856969  0  0  0.026374  0  4.087033  0  0  0.021272  0  4.108949  0  0  0.002483  0.029613  0  4.072303  0
C  C33  1  0.26856702  0.92414928  0.59804978  1  0  0.000796  0  3.861715  0  0  0.024226  0  4.0907  0  0  0.019138  0  4.112671  0  0  0.002876  0.027446  0  4.07604  0
C  C34  1  0.20907019  0.42383443  0.09826503  1  0  0.003562  0  3.857122  0  0  0.026379  0  4.087141  0  0  0.021277  0  4.109061  0  0  0.002426  0.02962  0  4.072405  0
C  C35  1  0.73144478  0.07584656  0.40194699  1  0  0.00089  0  3.861598  0  0  0.024214  0  4.090746  0  0  0.019129  0  4.112714  0  0  0.002885  0.027433  0  4.076092  0
C  C36  1  0.76629700  0.48742447  0.00944756  1  0  -0.066757  0  3.698109  0  0  -0.085236  0  3.93814  0  0  -0.085673  0  3.959473  0  0  -0.071914  -0.084516  0  3.923546  0
C  C37  1  0.26358114  0.01269699  0.49018020  1  0  -0.066317  0  3.697479  0  0  -0.085006  0  3.937808  0  0  -0.085536  0  3.959089  0  0  -0.071608  -0.084446  0  3.923399  0
C  C38  1  0.23369768  0.51257995  0.99055677  1  0  -0.066835  0  3.69806  0  0  -0.085263  0  3.938069  0  0  -0.085715  0  3.959384  0  0  -0.071901  -0.084542  0  3.923473  0
C  C39  1  0.73643191  0.98730273  0.50981437  1  0  -0.066221  0  3.697361  0  0  -0.084911  0  3.937711  0  0  -0.085441  0  3.958989  0  0  -0.07156  -0.084359  0  3.923302  0
C  C40  1  0.60969565  0.52299702  0.09442857  1  0  -0.117257  0  3.730079  0  0  -0.137189  0  3.979706  0  0  -0.142888  0  4.003705  0  0  -0.085767  -0.133423  0  3.963458  0
C  C41  1  0.22755598  0.97704808  0.40519033  1  0  -0.112525  0  3.73336  0  0  -0.13373  0  3.983166  0  0  -0.139225  0  4.007154  0  0  -0.085505  -0.130077  0  3.967118  0
C  C42  1  0.39030287  0.47700257  0.90557630  1  0  -0.117245  0  3.729869  0  0  -0.137127  0  3.979464  0  0  -0.142827  0  4.00347  0  0  -0.085748  -0.133361  0  3.963222  0
C  C43  1  0.77244761  0.02295061  0.59481004  1  0  -0.112598  0  3.73333  0  0  -0.133813  0  3.983184  0  0  -0.139308  0  4.007172  0  0  -0.08552  -0.130162  0  3.967142  0
C  C44  1  0.47815943  0.64541224  0.07342643  1  0  0.11697  0  3.758622  0  0  0.13591  0  3.995925  0  0  0.137993  0  4.020229  0  0  -0.004311  0.134628  0  3.979473  0
C  C45  1  0.19693550  0.85474769  0.42629228  1  0  0.111513  0  3.763195  0  0  0.132183  0  3.999032  0  0  0.134185  0  4.023355  0  0  -0.005617  0.130822  0  3.982609  0
C  C46  1  0.52183436  0.35458832  0.92657830  1  0  0.117038  0  3.758559  0  0  0.135932  0  3.995909  0  0  0.138019  0  4.020217  0  0  -0.00429  0.134642  0  3.97947  0
C  C47  1  0.80306766  0.14524808  0.57371031  1  0  0.111569  0  3.763013  0  0  0.132232  0  3.998859  0  0  0.13423  0  4.023189  0  0  -0.005593  0.130871  0  3.982434  0
C  C48  1  0.50347472  0.73250963  0.96554552  1  0  -0.113636  0  3.706064  0  0  -0.136563  0  3.962939  0  0  -0.141715  0  3.984642  0  0  -0.08765  -0.133307  0  3.948499  0
C  C49  1  0.20119357  0.76776113  0.53424067  1  0  -0.112527  0  3.703866  0  0  -0.13617  0  3.959857  0  0  -0.141307  0  3.981589  0  0  -0.088399  -0.132966  0  3.945484  0
C  C50  1  0.49652537  0.26749196  0.03445372  1  0  -0.11372  0  3.706138  0  0  -0.136638  0  3.963008  0  0  -0.141792  0  3.984706  0  0  -0.087686  -0.133378  0  3.948572  0
C  C51  1  0.79880649  0.23224050  0.46575573  1  0  -0.112689  0  3.703961  0  0  -0.136348  0  3.959989  0  0  -0.141485  0  3.981721  0  0  -0.088475  -0.133144  0  3.945613  0
C  C52  1  0.65800669  0.69871464  0.87923699  1  0  -0.046651  0  3.69083  0  0  -0.073077  0  3.939942  0  0  -0.071952  0  3.959557  0  0  -0.069451  -0.073657  0  3.926679  0
C  C53  1  0.23546291  0.80166958  0.62061103  1  0  -0.043849  0  3.691051  0  0  -0.069521  0  3.940176  0  0  -0.068431  0  3.959739  0  0  -0.068537  -0.069962  0  3.926928  0
C  C54  1  0.34198793  0.30128787  0.12076572  1  0  -0.046706  0  3.6909  0  0  -0.073095  0  3.939976  0  0  -0.071968  0  3.959586  0  0  -0.069424  -0.073662  0  3.926702  0
C  C55  1  0.76454307  0.19832812  0.37939183  1  0  -0.043738  0  3.691147  0  0  -0.069399  0  3.940261  0  0  -0.068311  0  3.959823  0  0  -0.068497  -0.069839  0  3.927009  0
C  C56  1  0.31077486  0.68351798  0.16533187  1  0  -0.176299  0  3.59939  0  0  -0.213223  0  3.840674  0  0  -0.213774  0  3.851151  0  0  -0.135553  -0.21289  0  3.833599  0
C  C57  1  0.15957200  0.81655867  0.33436772  1  0  -0.174702  0  3.596208  0  0  -0.213053  0  3.838433  0  0  -0.213562  0  3.848968  0  0  -0.136129  -0.212781  0  3.831339  0
C  C58  1  0.68922087  0.31648361  0.83466744  1  0  -0.176327  0  3.599201  0  0  -0.21325  0  3.840528  0  0  -0.213811  0  3.851005  0  0  -0.135538  -0.212914  0  3.833453  0
C  C59  1  0.84042887  0.18344194  0.66563276  1  0  -0.17468  0  3.596344  0  0  -0.213024  0  3.838575  0  0  -0.21353  0  3.849109  0  0  -0.136113  -0.212756  0  3.831486  0
S  S60  1  0.39601031  0.74999637  0.24996794  1  0  0.006864  0  3.079101  0  0  0.046332  0  3.603607  0  0  0.041214  0  3.580892  0  0  -0.032343  0.049975  0  3.619162  0
S  S61  1  0.60398695  0.25000330  0.75003102  1  0  0.006857  0  3.079003  0  0  0.046319  0  3.603494  0  0  0.041204  0  3.580785  0  0  -0.032338  0.049964  0  3.619051  0
N  N62  1  0.08396826  0.50999277  0.74460302  1  0  -0.429804  0  2.943  0  0  -0.37745  0  3.250189  0  0  -0.393695  0  3.251741  0  0  -0.347715  -0.366777  0  3.2496  0
N  N63  1  0.33755395  0.99065463  0.75534231  1  0  -0.431156  0  2.940877  0  0  -0.378741  0  3.24779  0  0  -0.394991  0  3.249438  0  0  -0.348489  -0.368146  0  3.247331  0
N  N64  1  0.91602274  0.49000979  0.25539615  1  0  -0.429718  0  2.94294  0  0  -0.377356  0  3.250134  0  0  -0.3936  0  3.251682  0  0  -0.347651  -0.366682  0  3.249543  0
N  N65  1  0.66246649  0.00934129  0.24464864  1  0  -0.431174  0  2.94032  0  0  -0.378747  0  3.247219  0  0  -0.394995  0  3.248865  0  0  -0.348482  -0.368152  0  3.246761  0
N  N66  1  0.31210562  0.36823000  0.44708393  1  0  0.687923  0  4.147494  0  0  0.720246  0  4.430574  0  0  0.748585  0  4.438748  0  0  0.089896  0.701014  0  4.424476  0
N  N67  1  0.12722566  0.13193831  0.05294575  1  0  0.684824  0  4.14592  0  0  0.719568  0  4.426133  0  0  0.747323  0  4.434651  0  0  0.090706  0.700446  0  4.419935  0
N  N68  1  0.68789668  0.63176781  0.55290973  1  0  0.688086  0  4.147289  0  0  0.720367  0  4.43041  0  0  0.748706  0  4.438585  0  0  0.090015  0.701137  0  4.424309  0
N  N69  1  0.87277521  0.86806132  0.94705675  1  0  0.684608  0  4.145896  0  0  0.719472  0  4.425993  0  0  0.747231  0  4.434502  0  0  0.090676  0.700349  0  4.419794  0
O  O70  1  0.34300558  0.47085923  0.45528587  1  0  -0.51395  0  1.855453  0  0  -0.484194  0  2.122582  0  0  -0.504285  0  2.110546  0  0  -0.22929  -0.469829  0  2.130351  0
O  O71  1  0.26931657  0.02952905  0.04483512  1  0  -0.514073  0  1.854219  0  0  -0.484785  0  2.120177  0  0  -0.504652  0  2.108243  0  0  -0.229829  -0.470504  0  2.12805  0
O  O72  1  0.65699557  0.52913855  0.54471038  1  0  -0.514112  0  1.85547  0  0  -0.484363  0  2.122638  0  0  -0.504453  0  2.110596  0  0  -0.229374  -0.469998  0  2.130407  0
O  O73  1  0.73068348  0.97047060  0.95516534  1  0  -0.514019  0  1.854206  0  0  -0.48477  0  2.120118  0  0  -0.50464  0  2.108185  0  0  -0.229839  -0.47049  0  2.12799  0
O  O74  1  0.27171390  0.28269649  0.53786956  1  0  -0.473299  0  1.75714  0  0  -0.456372  0  1.979466  0  0  -0.472832  0  1.972614  0  0  -0.195796  -0.444615  0  1.983805  0
O  O75  1  0.09197069  0.21735341  0.96209515  1  0  -0.470879  0  1.757669  0  0  -0.454454  0  1.978963  0  0  -0.470631  0  1.972145  0  0  -0.195027  -0.442836  0  1.983469  0
O  O76  1  0.72829072  0.71729940  0.46212295  1  0  -0.473322  0  1.757072  0  0  -0.456433  0  1.979486  0  0  -0.472891  0  1.972633  0  0  -0.195875  -0.444675  0  1.983825  0
O  O77  1  0.90802468  0.78264619  0.03791002  1  0  -0.470802  0  1.757673  0  0  -0.454393  0  1.978908  0  0  -0.470571  0  1.972091  0  0  -0.194965  -0.442773  0  1.983413  0
O  O78  1  0.32451571  0.35561952  0.35130042  1  0  -0.447289  0  1.756892  0  0  -0.43899  0  1.969915  0  0  -0.454478  0  1.966968  0  0  -0.179838  -0.427803  0  1.971583  0
O  O79  1  0.03102553  0.14448958  0.14868528  1  0  -0.446598  0  1.756007  0  0  -0.439667  0  1.968811  0  0  -0.454896  0  1.965931  0  0  -0.181188  -0.428575  0  1.97047  0
O  O80  1  0.67548394  0.64438311  0.64869293  1  0  -0.447295  0  1.756745  0  0  -0.43894  0  1.969749  0  0  -0.454431  0  1.966804  0  0  -0.179809  -0.427754  0  1.971421  0
O  O81  1  0.96898127  0.85550809  0.85131964  1  0  -0.446545  0  1.755981  0  0  -0.439641  0  1.968714  0  0  -0.454872  0  1.965835  0  0  -0.181201  -0.428549  0  1.970371  0
