# generated using pymatgen
data_CuH14C8N2O3
_symmetry_space_group_name_H-M   'P 1'
_cell_length_a   8.16720149
_cell_length_b   8.17435656
_cell_length_c   15.63121887
_cell_angle_alpha   90.02090136
_cell_angle_beta   89.92645233
_cell_angle_gamma   90.05341326
_symmetry_Int_Tables_number   1
_chemical_formula_structural   CuH14C8N2O3
_chemical_formula_sum   'Cu4 H56 C32 N8 O12'
_cell_volume   1043.56406619
_cell_formula_units_Z   4
loop_
 _symmetry_equiv_pos_site_id
 _symmetry_equiv_pos_as_xyz
  1  'x, y, z'
loop_
 _atom_site_type_symbol
 _atom_site_label
 _atom_site_symmetry_multiplicity
 _atom_site_fract_x
 _atom_site_fract_y
 _atom_site_fract_z
 _atom_site_occupancy
 _atom_site_pbe_cm5_charge
 _atom_site_pbe_ddec_charge
 _atom_site_pbe_ddec_spin_density
 _atom_site_pbe_ddec_sum_bond_order
 _atom_site_pbe_magmom
Cu  Cu0  1  0.58227945  0.81204901  0.74386723  1  0.725412  0.688971  0.679216  2.307711  0.506
Cu  Cu1  1  0.41742671  0.18859940  0.24407648  1  0.705775  0.657805  -0.063598  2.314541  -0.048
Cu  Cu2  1  0.18863523  0.58232993  0.49352079  1  0.712669  0.662643  0.049817  2.337088  0.037
Cu  Cu3  1  0.81179380  0.41774014  0.99365827  1  0.723982  0.686088  -0.667549  2.308381  -0.498
H  H4  1  0.71448808  0.05436896  0.92008790  1  0.099381  0.070803  0.00091  1.009208  0.001
H  H5  1  0.28446898  0.94583872  0.41997579  1  0.100139  0.071874  -7e-06  1.008622  0.0
H  H6  1  0.94950617  0.71519606  0.66893639  1  0.099752  0.0713  -0.000151  1.007434  0.0
H  H7  1  0.05278029  0.28503708  0.17011972  1  0.099461  0.071126  -0.000739  1.007449  -0.001
H  H8  1  0.52787425  0.98002635  0.96072438  1  0.107824  0.093883  0.001233  0.960051  0.001
H  H9  1  0.47034627  0.02093539  0.46081953  1  0.108677  0.095314  -0.00013  0.960766  0.0
H  H10  1  0.01875836  0.52778832  0.71062140  1  0.108022  0.094981  0.000155  0.960098  0.0
H  H11  1  0.97876888  0.47160327  0.21070430  1  0.107456  0.092993  -0.001244  0.961213  -0.001
H  H12  1  0.37419917  0.05575073  0.83769595  1  0.108725  0.087386  0.000188  0.99961  0.0
H  H13  1  0.62539531  0.94539824  0.33784746  1  0.10893  0.087817  -2.2e-05  0.999254  0.0
H  H14  1  0.94433771  0.37456756  0.58673407  1  0.108955  0.087559  2.7e-05  1.000093  0.0
H  H15  1  0.05553814  0.62513006  0.08762670  1  0.108726  0.087531  -0.000187  0.999961  0.0
H  H16  1  0.50865684  0.22527690  0.85393937  1  0.109095  0.104595  0.001919  0.982162  0.003
H  H17  1  0.49163051  0.77543583  0.35440608  1  0.108776  0.104279  -0.000179  0.982861  0.0
H  H18  1  0.77490900  0.50830582  0.60439686  1  0.108949  0.10431  0.000193  0.982205  0.0
H  H19  1  0.22500432  0.49085902  0.10401558  1  0.10883  0.103987  -0.001914  0.982504  -0.002
H  H20  1  0.33077943  0.04143412  0.69263976  1  0.102319  0.07908  0.000589  0.997725  0.001
H  H21  1  0.67006563  0.95872627  0.19340613  1  0.102364  0.079643  -2.8e-05  0.996945  0.0
H  H22  1  0.95886356  0.33135512  0.44334459  1  0.102003  0.078025  4.3e-05  0.997661  0.0
H  H23  1  0.04156236  0.66859857  0.94277066  1  0.102065  0.078505  -0.000598  0.997427  -0.001
H  H24  1  0.48765215  0.09506599  0.62030952  1  0.10314  0.08082  0.000367  0.998163  0.001
H  H25  1  0.51427411  0.90565347  0.12054262  1  0.103312  0.081216  3.6e-05  0.997659  0.0
H  H26  1  0.90553753  0.48643931  0.37016381  1  0.103062  0.080337  -2.6e-05  0.999011  0.0
H  H27  1  0.09558112  0.51229317  0.87035332  1  0.103345  0.08127  -0.000377  0.99765  -0.001
H  H28  1  0.30501479  0.32586275  0.63472158  1  0.09078  0.138695  0.000515  1.031763  0.001
H  H29  1  0.69638481  0.67431944  0.13493523  1  0.091369  0.138705  -0.00011  1.029128  0.0
H  H30  1  0.67469219  0.30366538  0.38446661  1  0.09103  0.138418  5.9e-05  1.029607  0.0
H  H31  1  0.32672150  0.69511623  0.88498421  1  0.091093  0.137833  -0.00045  1.029291  -0.001
H  H32  1  0.49020946  0.38503740  0.68487318  1  0.087858  0.130143  -1.2e-05  1.025789  0.0
H  H33  1  0.51044667  0.61537173  0.18464561  1  0.087515  0.129148  1.6e-05  1.024976  0.0
H  H34  1  0.61482532  0.48898406  0.43429868  1  0.087741  0.129244  -2e-05  1.024324  0.0
H  H35  1  0.38549933  0.50994244  0.93520487  1  0.08795  0.129954  2.2e-05  1.026043  0.0
H  H36  1  0.31982146  0.32880156  0.74844766  1  0.083794  0.1146  -7.6e-05  1.01811  0.0
H  H37  1  0.68012532  0.67109162  0.24866217  1  0.083696  0.114564  3e-06  1.018914  0.0
H  H38  1  0.67078722  0.31942220  0.49823604  1  0.084047  0.11527  -1.4e-05  1.017661  0.0
H  H39  1  0.32879443  0.67995962  0.99871023  1  0.083597  0.114294  8.8e-05  1.018789  0.0
H  H40  1  0.71193604  0.27645171  0.73080139  1  0.102858  0.089308  0.003949  1.005873  0.005
H  H41  1  0.28801335  0.72335737  0.23129004  1  0.102265  0.087796  -0.000343  1.007514  0.0
H  H42  1  0.72172805  0.71211427  0.48050496  1  0.102431  0.089201  0.000403  1.00699  0.0
H  H43  1  0.27642914  0.28747259  0.98106132  1  0.102602  0.089449  -0.004026  1.006282  -0.005
H  H44  1  0.79766021  0.11767285  0.79142746  1  0.106634  0.087826  -1.2e-05  0.996872  0.0
H  H45  1  0.20206417  0.88319503  0.29131951  1  0.106372  0.086744  -7e-06  0.998067  0.0
H  H46  1  0.88069076  0.79820223  0.54102738  1  0.106809  0.087453  7.5e-05  0.997375  0.0
H  H47  1  0.11676495  0.20206488  0.04152694  1  0.106747  0.087652  -6e-05  0.99711  0.0
H  H48  1  0.93938808  0.13321621  0.65397121  1  0.094325  0.134817  -0.000115  0.986799  0.0
H  H49  1  0.06206519  0.86668775  0.15358216  1  0.094141  0.134398  -1.4e-05  0.987321  0.0
H  H50  1  0.86662593  0.93842643  0.40305649  1  0.094087  0.134019  -7e-06  0.987359  0.0
H  H51  1  0.13297714  0.06067302  0.90410796  1  0.094324  0.134742  0.000136  0.987153  0.0
H  H52  1  0.75493293  0.10498836  0.59566305  1  0.089123  0.12137  4e-06  1.014761  0.0
H  H53  1  0.24744511  0.89372040  0.09566220  1  0.088966  0.120998  2e-05  1.015241  0.0
H  H54  1  0.89408133  0.75311322  0.34535617  1  0.088959  0.120717  -1.2e-05  1.01474  0.0
H  H55  1  0.10545588  0.24505364  0.84575262  1  0.089407  0.121832  -1.1e-05  1.014851  0.0
H  H56  1  0.83268772  0.94459533  0.66030310  1  0.083406  0.101157  -0.000343  1.074402  0.0
H  H57  1  0.16947481  0.05498538  0.15980437  1  0.083538  0.102203  -0.000113  1.07433  0.0
H  H58  1  0.05472587  0.83088869  0.41000201  1  0.082707  0.100456  -1.2e-05  1.074682  0.0
H  H59  1  0.94438312  0.16735010  0.91030930  1  0.083251  0.10124  0.000478  1.074973  0.0
C  C60  1  0.71739927  0.56337423  0.84068719  1  0.21125  0.485522  -0.000961  4.171106  -0.001
C  C61  1  0.28226060  0.43637889  0.34188303  1  0.211663  0.480165  3.6e-05  4.177597  0.0
C  C62  1  0.43761552  0.71938010  0.59014830  1  0.210015  0.483541  -0.000483  4.172983  -0.002
C  C63  1  0.56188026  0.28326657  0.09071527  1  0.21034  0.483326  0.001439  4.172519  0.003
C  C64  1  0.69677893  0.70920251  0.90201129  1  0.199615  0.331862  -0.001551  4.261125  -0.002
C  C65  1  0.30325487  0.29086031  0.40275279  1  0.1993  0.326992  -0.00013  4.272328  0.0
C  C66  1  0.29215383  0.69602619  0.65144781  1  0.200079  0.330265  0.000521  4.257265  0.001
C  C67  1  0.70794903  0.30345365  0.15187277  1  0.198782  0.330954  0.001267  4.260579  0.002
C  C68  1  0.59978568  0.99291038  0.90139139  1  -0.065588  -0.011938  0.002621  3.954326  0.001
C  C69  1  0.39922214  0.00736660  0.40140392  1  -0.064493  -0.012422  -0.000189  3.954668  0.0
C  C70  1  0.00839737  0.59879875  0.65095633  1  -0.065239  -0.013742  0.000326  3.956807  0.0
C  C71  1  0.99191325  0.39987099  0.15136738  1  -0.065185  -0.011981  -0.002761  3.956997  -0.001
C  C72  1  0.50278398  0.09492901  0.83684486  1  -0.071055  -0.102384  0.001987  3.854338  0.0
C  C73  1  0.49699474  0.90562615  0.33699606  1  -0.071153  -0.103891  -0.000128  3.860203  0.0
C  C74  1  0.90509058  0.50298014  0.58655822  1  -0.071255  -0.103327  0.000221  3.860332  0.0
C  C75  1  0.09462477  0.49668406  0.08687690  1  -0.071075  -0.102607  -0.00203  3.856748  0.0
C  C76  1  0.43754715  0.12177101  0.68395160  1  -0.077392  -0.027263  0.000687  3.909863  -0.002
C  C77  1  0.56338476  0.87850202  0.18427800  1  -0.076689  -0.027937  6e-06  3.909871  0.0
C  C78  1  0.87821519  0.43747563  0.43393867  1  -0.076976  -0.026448  -4e-06  3.91036  0.0
C  C79  1  0.12207985  0.56214519  0.93402830  1  -0.07666  -0.026277  -0.000658  3.908621  0.002
C  C80  1  0.38597870  0.30058973  0.68902430  1  -0.254763  -0.389218  0.005287  3.918601  0.006
C  C81  1  0.61480506  0.69956182  0.18912011  1  -0.25373  -0.387612  -0.000473  3.916539  -0.001
C  C82  1  0.69932791  0.38504732  0.43874294  1  -0.253467  -0.387972  0.000378  3.915956  0.0
C  C83  1  0.30103412  0.61397750  0.93923404  1  -0.254424  -0.387876  -0.005173  3.917651  -0.005
C  C84  1  0.72539712  0.14267112  0.73390452  1  -0.077572  -0.026382  0.001893  3.87872  -0.001
C  C85  1  0.27504471  0.85726985  0.23403020  1  -0.077108  -0.025601  -0.000242  3.88239  0.0
C  C86  1  0.85572620  0.72545095  0.48361597  1  -0.077557  -0.026427  0.000408  3.882691  0.0
C  C87  1  0.14245544  0.27428968  0.98401575  1  -0.077588  -0.026718  -0.001999  3.8811  0.0
C  C88  1  0.81687307  0.07772804  0.65627601  1  -0.244278  -0.38303  0.000918  3.960351  0.001
C  C89  1  0.18475044  0.92175190  0.15606064  1  -0.244277  -0.383125  -0.000261  3.959286  0.0
C  C90  1  0.92133565  0.81580098  0.40582382  1  -0.243808  -0.381197  0.000111  3.959266  0.0
C  C91  1  0.07769672  0.18308949  0.90634809  1  -0.244263  -0.383057  -0.000724  3.961746  -0.001
N  N92  1  0.63258605  0.83605832  0.86210073  1  -0.431307  -0.415928  0.072766  3.667112  0.089
N  N93  1  0.36584471  0.16420760  0.36232018  1  -0.426504  -0.402627  -0.004843  3.668263  -0.006
N  N94  1  0.16648379  0.62805284  0.61194893  1  -0.430093  -0.405772  0.005126  3.662392  0.006
N  N95  1  0.83507532  0.36761807  0.11191760  1  -0.431865  -0.414598  -0.072624  3.667575  -0.089
N  N96  1  0.56144547  0.06708400  0.74762150  1  -0.344069  -0.102537  0.086371  3.473361  0.109
N  N97  1  0.43884367  0.93269011  0.24783318  1  -0.342787  -0.098605  -0.007489  3.474758  -0.009
N  N98  1  0.93168125  0.56230630  0.49741424  1  -0.341676  -0.099795  0.00667  3.473316  0.008
N  N99  1  0.06713671  0.43809234  0.99765666  1  -0.344192  -0.103114  -0.085279  3.474677  -0.107
O  O100  1  0.67397839  0.58012891  0.76310288  1  -0.303097  -0.491465  0.053596  2.339791  0.072
O  O101  1  0.32533428  0.42125331  0.26432933  1  -0.291332  -0.472961  -0.004196  2.339552  -0.006
O  O102  1  0.41981751  0.68103021  0.51187062  1  -0.301525  -0.489869  0.006147  2.33701  0.008
O  O103  1  0.57933431  0.32506312  0.01290189  1  -0.302989  -0.491585  -0.055056  2.340019  -0.074
O  O104  1  0.77934186  0.43223937  0.86986636  1  -0.315572  -0.487213  -0.026449  2.427015  -0.035
O  O105  1  0.21983581  0.56742091  0.37123689  1  -0.307744  -0.468036  0.001608  2.437053  0.002
O  O106  1  0.56933143  0.77951626  0.61991898  1  -0.315548  -0.487707  0.033445  2.4266  0.044
O  O107  1  0.42983671  0.22340006  0.12038156  1  -0.31423  -0.482797  -0.00802  2.426844  -0.011
O  O108  1  0.74044442  0.69635885  0.97930290  1  -0.322697  -0.504331  0.014316  2.210956  0.019
O  O109  1  0.26124665  0.30412083  0.48041470  1  -0.318384  -0.497645  -0.000978  2.206671  -0.001
O  O110  1  0.30341850  0.74192307  0.72850842  1  -0.322085  -0.503015  0.00103  2.208703  0.002
O  O111  1  0.69525760  0.25961372  0.22917831  1  -0.322323  -0.502985  -0.014436  2.215694  -0.019
