# generated using pymatgen
data_Mn2SiH20(C14O5)2
_symmetry_space_group_name_H-M   'P 1'
_cell_length_a   13.15083630
_cell_length_b   13.89682086
_cell_length_c   14.77994513
_cell_angle_alpha   116.44848173
_cell_angle_beta   114.79110057
_cell_angle_gamma   93.15357409
_symmetry_Int_Tables_number   1
_chemical_formula_structural   Mn2SiH20(C14O5)2
_chemical_formula_sum   'Mn4 Si2 H40 C56 O20'
_cell_volume   2096.15047705
_cell_formula_units_Z   2
loop_
 _symmetry_equiv_pos_site_id
 _symmetry_equiv_pos_as_xyz
  1  'x, y, z'
loop_
 _atom_site_type_symbol
 _atom_site_label
 _atom_site_symmetry_multiplicity
 _atom_site_fract_x
 _atom_site_fract_y
 _atom_site_fract_z
 _atom_site_occupancy
 _atom_site_pbe_bader_charge
 _atom_site_pbe_bader_spin_density
 _atom_site_pbe_cm5_charge
 _atom_site_pbe_ddec_charge
 _atom_site_pbe_ddec_spin_density
 _atom_site_pbe_ddec_sum_bond_order
 _atom_site_pbe_magmom
Mn  Mn0  1  0.56659985  0.31639864  0.63261398  1  1.487685  4.584307  0.603376  0.990595  4.700076  2.182011  4.488
Mn  Mn1  1  0.43345930  0.68359126  0.36744279  1  1.487709  4.58427  0.603389  0.990572  4.700252  2.182009  4.488
Mn  Mn2  1  0.50001132  0.49999834  0.50000848  1  1.565004  4.546012  0.61464  1.1228  4.663501  2.263745  4.488
Mn  Mn3  1  0.49999954  0.99995435  0.50001192  1  1.566819  4.545146  0.614813  1.123665  4.662998  2.262675  4.487
Si  Si4  1  0.79647524  0.04653292  0.09305090  1  2.669567  0.000236  0.139025  0.671845  0.000962  3.843857  0.0
Si  Si5  1  0.20352538  0.95347386  0.90695606  1  2.669339  0.000236  0.138992  0.67176  0.000963  3.843628  0.0
H  H6  1  0.64460100  0.36462178  0.48986928  1  0.649727  0.001348  0.295872  0.380833  0.000671  0.968058  0.002
H  H7  1  0.34542499  0.12523650  0.48989834  1  0.64412  0.001359  0.29618  0.38214  0.000665  0.966799  0.002
H  H8  1  0.35540006  0.63536479  0.51013070  1  0.649564  0.001349  0.295954  0.380894  0.000674  0.968085  0.002
H  H9  1  0.65459229  0.87475936  0.51009059  1  0.644247  0.001358  0.296115  0.382054  0.000666  0.966931  0.002
H  H10  1  0.71664652  0.48385121  0.52556775  1  0.603989  0.002937  0.332011  0.407021  0.001533  0.867045  0.002
H  H11  1  0.30895350  0.04161652  0.52548230  1  0.607236  0.002944  0.332198  0.40706  0.001532  0.867336  0.002
H  H12  1  0.28338924  0.51611770  0.47442687  1  0.603738  0.002936  0.332085  0.407146  0.00153  0.866815  0.002
H  H13  1  0.69100920  0.95839786  0.47449348  1  0.607624  0.002946  0.332166  0.40699  0.001534  0.867404  0.002
H  H14  1  0.96232522  0.07331359  0.32013590  1  0.05772  0.000133  0.101126  0.093775  6.4e-05  1.003871  0.0
H  H15  1  0.85770393  0.24683985  0.32002664  1  0.050737  0.000133  0.101505  0.095519  6.4e-05  1.001603  0.0
H  H16  1  0.03767899  0.92669404  0.67986192  1  0.057861  0.000133  0.101173  0.093865  6.4e-05  1.003809  0.0
H  H17  1  0.14228639  0.75316608  0.67998019  1  0.050573  0.000133  0.10153  0.094313  6.4e-05  1.003116  0.0
H  H18  1  0.17499377  0.16469886  0.45628533  1  0.06761  0.000954  0.103448  0.099271  0.000323  1.01075  0.0
H  H19  1  0.78135300  0.29142064  0.45624404  1  0.079074  0.000945  0.103476  0.098982  0.000315  1.010647  0.0
H  H20  1  0.82501053  0.83530373  0.54370567  1  0.067378  0.000955  0.103411  0.099204  0.000323  1.010824  0.0
H  H21  1  0.21863600  0.70858108  0.54375919  1  0.078818  0.000944  0.103516  0.099039  0.000315  1.010577  0.0
H  H22  1  0.20449210  0.24919630  0.21984807  1  0.103985  0.000122  0.098484  0.095908  -0.000271  1.072861  0.0
H  H23  1  0.51528623  0.97059129  0.21977168  1  0.092043  0.000123  0.098273  0.095851  -0.000271  1.073424  0.0
H  H24  1  0.79551048  0.75080881  0.78014741  1  0.104048  0.000122  0.098486  0.095939  -0.000271  1.072871  0.0
H  H25  1  0.48470135  0.02941129  0.78022325  1  0.092014  0.000123  0.098236  0.095701  -0.000271  1.073477  0.0
H  H26  1  0.99106668  0.15884137  0.08250767  1  0.079587  7.2e-05  0.09879  0.091496  2.2e-05  1.023154  0.0
H  H27  1  0.59133050  0.92370736  0.08246586  1  0.079645  6.4e-05  0.099005  0.091658  1.7e-05  1.024433  0.0
H  H28  1  0.00893720  0.84116795  0.91748871  1  0.079243  7.1e-05  0.098777  0.091464  2.2e-05  1.023163  0.0
H  H29  1  0.40865722  0.07630111  0.91753161  1  0.079671  6.4e-05  0.099068  0.091727  1.6e-05  1.024481  0.0
H  H30  1  0.58019136  0.88106807  0.87810117  1  0.05152  5.1e-05  0.097715  0.089811  5e-06  1.028478  0.0
H  H31  1  0.79752268  0.99688018  0.87795706  1  0.078476  4.3e-05  0.097405  0.089081  -2e-06  1.02905  0.0
H  H32  1  0.41980175  0.11893619  0.12189247  1  0.051539  5.1e-05  0.097781  0.089909  5e-06  1.028372  0.0
H  H33  1  0.20248302  0.00312408  0.12205072  1  0.078523  4.3e-05  0.097422  0.089087  -2e-06  1.029107  0.0
H  H34  1  0.52107955  0.67550522  0.74159274  1  0.13599  0.000402  0.107908  0.114784  -0.000279  1.014636  0.0
H  H35  1  0.72025859  0.06610283  0.74149959  1  0.111318  0.000405  0.10798  0.115118  -0.000279  1.014685  0.0
H  H36  1  0.47891825  0.32450074  0.25839523  1  0.136129  0.000402  0.107874  0.114805  -0.000279  1.014725  0.0
H  H37  1  0.27973659  0.93389721  0.25850388  1  0.111231  0.000403  0.107975  0.115069  -0.00028  1.014688  0.0
H  H38  1  0.85741959  0.66096198  0.95429654  1  0.098574  0.00042  0.110671  0.115647  7e-05  0.985443  0.0
H  H39  1  0.59690963  0.29344633  0.95423155  1  0.0945  0.000411  0.110704  0.115917  6.6e-05  0.986151  0.0
H  H40  1  0.14258204  0.33904818  0.04569800  1  0.098706  0.00042  0.110687  0.115693  7e-05  0.9855  0.0
H  H41  1  0.40309085  0.70655455  0.04577490  1  0.09446  0.000411  0.110717  0.115891  6.6e-05  0.986164  0.0
H  H42  1  0.91908027  0.86811866  0.09241759  1  0.081087  4.4e-05  0.099199  0.092058  -9e-06  1.011402  0.0
H  H43  1  0.67331690  0.22430731  0.09234236  1  0.049945  4.1e-05  0.099056  0.091659  -9e-06  1.011154  0.0
H  H44  1  0.08091769  0.13189319  0.90757698  1  0.081863  4.4e-05  0.099159  0.092062  -9e-06  1.011473  0.0
H  H45  1  0.32669075  0.77569778  0.90767056  1  0.049936  4.1e-05  0.099065  0.091636  -9e-06  1.011166  0.0
C  C46  1  0.96015956  0.10860381  0.19060032  1  -0.665348  0.004174  -0.054266  -0.204332  0.003095  3.967754  0.002
C  C47  1  0.73035996  0.08204738  0.19055389  1  -0.669854  0.004173  -0.054729  -0.204336  0.003095  3.968927  0.002
C  C48  1  0.03983967  0.89140130  0.80939391  1  -0.665416  0.004179  -0.054252  -0.204132  0.003098  3.96768  0.002
C  C49  1  0.26963374  0.91795604  0.80944638  1  -0.670902  0.004193  -0.054681  -0.204179  0.003109  3.968628  0.002
C  C50  1  0.01487846  0.11027364  0.29631018  1  -0.055231  -0.00058  -0.084187  -0.0717  -0.000629  4.025092  -0.001
C  C51  1  0.78134663  0.18604493  0.29622304  1  -0.008124  -0.000591  -0.084482  -0.073339  -0.00063  4.024402  -0.001
C  C52  1  0.98512296  0.88973316  0.70368355  1  -0.055463  -0.000579  -0.084258  -0.071855  -0.000629  4.025165  -0.001
C  C53  1  0.21864259  0.81396016  0.70378168  1  -0.00657  -0.000601  -0.084558  -0.072486  -0.00064  4.024665  -0.001
C  C54  1  0.13480528  0.16145420  0.37340712  1  -0.043487  0.00468  -0.086132  -0.093949  0.003385  3.984186  0.003
C  C55  1  0.73857854  0.21185695  0.37333455  1  -0.113691  0.00469  -0.086237  -0.094  0.003363  3.984186  0.003
C  C56  1  0.86519594  0.83854923  0.62658444  1  -0.042632  0.004683  -0.086066  -0.093924  0.003388  3.984235  0.003
C  C57  1  0.26140910  0.78814309  0.62666611  1  -0.113401  0.00471  -0.086242  -0.093735  0.003378  3.983603  0.003
C  C58  1  0.20337237  0.21239403  0.34613376  1  -0.064366  0.002125  -0.019844  -0.046619  0.000958  3.984602  0.001
C  C59  1  0.64274628  0.13362892  0.34605567  1  0.012142  0.002062  -0.020347  -0.047018  0.000977  3.985744  0.001
C  C60  1  0.79663388  0.78760940  0.65386170  1  -0.065453  0.002123  -0.019898  -0.04644  0.000954  3.984703  0.001
C  C61  1  0.35724116  0.86636776  0.65394350  1  0.011873  0.002051  -0.020227  -0.047273  0.000966  3.985955  0.001
C  C62  1  0.15041418  0.20979334  0.24037672  1  -0.059225  0.004148  -0.087321  -0.096791  0.002976  3.969237  0.003
C  C63  1  0.58985214  0.03054760  0.24026050  1  -0.030098  0.004199  -0.086501  -0.096074  0.003021  3.970663  0.003
C  C64  1  0.84958897  0.79021093  0.75961794  1  -0.058608  0.00415  -0.08721  -0.096768  0.002978  3.969284  0.003
C  C65  1  0.41013549  0.96945245  0.75973271  1  -0.029821  0.004219  -0.086514  -0.095724  0.003036  3.970473  0.003
C  C66  1  0.03046445  0.15834536  0.16359800  1  -0.025916  -0.000609  -0.082378  -0.062219  -0.000619  3.999447  -0.001
C  C67  1  0.63302617  0.00528617  0.16351818  1  -0.072399  -0.000592  -0.082532  -0.062795  -0.000611  4.002747  -0.001
C  C68  1  0.96953807  0.84166228  0.83639649  1  -0.025632  -0.000606  -0.082404  -0.062295  -0.000617  3.999559  -0.001
C  C69  1  0.36696413  0.99471977  0.83648054  1  -0.072545  -0.0006  -0.08255  -0.062952  -0.00062  4.00287  -0.001
C  C70  1  0.33154393  0.27151107  0.42826043  1  1.568922  0.024574  0.23601  0.609483  0.02298  4.128898  0.021
C  C71  1  0.59683324  0.15659658  0.42822896  1  1.537609  0.024797  0.235856  0.610286  0.023113  4.129208  0.022
C  C72  1  0.66847257  0.72849572  0.57174160  1  1.568391  0.024604  0.235906  0.609199  0.023003  4.129347  0.021
C  C73  1  0.40315086  0.84337566  0.57177224  1  1.536324  0.024865  0.235988  0.610601  0.023171  4.128994  0.022
C  C74  1  0.75418090  0.88986202  0.99564702  1  -0.695136  0.005405  -0.054977  -0.206306  0.003998  3.978103  0.003
C  C75  1  0.74123706  0.10570210  0.99552817  1  -0.658772  0.005459  -0.054647  -0.206651  0.004038  3.98003  0.003
C  C76  1  0.24581435  0.11014645  0.00434986  1  -0.696414  0.005408  -0.054843  -0.206048  0.004  3.978069  0.003
C  C77  1  0.25876612  0.89430216  0.00447800  1  -0.658739  0.005458  -0.054645  -0.206704  0.004038  3.980056  0.003
C  C78  1  0.64156647  0.83370335  0.89651759  1  -0.006866  -0.000802  -0.083083  -0.069174  -0.000861  4.005392  -0.001
C  C79  1  0.75463698  0.06271715  0.89637955  1  -0.076645  -0.000774  -0.082082  -0.067044  -0.000834  4.00509  -0.001
C  C80  1  0.35842909  0.16630344  0.10347600  1  -0.006502  -0.00081  -0.083103  -0.069184  -0.000868  4.005345  -0.001
C  C81  1  0.24536789  0.93728711  0.10362859  1  -0.076651  -0.000774  -0.082151  -0.067127  -0.000833  4.005189  -0.001
C  C82  1  0.60773542  0.71845865  0.81904274  1  -0.062781  0.005119  -0.076307  -0.079954  0.00351  3.934331  0.003
C  C83  1  0.71107084  0.10056915  0.81892383  1  -0.044203  0.00512  -0.077065  -0.081553  0.003513  3.937055  0.003
C  C84  1  0.39226290  0.28154899  0.18094614  1  -0.063295  0.005125  -0.076327  -0.080137  0.003514  3.934471  0.003
C  C85  1  0.28892440  0.89942837  0.18107724  1  -0.044014  0.005118  -0.077034  -0.081406  0.003511  3.93705  0.003
C  C86  1  0.68648859  0.65661433  0.83936256  1  -0.048055  -0.002172  -0.013138  -0.030672  -0.003649  3.974572  -0.003
C  C87  1  0.65278127  0.18281698  0.83929079  1  -0.044446  -0.002154  -0.012988  -0.030492  -0.003626  3.976302  -0.003
C  C88  1  0.31351088  0.34339163  0.16062536  1  -0.048824  -0.002178  -0.013192  -0.030571  -0.003656  3.974581  -0.003
C  C89  1  0.34721094  0.81717885  0.16071183  1  -0.044735  -0.002151  -0.012947  -0.030436  -0.003622  3.976137  -0.003
C  C90  1  0.79778860  0.71058452  0.93942619  1  -0.004643  0.00557  -0.076675  -0.087652  0.004152  3.944148  0.003
C  C91  1  0.64157349  0.22887122  0.93932561  1  -0.076102  0.005578  -0.076793  -0.088292  0.004156  3.945981  0.003
C  C92  1  0.20221051  0.28942564  0.06056607  1  -0.003831  0.005573  -0.076672  -0.087743  0.004156  3.94436  0.003
C  C93  1  0.35842672  0.77112882  0.06067972  1  -0.010574  0.005564  -0.076828  -0.088277  0.004155  3.94596  0.003
C  C94  1  0.83119060  0.82629899  0.01624798  1  -0.107024  -0.001173  -0.083727  -0.070223  -0.001229  4.016166  -0.001
C  C95  1  0.68497825  0.18996042  0.01617390  1  0.011929  -0.001194  -0.083482  -0.069346  -0.001233  4.015298  -0.001
C  C96  1  0.16880658  0.17371033  0.98374658  1  -0.106782  -0.001178  -0.083785  -0.070396  -0.001235  4.016557  -0.001
C  C97  1  0.31502080  0.81004131  0.98383238  1  -0.053129  -0.001181  -0.08348  -0.069281  -0.001232  4.015325  -0.001
C  C98  1  0.65181712  0.53454140  0.75391200  1  1.520574  0.023575  0.216504  0.571331  0.024526  4.168368  0.019
C  C99  1  0.60206389  0.21948934  0.75382865  1  1.512141  0.02358  0.216289  0.571976  0.024471  4.16784  0.019
C  C100  1  0.34817985  0.46546455  0.24607972  1  1.521141  0.023555  0.216371  0.571025  0.02451  4.168963  0.019
C  C101  1  0.39792185  0.78049638  0.24617274  1  1.512213  0.023576  0.216345  0.571881  0.02447  4.168257  0.019
O  O102  1  0.63931538  0.42892042  0.47530930  1  -1.244924  0.053893  -0.553714  -0.762809  0.040167  2.096974  0.024
O  O103  1  0.33597886  0.04632836  0.47521666  1  -1.242925  0.053948  -0.554477  -0.76434  0.040171  2.094621  0.024
O  O104  1  0.36070509  0.57107205  0.52469698  1  -1.244579  0.053924  -0.553868  -0.763066  0.040177  2.096592  0.024
O  O105  1  0.66403448  0.95367085  0.52478643  1  -1.243332  0.053995  -0.554375  -0.764128  0.040196  2.094835  0.024
O  O106  1  0.38401190  0.25077508  0.51047785  1  -1.206656  0.071527  -0.301235  -0.564472  0.048853  2.345103  0.031
O  O107  1  0.62679544  0.25955195  0.51046359  1  -1.202901  0.071735  -0.301512  -0.564907  0.04897  2.345733  0.031
O  O108  1  0.61600680  0.74923340  0.48952368  1  -1.206308  0.071543  -0.301209  -0.564321  0.048878  2.345524  0.031
O  O109  1  0.37317114  0.74042872  0.48952586  1  -1.202304  0.071748  -0.30158  -0.564942  0.048984  2.34554  0.031
O  O110  1  0.38152327  0.33835234  0.41256991  1  -1.201185  0.06203  -0.29991  -0.56773  0.044593  2.340267  0.026
O  O111  1  0.53112627  0.07414485  0.41259054  1  -1.200558  0.061989  -0.299596  -0.568057  0.044594  2.341861  0.026
O  O112  1  0.61848312  0.66165699  0.58742808  1  -1.200642  0.061994  -0.299912  -0.567736  0.044604  2.340468  0.026
O  O113  1  0.46891147  0.92581392  0.58743234  1  -1.20001  0.062076  -0.299709  -0.568255  0.044649  2.342179  0.026
O  O114  1  0.55400208  0.48986783  0.65554062  1  -1.22144  0.098707  -0.315477  -0.614043  0.073419  2.36009  0.044
O  O115  1  0.60136577  0.16564856  0.65543319  1  -1.222628  0.098677  -0.315395  -0.614396  0.073399  2.361122  0.044
O  O116  1  0.44600198  0.51012044  0.34444766  1  -1.221666  0.098725  -0.315436  -0.61397  0.073432  2.359907  0.044
O  O117  1  0.39859863  0.83433042  0.34455947  1  -1.222779  0.098677  -0.315268  -0.614319  0.073394  2.361328  0.044
O  O118  1  0.71330490  0.47278007  0.77631564  1  -1.165939  0.068013  -0.303718  -0.525358  0.045815  2.134896  0.036
O  O119  1  0.56318227  0.30376076  0.77619685  1  -1.161882  0.067888  -0.303917  -0.525773  0.045909  2.135301  0.036
O  O120  1  0.28669896  0.52723176  0.22369532  1  -1.166281  0.068002  -0.303586  -0.525069  0.045785  2.135143  0.036
O  O121  1  0.43682236  0.69624263  0.22382100  1  -1.162149  0.067922  -0.304033  -0.525798  0.045909  2.135509  0.036
