# generated using pymatgen
data_FeH4C14(SN3)2
_symmetry_space_group_name_H-M   'P 1'
_cell_length_a   5.52578941
_cell_length_b   5.93542883
_cell_length_c   11.26752395
_cell_angle_alpha   77.32869572
_cell_angle_beta   82.43367727
_cell_angle_gamma   75.95811873
_symmetry_Int_Tables_number   1
_chemical_formula_structural   FeH4C14(SN3)2
_chemical_formula_sum   'Fe1 H4 C14 S2 N6'
_cell_volume   348.57353744
_cell_formula_units_Z   1
loop_
 _symmetry_equiv_pos_site_id
 _symmetry_equiv_pos_as_xyz
  1  'x, y, z'
loop_
 _atom_site_type_symbol
 _atom_site_label
 _atom_site_symmetry_multiplicity
 _atom_site_fract_x
 _atom_site_fract_y
 _atom_site_fract_z
 _atom_site_occupancy
 _atom_site_pbe_bader_spin_density
 _atom_site_pbe_cm5_charge
 _atom_site_pbe_ddec_charge
 _atom_site_pbe_ddec_spin_density
 _atom_site_pbe_ddec_sum_bond_order
 _atom_site_pbe_magmom
Fe  Fe0  1  0.97718558  0.01923454  0.00904744  1  0  0.785225  0.627962  0  3.871066  0
H  H1  1  0.44737505  0.79684646  0.30545811  1  0  0.107457  0.114229  0  1.008723  0
H  H2  1  0.55934621  0.19475301  0.69216058  1  0  0.107047  0.11298  0  1.014094  0
H  H3  1  0.28117192  0.16245401  0.54737243  1  0  0.104377  0.114109  0  1.049389  0
H  H4  1  0.72628377  0.82886588  0.45012411  1  0  0.105267  0.115604  0  1.048331  0
C  C5  1  0.47228722  0.66635865  0.39016711  1  0  -0.076372  -0.103874  0  3.926627  0
C  C6  1  0.53548645  0.32476170  0.60723830  1  0  -0.073921  -0.099026  0  3.922446  0
C  C7  1  0.34347276  0.47749589  0.41506972  1  0  0.018127  0.111426  0  4.001959  0
C  C8  1  0.66448490  0.51358418  0.58224479  1  0  0.017026  0.109726  0  4.001679  0
C  C9  1  0.38078790  0.30622945  0.52604565  1  0  -0.077161  -0.113257  0  3.919015  0
C  C10  1  0.62751851  0.68447493  0.47116574  1  0  -0.076729  -0.113463  0  3.923271  0
C  C11  1  0.17820410  0.46110886  0.33259185  1  0  0.016017  -0.073548  0  4.098042  0
C  C12  1  0.82557630  0.53361769  0.66561595  1  0  0.020463  -0.067514  0  4.096462  0
C  C13  1  0.06103522  0.26727692  0.35082794  1  0  0.18626  0.243059  0  4.034158  0
C  C14  1  0.94236013  0.72795593  0.64671564  1  0  0.187802  0.245719  0  4.024152  0
C  C15  1  0.11523906  0.63560503  0.22930244  1  0  0.21357  0.28053  0  3.975934  0
C  C16  1  0.87652002  0.36927974  0.77379593  1  0  0.215854  0.284755  0  3.973593  0
C  C17  1  0.59739679  0.80863860  0.92223031  1  0  0.159865  0.240629  0  4.274905  0
C  C18  1  0.40152233  0.19772202  0.07769671  1  0  0.171303  0.246849  0  4.184864  0
S  S19  1  0.36957763  0.74842821  0.86677734  1  0  -0.048866  -0.163808  0  2.389275  0
S  S20  1  0.65592302  0.24068782  0.12078199  1  0  -0.035111  -0.113604  0  2.657998  0
N  N21  1  0.96502128  0.10744714  0.36302814  1  0  -0.278526  -0.328557  0  2.830707  0
N  N22  1  0.03787325  0.88815491  0.63437138  1  0  -0.276873  -0.32321  0  2.820618  0
N  N23  1  0.05613246  0.78115666  0.14319608  1  0  -0.347948  -0.302104  0  3.486435  0
N  N24  1  0.92235051  0.23817968  0.86626543  1  0  -0.349974  -0.303856  0  3.493568  0
N  N25  1  0.76061914  0.85780240  0.96233215  1  0  -0.395721  -0.383901  0  3.469301  0
N  N26  1  0.21925100  0.16187452  0.04838272  1  0  -0.378457  -0.357854  0  3.447398  0
