# generated using pymatgen
data_GdH7C14(NO4)2
_symmetry_space_group_name_H-M   'P 1'
_cell_length_a   8.35671735
_cell_length_b   12.27168954
_cell_length_c   13.52693326
_cell_angle_alpha   102.06403025
_cell_angle_beta   90.00011710
_cell_angle_gamma   89.99988805
_symmetry_Int_Tables_number   1
_chemical_formula_structural   GdH7C14(NO4)2
_chemical_formula_sum   'Gd4 H28 C56 N8 O32'
_cell_volume   1356.56425084
_cell_formula_units_Z   4
loop_
 _symmetry_equiv_pos_site_id
 _symmetry_equiv_pos_as_xyz
  1  'x, y, z'
loop_
 _atom_site_type_symbol
 _atom_site_label
 _atom_site_symmetry_multiplicity
 _atom_site_fract_x
 _atom_site_fract_y
 _atom_site_fract_z
 _atom_site_occupancy
 _atom_site_hle17_bader_spin_density
 _atom_site_hle17_ddec_charge
 _atom_site_hle17_ddec_spin_density
 _atom_site_hle17_ddec_sum_bond_order
 _atom_site_hle17_magmom
 _atom_site_hse06_10hf_bader_spin_density
 _atom_site_hse06_10hf_ddec_charge
 _atom_site_hse06_10hf_ddec_spin_density
 _atom_site_hse06_10hf_ddec_sum_bond_order
 _atom_site_hse06_10hf_magmom
 _atom_site_hse06_bader_spin_density
 _atom_site_hse06_ddec_charge
 _atom_site_hse06_ddec_spin_density
 _atom_site_hse06_ddec_sum_bond_order
 _atom_site_hse06_magmom
 _atom_site_pbe_bader_spin_density
 _atom_site_pbe_cm5_charge
 _atom_site_pbe_ddec_charge
 _atom_site_pbe_ddec_spin_density
 _atom_site_pbe_ddec_sum_bond_order
 _atom_site_pbe_magmom
Gd  Gd0  1  0.22820633  0.30037006  0.68370652  1  0  2.094245  0  1.90095  0  0  1.963459  0  2.311843  0  0  2.025743  0  2.246233  0  0  1.502594  1.91588  0  2.363261  0
Gd  Gd1  1  0.72820493  0.69962637  0.81629539  1  0  2.094278  0  1.900696  0  0  1.963499  0  2.311591  0  0  2.025746  0  2.246041  0  0  1.502604  1.915854  0  2.363088  0
Gd  Gd2  1  0.77179420  0.69962919  0.31629665  1  0  2.094281  0  1.900848  0  0  1.963453  0  2.311852  0  0  2.025745  0  2.24623  0  0  1.502563  1.915817  0  2.363341  0
Gd  Gd3  1  0.27179679  0.30037456  0.18370589  1  0  2.09431  0  1.900698  0  0  1.963487  0  2.311667  0  0  2.025768  0  2.246063  0  0  1.502596  1.915862  0  2.363116  0
H  H4  1  0.64274553  0.47668100  0.61370286  1  0  0.130764  0  0.954928  0  0  0.136581  0  1.017931  0  0  0.141152  0  1.014696  0  0  0.121979  0.133252  0  1.020466  0
H  H5  1  0.14274575  0.52331634  0.88630060  1  0  0.130793  0  0.954895  0  0  0.13661  0  1.017911  0  0  0.141181  0  1.014675  0  0  0.12199  0.133277  0  1.020452  0
H  H6  1  0.35724662  0.52331074  0.38630257  1  0  0.130811  0  0.954893  0  0  0.136567  0  1.017985  0  0  0.141136  0  1.014753  0  0  0.121977  0.133232  0  1.020527  0
H  H7  1  0.85725119  0.47668623  0.11370765  1  0  0.130751  0  0.954891  0  0  0.136566  0  1.017916  0  0  0.141138  0  1.014681  0  0  0.121971  0.133235  0  1.020448  0
H  H8  1  0.65007831  0.42442595  0.42344050  1  0  0.11727  0  0.959344  0  0  0.127098  0  1.014121  0  0  0.131219  0  1.010876  0  0  0.116561  0.124053  0  1.016602  0
H  H9  1  0.15008096  0.57557210  0.07656374  1  0  0.117351  0  0.959243  0  0  0.127151  0  1.014034  0  0  0.131272  0  1.010791  0  0  0.116636  0.124103  0  1.016517  0
H  H10  1  0.34991144  0.57556829  0.57656614  1  0  0.117338  0  0.959323  0  0  0.127109  0  1.014138  0  0  0.131227  0  1.0109  0  0  0.116637  0.124059  0  1.016626  0
H  H11  1  0.84992196  0.42443297  0.92344498  1  0  0.117295  0  0.959344  0  0  0.127112  0  1.014125  0  0  0.131233  0  1.010879  0  0  0.116568  0.124067  0  1.016608  0
H  H12  1  0.90402489  0.34667817  0.33760866  1  0  0.126783  0  0.961548  0  0  0.133165  0  1.025452  0  0  0.137176  0  1.023381  0  0  0.117719  0.130197  0  1.027201  0
H  H13  1  0.40402760  0.65331959  0.16239585  1  0  0.126745  0  0.961595  0  0  0.133108  0  1.025521  0  0  0.137119  0  1.023449  0  0  0.11771  0.13014  0  1.027273  0
H  H14  1  0.09596726  0.65332357  0.66239647  1  0  0.126723  0  0.961678  0  0  0.133073  0  1.025635  0  0  0.137083  0  1.023564  0  0  0.117709  0.130103  0  1.027386  0
H  H15  1  0.59598130  0.34668132  0.83760986  1  0  0.126721  0  0.961574  0  0  0.133119  0  1.025466  0  0  0.137136  0  1.023374  0  0  0.117693  0.13015  0  1.027225  0
H  H16  1  0.90361644  0.15495149  0.65972958  1  0  0.446971  0  0.853507  0  0  0.410448  0  0.925532  0  0  0.424239  0  0.905951  0  0  0.31836  0.400773  0  0.93922  0
H  H17  1  0.40361320  0.84504475  0.84027178  1  0  0.446982  0  0.853493  0  0  0.410482  0  0.925482  0  0  0.424273  0  0.9059  0  0  0.31839  0.400803  0  0.939174  0
H  H18  1  0.09638768  0.84504694  0.34027048  1  0  0.447021  0  0.85343  0  0  0.41046  0  0.925508  0  0  0.42425  0  0.905928  0  0  0.318393  0.400783  0  0.939198  0
H  H19  1  0.59638613  0.15495369  0.15972384  1  0  0.44696  0  0.853519  0  0  0.410454  0  0.925517  0  0  0.424246  0  0.905935  0  0  0.318372  0.400773  0  0.939214  0
H  H20  1  0.69638072  0.97679032  0.62337967  1  0  0.12608  0  0.959733  0  0  0.128977  0  1.029692  0  0  0.133853  0  1.02624  0  0  0.111504  0.125451  0  1.03228  0
H  H21  1  0.19637636  0.02320286  0.87660605  1  0  0.126106  0  0.959694  0  0  0.128999  0  1.029677  0  0  0.133874  0  1.026226  0  0  0.111549  0.125473  0  1.032267  0
H  H22  1  0.30362579  0.02321150  0.37660477  1  0  0.12609  0  0.959774  0  0  0.128965  0  1.029739  0  0  0.133838  0  1.026291  0  0  0.111546  0.125441  0  1.032328  0
H  H23  1  0.80362178  0.97680225  0.12338938  1  0  0.126101  0  0.959644  0  0  0.128973  0  1.029664  0  0  0.133847  0  1.026214  0  0  0.111507  0.125449  0  1.032244  0
H  H24  1  0.21959438  0.83499327  0.59324181  1  0  0.110893  0  0.964105  0  0  0.11807  0  1.028485  0  0  0.120934  0  1.028188  0  0  0.110568  0.116003  0  1.028829  0
H  H25  1  0.71959361  0.16500156  0.90674130  1  0  0.110811  0  0.964148  0  0  0.118018  0  1.028532  0  0  0.120882  0  1.028236  0  0  0.110559  0.115952  0  1.02888  0
H  H26  1  0.78041333  0.16500602  0.40675028  1  0  0.110945  0  0.964052  0  0  0.118117  0  1.02845  0  0  0.120983  0  1.028151  0  0  0.110584  0.11605  0  1.028798  0
H  H27  1  0.28040213  0.83499854  0.09325834  1  0  0.110766  0  0.964174  0  0  0.118001  0  1.028521  0  0  0.120863  0  1.028223  0  0  0.110544  0.115931  0  1.028872  0
H  H28  1  0.52063606  0.80808226  0.58961743  1  0  0.124412  0  0.94789  0  0  0.132752  0  1.004829  0  0  0.13726  0  1.001058  0  0  0.120207  0.129404  0  1.007743  0
H  H29  1  0.02063491  0.19191364  0.91036119  1  0  0.124432  0  0.947898  0  0  0.1327  0  1.004894  0  0  0.137224  0  1.001081  0  0  0.120218  0.129358  0  1.007807  0
H  H30  1  0.47937164  0.19191956  0.41036554  1  0  0.124339  0  0.947962  0  0  0.132624  0  1.004938  0  0  0.13714  0  1.001142  0  0  0.120179  0.129281  0  1.007843  0
H  H31  1  0.97935963  0.80808981  0.08963613  1  0  0.124401  0  0.947905  0  0  0.13266  0  1.004934  0  0  0.137177  0  1.001138  0  0  0.120191  0.129319  0  1.007836  0
C  C32  1  0.17932430  0.29161251  0.43955556  1  0  0.696028  0  3.859132  0  0  0.649036  0  4.153142  0  0  0.684434  0  4.142074  0  0  0.241679  0.62496  0  4.159837  0
C  C33  1  0.67932804  0.70838636  0.06044223  1  0  0.696359  0  3.858789  0  0  0.649347  0  4.152896  0  0  0.684739  0  4.141831  0  0  0.241699  0.625255  0  4.159613  0
C  C34  1  0.82066904  0.70838757  0.56044851  1  0  0.696108  0  3.859146  0  0  0.64928  0  4.152898  0  0  0.684674  0  4.141828  0  0  0.241812  0.625199  0  4.159599  0
C  C35  1  0.32067369  0.29161208  0.93955635  1  0  0.696164  0  3.859034  0  0  0.649178  0  4.153036  0  0  0.684562  0  4.141986  0  0  0.241715  0.6251  0  4.159736  0
C  C36  1  0.02043296  0.34137402  0.47898994  1  0  0.09532  0  3.755573  0  0  0.098495  0  4.002893  0  0  0.098389  0  4.022373  0  0  0.117808  0.098316  0  3.989875  0
C  C37  1  0.52043431  0.65862250  0.02101385  1  0  0.09525  0  3.755489  0  0  0.098326  0  4.002989  0  0  0.098219  0  4.022473  0  0  0.117773  0.098151  0  3.989964  0
C  C38  1  0.97956158  0.65862689  0.52101503  1  0  0.0952  0  3.755593  0  0  0.098306  0  4.002979  0  0  0.098204  0  4.022456  0  0  0.117695  0.098135  0  3.989948  0
C  C39  1  0.47956741  0.34137676  0.97898859  1  0  0.095287  0  3.755619  0  0  0.098441  0  4.00295  0  0  0.098347  0  4.022422  0  0  0.117825  0.098267  0  3.989924  0
C  C40  1  0.88089178  0.41323093  0.62662686  1  0  0.11162  0  3.763447  0  0  0.114564  0  4.009717  0  0  0.115728  0  4.027113  0  0  0.125114  0.113597  0  3.998102  0
C  C41  1  0.38089298  0.58676450  0.87337505  1  0  0.111703  0  3.763517  0  0  0.114662  0  4.009768  0  0  0.115823  0  4.027169  0  0  0.12519  0.113684  0  3.998141  0
C  C42  1  0.11910396  0.58676832  0.37337705  1  0  0.111498  0  3.763704  0  0  0.114504  0  4.009903  0  0  0.115661  0  4.027309  0  0  0.125186  0.113529  0  3.998281  0
C  C43  1  0.61910516  0.41323559  0.12662828  1  0  0.111711  0  3.763636  0  0  0.114627  0  4.009912  0  0  0.115799  0  4.027319  0  0  0.125157  0.113647  0  3.998283  0
C  C44  1  0.74726144  0.43739205  0.57321478  1  0  -0.077642  0  3.633535  0  0  -0.104109  0  3.884837  0  0  -0.106366  0  3.901122  0  0  -0.056979  -0.102748  0  3.874207  0
C  C45  1  0.24726407  0.56260436  0.92678789  1  0  -0.077609  0  3.633417  0  0  -0.104117  0  3.884733  0  0  -0.106371  0  3.901014  0  0  -0.056993  -0.102751  0  3.8741  0
C  C46  1  0.25273071  0.56260386  0.42679071  1  0  -0.077532  0  3.633573  0  0  -0.104012  0  3.884862  0  0  -0.106265  0  3.901146  0  0  -0.056974  -0.102646  0  3.874228  0
C  C47  1  0.75273526  0.43739656  0.07321708  1  0  -0.077629  0  3.633585  0  0  -0.104126  0  3.884931  0  0  -0.106385  0  3.90122  0  0  -0.057008  -0.10276  0  3.874292  0
C  C48  1  0.75294296  0.40948299  0.46809793  1  0  0.01237  0  3.629515  0  0  -0.00388  0  3.880183  0  0  -0.002126  0  3.895612  0  0  -0.053416  -0.004936  0  3.869818  0
C  C49  1  0.25294423  0.59051495  0.03190569  1  0  0.01222  0  3.629508  0  0  -0.003961  0  3.880157  0  0  -0.002205  0  3.895578  0  0  -0.05345  -0.005018  0  3.869792  0
C  C50  1  0.24705038  0.59051376  0.53190772  1  0  0.012082  0  3.629521  0  0  -0.004051  0  3.880191  0  0  -0.002293  0  3.895606  0  0  -0.053524  -0.005103  0  3.869819  0
C  C51  1  0.74705750  0.40948846  0.96810124  1  0  0.012344  0  3.62956  0  0  -0.003882  0  3.880213  0  0  -0.00213  0  3.895643  0  0  -0.053383  -0.004941  0  3.869853  0
C  C52  1  0.89316667  0.36404353  0.41966239  1  0  -0.087452  0  3.632206  0  0  -0.113179  0  3.885301  0  0  -0.115619  0  3.902915  0  0  -0.064009  -0.111625  0  3.873754  0
C  C53  1  0.39316796  0.63595426  0.08033990  1  0  -0.08734  0  3.632297  0  0  -0.11304  0  3.885441  0  0  -0.115476  0  3.90305  0  0  -0.064011  -0.111488  0  3.8739  0
C  C54  1  0.10682668  0.63595405  0.58034268  1  0  -0.087165  0  3.632072  0  0  -0.112914  0  3.885239  0  0  -0.11535  0  3.902846  0  0  -0.063939  -0.111361  0  3.873694  0
C  C55  1  0.60683496  0.36404666  0.91966360  1  0  -0.087392  0  3.632207  0  0  -0.113117  0  3.885256  0  0  -0.115555  0  3.902867  0  0  -0.064012  -0.111568  0  3.873723  0
C  C56  1  0.89506017  0.44178229  0.73972556  1  0  0.694466  0  3.844262  0  0  0.644685  0  4.139608  0  0  0.680656  0  4.126721  0  0  0.24637  0.620101  0  4.14772  0
C  C57  1  0.39506466  0.55821562  0.76027759  1  0  0.694465  0  3.844435  0  0  0.644724  0  4.139738  0  0  0.680691  0  4.126859  0  0  0.24623  0.620163  0  4.147817  0
C  C58  1  0.10493677  0.55821780  0.26027851  1  0  0.694431  0  3.844224  0  0  0.644664  0  4.139538  0  0  0.68064  0  4.126647  0  0  0.246303  0.620087  0  4.147639  0
C  C59  1  0.60493227  0.44178279  0.23972616  1  0  0.694405  0  3.844247  0  0  0.64473  0  4.13943  0  0  0.680679  0  4.126581  0  0  0.246331  0.62018  0  4.147499  0
C  C60  1  0.06470821  0.03332258  0.63008939  1  0  0.633192  0  3.804761  0  0  0.583666  0  4.103873  0  0  0.615659  0  4.09588  0  0  0.243725  0.561789  0  4.108942  0
C  C61  1  0.56470025  0.96667571  0.86990675  1  0  0.633245  0  3.804684  0  0  0.583665  0  4.103885  0  0  0.615651  0  4.095903  0  0  0.243766  0.561782  0  4.108963  0
C  C62  1  0.93530428  0.96668086  0.36990867  1  0  0.633334  0  3.804823  0  0  0.583753  0  4.104024  0  0  0.615741  0  4.096032  0  0  0.243841  0.561878  0  4.109096  0
C  C63  1  0.43529429  0.03332689  0.13009337  1  0  0.633085  0  3.804856  0  0  0.583581  0  4.103976  0  0  0.61556  0  4.096009  0  0  0.243726  0.561708  0  4.109042  0
C  C64  1  0.59063823  0.19793747  0.66537344  1  0  0.652952  0  3.898893  0  0  0.602286  0  4.198309  0  0  0.636213  0  4.188855  0  0  0.22736  0.579374  0  4.203837  0
C  C65  1  0.09063030  0.80205578  0.83462621  1  0  0.653074  0  3.89904  0  0  0.602375  0  4.198458  0  0  0.636304  0  4.189  0  0  0.227368  0.579463  0  4.203982  0
C  C66  1  0.40936230  0.80206431  0.33462135  1  0  0.652998  0  3.898911  0  0  0.602326  0  4.198332  0  0  0.636256  0  4.188873  0  0  0.227402  0.579417  0  4.203861  0
C  C67  1  0.90936783  0.19794767  0.16537038  1  0  0.652944  0  3.899267  0  0  0.602371  0  4.198517  0  0  0.6363  0  4.189062  0  0  0.227286  0.579457  0  4.204051  0
C  C68  1  0.56623511  0.98468787  0.62475574  1  0  -0.084677  0  3.62893  0  0  -0.112163  0  3.885331  0  0  -0.11578  0  3.904387  0  0  -0.063626  -0.109745  0  3.872705  0
C  C69  1  0.06623076  0.01530627  0.87523370  1  0  -0.084721  0  3.629084  0  0  -0.112293  0  3.885476  0  0  -0.115913  0  3.904534  0  0  -0.063697  -0.109876  0  3.872857  0
C  C70  1  0.43377020  0.01531226  0.37523430  1  0  -0.084743  0  3.629099  0  0  -0.112216  0  3.885481  0  0  -0.115837  0  3.904542  0  0  -0.063675  -0.109802  0  3.872861  0
C  C71  1  0.93376737  0.98469717  0.12476363  1  0  -0.084689  0  3.629048  0  0  -0.112214  0  3.885502  0  0  -0.115832  0  3.904561  0  0  -0.063667  -0.109797  0  3.872877  0
C  C72  1  0.30187182  0.90524628  0.60760371  1  0  -0.074282  0  3.648223  0  0  -0.100281  0  3.897583  0  0  -0.102344  0  3.915894  0  0  -0.060276  -0.098971  0  3.885358  0
C  C73  1  0.80187001  0.09474927  0.89238409  1  0  -0.074063  0  3.648209  0  0  -0.100166  0  3.897591  0  0  -0.102229  0  3.9159  0  0  -0.060322  -0.098861  0  3.885389  0
C  C74  1  0.69813468  0.09475301  0.39238691  1  0  -0.074329  0  3.648237  0  0  -0.100387  0  3.89761  0  0  -0.102454  0  3.915921  0  0  -0.060322  -0.099083  0  3.885408  0
C  C75  1  0.19812692  0.90525332  0.10761751  1  0  -0.074103  0  3.648138  0  0  -0.100177  0  3.897485  0  0  -0.102241  0  3.9158  0  0  -0.060365  -0.098868  0  3.885283  0
C  C76  1  0.49563932  0.09029427  0.64432163  1  0  0.103938  0  3.737034  0  0  0.109359  0  3.982103  0  0  0.109343  0  4.00216  0  0  0.122063  0.109109  0  3.968594  0
C  C77  1  0.99563866  0.90969938  0.85567418  1  0  0.103908  0  3.73717  0  0  0.109453  0  3.982124  0  0  0.109438  0  4.002179  0  0  0.122122  0.109205  0  3.968607  0
C  C78  1  0.50436360  0.90970584  0.35567284  1  0  0.103909  0  3.737053  0  0  0.109302  0  3.98217  0  0  0.109286  0  4.002226  0  0  0.122019  0.109052  0  3.968656  0
C  C79  1  0.00436187  0.09030406  0.14432462  1  0  0.103926  0  3.73716  0  0  0.109363  0  3.982204  0  0  0.109348  0  4.00226  0  0  0.122102  0.109115  0  3.968693  0
C  C80  1  0.24117824  0.01348599  0.62789436  1  0  0.102924  0  3.768224  0  0  0.105563  0  4.016164  0  0  0.105082  0  4.035864  0  0  0.121033  0.10577  0  4.002859  0
C  C81  1  0.74117741  0.98650795  0.87209969  1  0  0.102787  0  3.768258  0  0  0.10547  0  4.016234  0  0  0.104993  0  4.035934  0  0  0.121014  0.10567  0  4.002933  0
C  C82  1  0.75882467  0.98651328  0.37210290  1  0  0.102916  0  3.768196  0  0  0.105575  0  4.016155  0  0  0.105099  0  4.035857  0  0  0.121033  0.105775  0  4.002853  0
C  C83  1  0.25882072  0.01349215  0.12790142  1  0  0.102892  0  3.768317  0  0  0.105546  0  4.016268  0  0  0.105069  0  4.03597  0  0  0.121043  0.105744  0  4.002974  0
C  C84  1  0.46732198  0.89086790  0.60639673  1  0  0.010682  0  3.633145  0  0  -0.008418  0  3.889539  0  0  -0.006542  0  3.904462  0  0  -0.054412  -0.009603  0  3.879569  0
C  C85  1  0.96732372  0.10912666  0.89358664  1  0  0.010577  0  3.633065  0  0  -0.00838  0  3.889455  0  0  -0.006496  0  3.904386  0  0  -0.054381  -0.009569  0  3.879496  0
C  C86  1  0.53268214  0.10913307  0.39359125  1  0  0.010695  0  3.633218  0  0  -0.008281  0  3.889537  0  0  -0.006398  0  3.904468  0  0  -0.054407  -0.009468  0  3.879569  0
C  C87  1  0.03267441  0.89087678  0.10641142  1  0  0.01076  0  3.632983  0  0  -0.008242  0  3.889424  0  0  -0.006362  0  3.904352  0  0  -0.054242  -0.00943  0  3.879457  0
N  N88  1  0.01113878  0.36334837  0.58038208  1  0  -0.445321  0  3.355734  0  0  -0.402887  0  3.60639  0  0  -0.417583  0  3.628324  0  0  -0.393447  -0.392303  0  3.591582  0
N  N89  1  0.51114029  0.63664829  0.91962034  1  0  -0.445443  0  3.3558  0  0  -0.40296  0  3.606458  0  0  -0.417647  0  3.62839  0  0  -0.393491  -0.392365  0  3.591641  0
N  N90  1  0.98885696  0.63665004  0.41962167  1  0  -0.445268  0  3.355818  0  0  -0.402829  0  3.60647  0  0  -0.417525  0  3.628404  0  0  -0.393458  -0.392243  0  3.591659  0
N  N91  1  0.48886023  0.36335180  0.08038152  1  0  -0.445397  0  3.355947  0  0  -0.402947  0  3.606617  0  0  -0.417648  0  3.62855  0  0  -0.393491  -0.392354  0  3.591796  0
N  N92  1  0.33589237  0.10385845  0.64618020  1  0  -0.40841  0  3.282694  0  0  -0.36726  0  3.53283  0  0  -0.380496  0  3.553461  0  0  -0.377205  -0.357671  0  3.518873  0
N  N93  1  0.83589054  0.89613537  0.85381839  1  0  -0.408427  0  3.282679  0  0  -0.367317  0  3.532786  0  0  -0.380551  0  3.553415  0  0  -0.377237  -0.357715  0  3.518824  0
N  N94  1  0.66411055  0.89614082  0.35381855  1  0  -0.408426  0  3.282656  0  0  -0.367241  0  3.53277  0  0  -0.380479  0  3.553398  0  0  -0.377212  -0.357642  0  3.518808  0
N  N95  1  0.16410998  0.10386556  0.14618214  1  0  -0.408465  0  3.282597  0  0  -0.367325  0  3.532746  0  0  -0.380563  0  3.553378  0  0  -0.377225  -0.357732  0  3.518796  0
O  O96  1  0.21188241  0.27999610  0.34658883  1  0  -0.7076  0  2.047946  0  0  -0.663416  0  2.307707  0  0  -0.690979  0  2.295646  0  0  -0.395102  -0.643536  0  2.315728  0
O  O97  1  0.71188402  0.72000271  0.15341638  1  0  -0.707775  0  2.047641  0  0  -0.663613  0  2.307516  0  0  -0.69118  0  2.295454  0  0  -0.395133  -0.643725  0  2.315548  0
O  O98  1  0.78811213  0.72000816  0.65341383  1  0  -0.707612  0  2.048055  0  0  -0.663495  0  2.307733  0  0  -0.691048  0  2.295674  0  0  -0.395167  -0.643615  0  2.315764  0
O  O99  1  0.28812010  0.27999321  0.84658541  1  0  -0.707621  0  2.047828  0  0  -0.663469  0  2.307639  0  0  -0.691033  0  2.295585  0  0  -0.395125  -0.643597  0  2.315668  0
O  O100  1  0.27245671  0.26583025  0.50554751  1  0  -0.68093  0  2.01199  0  0  -0.638041  0  2.254257  0  0  -0.664722  0  2.244553  0  0  -0.369791  -0.618923  0  2.260552  0
O  O101  1  0.77245700  0.73416446  0.99445560  1  0  -0.680997  0  2.012112  0  0  -0.638061  0  2.254369  0  0  -0.66474  0  2.24469  0  0  -0.36975  -0.618934  0  2.260674  0
O  O102  1  0.72754022  0.73416985  0.49445213  1  0  -0.68096  0  2.012031  0  0  -0.638081  0  2.254153  0  0  -0.664773  0  2.244475  0  0  -0.369777  -0.618957  0  2.260456  0
O  O103  1  0.22754711  0.26583230  0.00554488  1  0  -0.680967  0  2.012164  0  0  -0.638067  0  2.254429  0  0  -0.664748  0  2.244741  0  0  -0.369788  -0.618944  0  2.260723  0
O  O104  1  0.80406987  0.51733334  0.78819418  1  0  -0.706296  0  2.067202  0  0  -0.659652  0  2.328038  0  0  -0.687982  0  2.316281  0  0  -0.404747  -0.639097  0  2.335787  0
O  O105  1  0.30407562  0.48265717  0.71180817  1  0  -0.706421  0  2.067256  0  0  -0.659775  0  2.328071  0  0  -0.688122  0  2.316338  0  0  -0.404775  -0.639244  0  2.335816  0
O  O106  1  0.19592827  0.48266591  0.21181047  1  0  -0.706321  0  2.067166  0  0  -0.65967  0  2.328021  0  0  -0.688014  0  2.316267  0  0  -0.40477  -0.639128  0  2.335768  0
O  O107  1  0.69592371  0.51734124  0.28819706  1  0  -0.706366  0  2.067147  0  0  -0.65977  0  2.327994  0  0  -0.688088  0  2.316201  0  0  -0.404794  -0.639235  0  2.335737  0
O  O108  1  0.00071511  0.39030938  0.77949741  1  0  -0.671192  0  2.007733  0  0  -0.628706  0  2.24989  0  0  -0.653646  0  2.237132  0  0  -0.357681  -0.610893  0  2.258454  0
O  O109  1  0.50071486  0.60968645  0.72050631  1  0  -0.671088  0  2.007833  0  0  -0.62869  0  2.250042  0  0  -0.65362  0  2.237288  0  0  -0.3576  -0.610875  0  2.258591  0
O  O110  1  0.99928182  0.60968987  0.22050724  1  0  -0.67113  0  2.007678  0  0  -0.628687  0  2.249875  0  0  -0.653628  0  2.237113  0  0  -0.357696  -0.610872  0  2.258435  0
O  O111  1  0.49928447  0.39031196  0.27949744  1  0  -0.671123  0  2.007781  0  0  -0.628682  0  2.249919  0  0  -0.653613  0  2.237168  0  0  -0.357649  -0.610882  0  2.258473  0
O  O112  1  0.02743030  0.14271084  0.65509216  1  0  -0.649684  0  2.19004  0  0  -0.596512  0  2.425443  0  0  -0.622159  0  2.406843  0  0  -0.359239  -0.577935  0  2.437701  0
O  O113  1  0.52742735  0.85728247  0.84490964  1  0  -0.649645  0  2.18996  0  0  -0.596506  0  2.425404  0  0  -0.622144  0  2.406796  0  0  -0.359258  -0.57792  0  2.437682  0
O  O114  1  0.97257262  0.85728758  0.34491160  1  0  -0.649845  0  2.189841  0  0  -0.596647  0  2.425328  0  0  -0.622301  0  2.406744  0  0  -0.359332  -0.578057  0  2.437589  0
O  O115  1  0.47257437  0.14271513  0.15509026  1  0  -0.649569  0  2.190081  0  0  -0.596444  0  2.425503  0  0  -0.622087  0  2.406902  0  0  -0.359227  -0.577859  0  2.437767  0
O  O116  1  0.96536913  0.95855346  0.61189856  1  0  -0.500392  0  1.920797  0  0  -0.457913  0  2.126752  0  0  -0.477215  0  2.120777  0  0  -0.261629  -0.444788  0  2.130751  0
O  O117  1  0.46536833  0.04144108  0.88809294  1  0  -0.500389  0  1.920898  0  0  -0.457861  0  2.12685  0  0  -0.477158  0  2.120879  0  0  -0.26164  -0.444734  0  2.130854  0
O  O118  1  0.03463020  0.04144083  0.38809331  1  0  -0.500324  0  1.921207  0  0  -0.457799  0  2.127164  0  0  -0.477094  0  2.121188  0  0  -0.261603  -0.444677  0  2.131169  0
O  O119  1  0.53463219  0.95855486  0.11190442  1  0  -0.500372  0  1.9208  0  0  -0.457878  0  2.126738  0  0  -0.477176  0  2.12077  0  0  -0.261632  -0.444754  0  2.130738  0
O  O120  1  0.50954766  0.28742006  0.67516180  1  0  -0.686739  0  2.053808  0  0  -0.643046  0  2.304863  0  0  -0.669676  0  2.295193  0  0  -0.385278  -0.62401  0  2.311111  0
O  O121  1  0.00954834  0.71257660  0.82483987  1  0  -0.68681  0  2.054111  0  0  -0.643111  0  2.305171  0  0  -0.669733  0  2.295498  0  0  -0.385302  -0.624069  0  2.311411  0
O  O122  1  0.49045167  0.71257920  0.32483842  1  0  -0.686824  0  2.053765  0  0  -0.64313  0  2.304866  0  0  -0.669765  0  2.295193  0  0  -0.385332  -0.624081  0  2.311095  0
O  O123  1  0.99045458  0.28742766  0.17516057  1  0  -0.686795  0  2.054145  0  0  -0.643149  0  2.30519  0  0  -0.669784  0  2.295518  0  0  -0.385307  -0.624089  0  2.311384  0
O  O124  1  0.74044348  0.19516803  0.67458796  1  0  -0.610302  0  2.023549  0  0  -0.558709  0  2.252463  0  0  -0.583822  0  2.242637  0  0  -0.307767  -0.541179  0  2.25862  0
O  O125  1  0.24044509  0.80482423  0.82541094  1  0  -0.610361  0  2.023411  0  0  -0.558758  0  2.252293  0  0  -0.583867  0  2.242456  0  0  -0.307777  -0.541231  0  2.258444  0
O  O126  1  0.25956063  0.80483210  0.32540281  1  0  -0.610254  0  2.023616  0  0  -0.558641  0  2.252574  0  0  -0.583739  0  2.242723  0  0  -0.307733  -0.541114  0  2.258723  0
O  O127  1  0.75955783  0.19518257  0.17458037  1  0  -0.61031  0  2.023433  0  0  -0.55873  0  2.252255  0  0  -0.583827  0  2.242396  0  0  -0.307709  -0.541202  0  2.258411  0
