# generated using pymatgen
data_AgH6C10SN4(OF)3
_symmetry_space_group_name_H-M   'P 1'
_cell_length_a   7.96962854
_cell_length_b   7.96957165
_cell_length_c   21.21390805
_cell_angle_alpha   86.00358760
_cell_angle_beta   86.00420967
_cell_angle_gamma   74.79683244
_symmetry_Int_Tables_number   1
_chemical_formula_structural   AgH6C10SN4(OF)3
_chemical_formula_sum   'Ag4 H24 C40 S4 N16 O12 F12'
_cell_volume   1295.22296488
_cell_formula_units_Z   4
loop_
 _symmetry_equiv_pos_site_id
 _symmetry_equiv_pos_as_xyz
  1  'x, y, z'
loop_
 _atom_site_type_symbol
 _atom_site_label
 _atom_site_symmetry_multiplicity
 _atom_site_fract_x
 _atom_site_fract_y
 _atom_site_fract_z
 _atom_site_occupancy
 _atom_site_hle17_bader_spin_density
 _atom_site_hle17_ddec_charge
 _atom_site_hle17_ddec_spin_density
 _atom_site_hle17_ddec_sum_bond_order
 _atom_site_hle17_magmom
 _atom_site_hse06_10hf_bader_spin_density
 _atom_site_hse06_10hf_ddec_charge
 _atom_site_hse06_10hf_ddec_spin_density
 _atom_site_hse06_10hf_ddec_sum_bond_order
 _atom_site_hse06_10hf_magmom
 _atom_site_hse06_bader_spin_density
 _atom_site_hse06_ddec_charge
 _atom_site_hse06_ddec_spin_density
 _atom_site_hse06_ddec_sum_bond_order
 _atom_site_hse06_magmom
 _atom_site_pbe_bader_spin_density
 _atom_site_pbe_cm5_charge
 _atom_site_pbe_ddec_charge
 _atom_site_pbe_ddec_spin_density
 _atom_site_pbe_ddec_sum_bond_order
 _atom_site_pbe_magmom
Ag  Ag0  1  0.69047809  0.50675568  0.44655551  1  0  0.559977  0  1.406113  0  0  0.417129  0  1.854408  0  0  0.444022  0  1.807649  0  0  0.460697  0.399836  0  1.886284  0
Ag  Ag1  1  0.49324202  0.30953843  0.05345061  1  0  0.559921  0  1.406329  0  0  0.417065  0  1.854584  0  0  0.443933  0  1.807871  0  0  0.460721  0.399766  0  1.886464  0
Ag  Ag2  1  0.30955231  0.49324011  0.55344421  1  0  0.559976  0  1.406341  0  0  0.417182  0  1.854599  0  0  0.444032  0  1.807915  0  0  0.460721  0.399886  0  1.886488  0
Ag  Ag3  1  0.50677701  0.69046793  0.94655573  1  0  0.559944  0  1.406356  0  0  0.417146  0  1.854534  0  0  0.444  0  1.807845  0  0  0.460719  0.399846  0  1.886419  0
H  H4  1  0.11939260  0.04913607  0.30510035  1  0  0.106623  0  0.91872  0  0  0.110515  0  0.983647  0  0  0.114743  0  0.980182  0  0  0.119905  0.107379  0  0.986341  0
H  H5  1  0.95086689  0.88060865  0.19489640  1  0  0.106544  0  0.918754  0  0  0.110456  0  0.98367  0  0  0.114685  0  0.980203  0  0  0.119855  0.107321  0  0.986366  0
H  H6  1  0.88061540  0.95085355  0.69489778  1  0  0.106404  0  0.918892  0  0  0.110433  0  0.983664  0  0  0.114587  0  0.980282  0  0  0.119829  0.107297  0  0.986363  0
H  H7  1  0.04913352  0.11938107  0.80510099  1  0  0.10648  0  0.918787  0  0  0.110416  0  0.983663  0  0  0.114623  0  0.980221  0  0  0.119816  0.107281  0  0.986356  0
H  H8  1  0.73872188  0.63980491  0.29493702  1  0  0.100787  0  0.938678  0  0  0.100134  0  1.01371  0  0  0.103917  0  1.010345  0  0  0.117382  0.097287  0  1.016383  0
H  H9  1  0.36020987  0.26128498  0.20506638  1  0  0.100782  0  0.938642  0  0  0.100123  0  1.013631  0  0  0.103919  0  1.010248  0  0  0.117387  0.097261  0  1.016315  0
H  H10  1  0.26129364  0.36018456  0.70505148  1  0  0.100706  0  0.938725  0  0  0.100008  0  1.013845  0  0  0.103795  0  1.010474  0  0  0.117303  0.097147  0  1.01654  0
H  H11  1  0.63981233  0.73872394  0.79494169  1  0  0.100735  0  0.938693  0  0  0.10007  0  1.013739  0  0  0.103856  0  1.010365  0  0  0.11739  0.097214  0  1.01642  0
H  H12  1  0.92199338  0.51135490  0.19959282  1  0  0.078956  0  0.952859  0  0  0.087674  0  1.015162  0  0  0.089513  0  1.015134  0  0  0.112447  0.086252  0  1.015472  0
H  H13  1  0.48866846  0.07801034  0.30040868  1  0  0.078961  0  0.952877  0  0  0.087687  0  1.015178  0  0  0.089525  0  1.015153  0  0  0.112463  0.086239  0  1.015514  0
H  H14  1  0.07803229  0.48862406  0.80039993  1  0  0.079028  0  0.952817  0  0  0.087595  0  1.01524  0  0  0.08943  0  1.015224  0  0  0.112475  0.086184  0  1.01554  0
H  H15  1  0.51135596  0.92198945  0.69959722  1  0  0.078939  0  0.952957  0  0  0.087647  0  1.015273  0  0  0.089485  0  1.015249  0  0  0.112455  0.086223  0  1.015587  0
H  H16  1  0.92516009  0.79002601  0.43240843  1  0  0.109652  0  0.941251  0  0  0.113466  0  1.009559  0  0  0.116701  0  1.007396  0  0  0.120823  0.111022  0  1.011396  0
H  H17  1  0.20997697  0.07483836  0.06758851  1  0  0.109768  0  0.941067  0  0  0.113504  0  1.009479  0  0  0.116739  0  1.007312  0  0  0.12083  0.111059  0  1.011315  0
H  H18  1  0.07483146  0.20997943  0.56759160  1  0  0.109664  0  0.941108  0  0  0.113435  0  1.009485  0  0  0.116674  0  1.007317  0  0  0.120792  0.11099  0  1.011321  0
H  H19  1  0.79002342  0.92516175  0.93241048  1  0  0.109743  0  0.941109  0  0  0.113488  0  1.009509  0  0  0.116728  0  1.007337  0  0  0.120823  0.111043  0  1.011345  0
H  H20  1  0.39037605  0.86160506  0.42634963  1  0  0.113203  0  0.980372  0  0  0.114884  0  1.051415  0  0  0.118587  0  1.048393  0  0  0.115364  0.112171  0  1.053674  0
H  H21  1  0.13840239  0.60963030  0.07364911  1  0  0.11326  0  0.980281  0  0  0.114959  0  1.051352  0  0  0.118664  0  1.048322  0  0  0.115401  0.112247  0  1.053614  0
H  H22  1  0.60961678  0.13839518  0.57365240  1  0  0.113101  0  0.980282  0  0  0.114788  0  1.051343  0  0  0.118489  0  1.048324  0  0  0.115333  0.112069  0  1.053615  0
H  H23  1  0.86159326  0.39037378  0.92635085  1  0  0.113222  0  0.980381  0  0  0.114945  0  1.051389  0  0  0.118648  0  1.048363  0  0  0.115398  0.112233  0  1.053649  0
H  H24  1  0.34616931  0.18844945  0.42046336  1  0  0.097105  0  0.960934  0  0  0.10121  0  1.028724  0  0  0.104067  0  1.027429  0  0  0.114248  0.099113  0  1.029802  0
H  H25  1  0.81155442  0.65384206  0.07953326  1  0  0.097159  0  0.96089  0  0  0.101239  0  1.028708  0  0  0.104097  0  1.027416  0  0  0.114309  0.099145  0  1.029786  0
H  H26  1  0.65382539  0.81155334  0.57953571  1  0  0.097098  0  0.96096  0  0  0.101191  0  1.028773  0  0  0.104046  0  1.027482  0  0  0.114254  0.099097  0  1.029851  0
H  H27  1  0.18843618  0.34616208  0.92046448  1  0  0.097146  0  0.960905  0  0  0.101213  0  1.028735  0  0  0.10407  0  1.027443  0  0  0.114293  0.099118  0  1.029813  0
C  C28  1  0.03638945  0.18207800  0.30216690  1  0  0.065292  0  3.67489  0  0  0.035085  0  3.933633  0  0  0.036576  0  3.950516  0  0  0.054672  0.033801  0  3.9229  0
C  C29  1  0.81792722  0.96361254  0.19783217  1  0  0.065456  0  3.674752  0  0  0.035206  0  3.933517  0  0  0.036685  0  3.950419  0  0  0.054737  0.033921  0  3.922787  0
C  C30  1  0.96361699  0.81790257  0.69783199  1  0  0.065358  0  3.674985  0  0  0.035073  0  3.933835  0  0  0.036634  0  3.950713  0  0  0.054751  0.033787  0  3.923102  0
C  C31  1  0.18208109  0.03638098  0.80216820  1  0  0.065268  0  3.674991  0  0  0.035034  0  3.933763  0  0  0.036554  0  3.950625  0  0  0.054656  0.03375  0  3.923032  0
C  C32  1  0.93828210  0.25653581  0.35487102  1  0  0.068104  0  3.709339  0  0  0.076971  0  3.964685  0  0  0.077554  0  3.985776  0  0  0.114192  0.076215  0  3.951058  0
C  C33  1  0.74346577  0.06172096  0.14512784  1  0  0.067987  0  3.709494  0  0  0.076877  0  3.964821  0  0  0.077469  0  3.985902  0  0  0.114177  0.076122  0  3.951196  0
C  C34  1  0.06172239  0.74345774  0.64512332  1  0  0.068303  0  3.709212  0  0  0.076986  0  3.964831  0  0  0.077582  0  3.985898  0  0  0.114259  0.076228  0  3.951202  0
C  C35  1  0.25653780  0.93827134  0.85487317  1  0  0.068224  0  3.709329  0  0  0.077031  0  3.964728  0  0  0.077623  0  3.985816  0  0  0.114282  0.076276  0  3.951103  0
C  C36  1  0.82385031  0.50802218  0.29707639  1  0  0.10574  0  3.634074  0  0  0.074698  0  3.893584  0  0  0.078388  0  3.908229  0  0  0.061254  0.07194  0  3.884303  0
C  C37  1  0.49198733  0.17615288  0.20292484  1  0  0.105768  0  3.633985  0  0  0.074774  0  3.893457  0  0  0.078461  0  3.908087  0  0  0.061285  0.07203  0  3.88417  0
C  C38  1  0.17615672  0.49196094  0.70291534  1  0  0.105955  0  3.634337  0  0  0.074956  0  3.893671  0  0  0.07866  0  3.908301  0  0  0.061398  0.072195  0  3.884409  0
C  C39  1  0.50802761  0.82384965  0.79708171  1  0  0.105907  0  3.634035  0  0  0.074904  0  3.893478  0  0  0.078606  0  3.908115  0  0  0.061261  0.072144  0  3.884208  0
C  C40  1  0.92532008  0.43543642  0.24447587  1  0  0.085133  0  3.668822  0  0  0.056378  0  3.931944  0  0  0.059284  0  3.947644  0  0  0.051288  0.054103  0  3.921784  0
C  C41  1  0.56457511  0.07468181  0.25552474  1  0  0.085117  0  3.669005  0  0  0.05633  0  3.932132  0  0  0.059236  0  3.947838  0  0  0.051258  0.054076  0  3.921978  0
C  C42  1  0.07469990  0.56454522  0.75551744  1  0  0.085131  0  3.668759  0  0  0.056546  0  3.931792  0  0  0.059449  0  3.947502  0  0  0.051331  0.05427  0  3.921626  0
C  C43  1  0.43543827  0.92531165  0.74447879  1  0  0.085103  0  3.66884  0  0  0.056337  0  3.931958  0  0  0.05924  0  3.947666  0  0  0.05127  0.054066  0  3.921801  0
C  C44  1  0.76722088  0.05892666  0.42646922  1  0  0.060886  0  3.731263  0  0  0.072709  0  3.996008  0  0  0.071729  0  4.016775  0  0  0.115093  0.073133  0  3.982445  0
C  C45  1  0.94107858  0.23278091  0.07353011  1  0  0.060754  0  3.731228  0  0  0.072554  0  3.996028  0  0  0.071567  0  4.016791  0  0  0.11499  0.072981  0  3.982462  0
C  C46  1  0.23276908  0.94108009  0.57352752  1  0  0.060878  0  3.730998  0  0  0.072621  0  3.995859  0  0  0.071644  0  4.016614  0  0  0.115068  0.073043  0  3.9823  0
C  C47  1  0.05891992  0.76722183  0.92646934  1  0  0.060847  0  3.731279  0  0  0.07257  0  3.996164  0  0  0.071587  0  4.01693  0  0  0.115033  0.073001  0  3.982588  0
C  C48  1  0.79570399  0.87828288  0.42919452  1  0  0.074828  0  3.650614  0  0  0.038678  0  3.901723  0  0  0.042252  0  3.918844  0  0  0.056401  0.035883  0  3.891055  0
C  C49  1  0.12171948  0.20429830  0.07080475  1  0  0.074833  0  3.650639  0  0  0.038751  0  3.901704  0  0  0.042305  0  3.918877  0  0  0.056459  0.035958  0  3.891021  0
C  C50  1  0.20428850  0.12172384  0.57080451  1  0  0.07494  0  3.650399  0  0  0.038839  0  3.901543  0  0  0.04239  0  3.9187  0  0  0.056476  0.036038  0  3.890888  0
C  C51  1  0.87827997  0.79570573  0.92919558  1  0  0.074891  0  3.65053  0  0  0.038819  0  3.901627  0  0  0.042384  0  3.918764  0  0  0.056466  0.03602  0  3.890957  0
C  C52  1  0.49987473  0.91937436  0.42540969  1  0  0.072328  0  3.646536  0  0  0.038981  0  3.902201  0  0  0.043136  0  3.917742  0  0  0.046928  0.036104  0  3.891928  0
C  C53  1  0.08063349  0.50012818  0.07459158  1  0  0.072362  0  3.646464  0  0  0.038883  0  3.90228  0  0  0.043047  0  3.917807  0  0  0.046839  0.036002  0  3.89201  0
C  C54  1  0.50011746  0.08062849  0.57459228  1  0  0.072364  0  3.646368  0  0  0.039048  0  3.902  0  0  0.043206  0  3.917537  0  0  0.046949  0.03617  0  3.89174  0
C  C55  1  0.91936375  0.49987459  0.92540931  1  0  0.072369  0  3.646613  0  0  0.038972  0  3.902285  0  0  0.043134  0  3.917814  0  0  0.04687  0.036093  0  3.892016  0
C  C56  1  0.47592127  0.09972221  0.42238518  1  0  0.079263  0  3.668386  0  0  0.05925  0  3.926685  0  0  0.059683  0  3.943859  0  0  0.050609  0.058798  0  3.91533  0
C  C57  1  0.90028298  0.52408358  0.07761341  1  0  0.0791  0  3.668379  0  0  0.059118  0  3.926723  0  0  0.059553  0  3.94389  0  0  0.050529  0.058658  0  3.915376  0
C  C58  1  0.52407249  0.90027931  0.57761442  1  0  0.079298  0  3.668526  0  0  0.059256  0  3.926851  0  0  0.059684  0  3.944036  0  0  0.050583  0.058799  0  3.915502  0
C  C59  1  0.09971457  0.47591787  0.92238610  1  0  0.079196  0  3.668429  0  0  0.059206  0  3.926738  0  0  0.059641  0  3.943908  0  0  0.05057  0.058746  0  3.915395  0
C  C60  1  0.72503555  0.40441729  0.65680436  1  0  0.678938  0  3.608598  0  0  0.604991  0  3.959259  0  0  0.633275  0  3.93035  0  0  0.291684  0.584467  0  3.98052  0
C  C61  1  0.59558442  0.27495605  0.84320057  1  0  0.67917  0  3.608214  0  0  0.604973  0  3.959273  0  0  0.633257  0  3.930392  0  0  0.291656  0.584521  0  3.980412  0
C  C62  1  0.27494717  0.59559349  0.34320096  1  0  0.679194  0  3.608401  0  0  0.605161  0  3.959194  0  0  0.633458  0  3.930282  0  0  0.291675  0.58468  0  3.980383  0
C  C63  1  0.40441378  0.72504801  0.15680356  1  0  0.679069  0  3.608208  0  0  0.605158  0  3.958842  0  0  0.633471  0  3.929885  0  0  0.291713  0.584675  0  3.980032  0
C  C64  1  0.74758730  0.45790655  0.58510776  1  0  0.485209  0  4.037491  0  0  0.437356  0  4.330841  0  0  0.467124  0  4.326267  0  0  0.184423  0.417222  0  4.333377  0
C  C65  1  0.54209353  0.25240852  0.91489798  1  0  0.485257  0  4.037497  0  0  0.437498  0  4.330797  0  0  0.467284  0  4.3262  0  0  0.184427  0.417353  0  4.333324  0
C  C66  1  0.25238406  0.54209400  0.41489342  1  0  0.485303  0  4.037846  0  0  0.437465  0  4.331236  0  0  0.467232  0  4.32666  0  0  0.184582  0.417347  0  4.333732  0
C  C67  1  0.45789774  0.74758785  0.08510466  1  0  0.485179  0  4.03739  0  0  0.437255  0  4.330841  0  0  0.467038  0  4.326237  0  0  0.184307  0.41714  0  4.333327  0
S  S68  1  0.95206315  0.15032198  0.43360933  1  0  0.554785  0  3.661488  0  0  0.509644  0  4.097306  0  0  0.532961  0  4.087231  0  0  0.320557  0.492787  0  4.104785  0
S  S69  1  0.84967321  0.04794672  0.06638929  1  0  0.554912  0  3.661597  0  0  0.509733  0  4.097418  0  0  0.533059  0  4.087338  0  0  0.320661  0.492874  0  4.104894  0
S  S70  1  0.04793881  0.84967679  0.56638589  1  0  0.554854  0  3.66172  0  0  0.509776  0  4.097589  0  0  0.533103  0  4.087506  0  0  0.320585  0.492917  0  4.105068  0
S  S71  1  0.15032246  0.95205218  0.93361128  1  0  0.554849  0  3.66164  0  0  0.509735  0  4.097502  0  0  0.533059  0  4.087425  0  0  0.320613  0.492875  0  4.104979  0
N  N72  1  0.03043030  0.27352474  0.24639220  1  0  -0.244971  0  3.019794  0  0  -0.216858  0  3.293808  0  0  -0.224076  0  3.309299  0  0  -0.298159  -0.211717  0  3.283401  0
N  N73  1  0.72648712  0.96956540  0.25360620  1  0  -0.245046  0  3.019772  0  0  -0.216912  0  3.293805  0  0  -0.22413  0  3.309297  0  0  -0.29821  -0.211773  0  3.283395  0
N  N74  1  0.96958055  0.72645315  0.75360334  1  0  -0.245038  0  3.01954  0  0  -0.216931  0  3.293557  0  0  -0.22415  0  3.309018  0  0  -0.298302  -0.21179  0  3.283153  0
N  N75  1  0.27352942  0.03042022  0.74639557  1  0  -0.244919  0  3.019731  0  0  -0.216778  0  3.29374  0  0  -0.224002  0  3.309229  0  0  -0.298121  -0.211642  0  3.28334  0
N  N76  1  0.83300158  0.41726820  0.35283986  1  0  -0.263452  0  3.318682  0  0  -0.199102  0  3.595535  0  0  -0.211519  0  3.609828  0  0  -0.309692  -0.190758  0  3.586103  0
N  N77  1  0.58273756  0.16700416  0.14715971  1  0  -0.263391  0  3.318766  0  0  -0.199023  0  3.595556  0  0  -0.211442  0  3.609848  0  0  -0.309705  -0.190677  0  3.586117  0
N  N78  1  0.16699974  0.58272798  0.64715261  1  0  -0.263666  0  3.318941  0  0  -0.199264  0  3.595826  0  0  -0.211699  0  3.610132  0  0  -0.309801  -0.190913  0  3.586391  0
N  N79  1  0.41726981  0.83299328  0.85284482  1  0  -0.263539  0  3.318699  0  0  -0.19917  0  3.595538  0  0  -0.211604  0  3.609838  0  0  -0.30973  -0.190821  0  3.586103  0
N  N80  1  0.65923603  0.80937670  0.42859057  1  0  -0.237156  0  3.208326  0  0  -0.16941  0  3.490775  0  0  -0.182457  0  3.504479  0  0  -0.305099  -0.16048  0  3.481505  0
N  N81  1  0.19062381  0.34076837  0.07141044  1  0  -0.237229  0  3.208461  0  0  -0.169431  0  3.490911  0  0  -0.182475  0  3.504601  0  0  -0.305119  -0.160499  0  3.481641  0
N  N82  1  0.34075711  0.19062743  0.57141039  1  0  -0.237163  0  3.208392  0  0  -0.169437  0  3.490882  0  0  -0.182474  0  3.504574  0  0  -0.305096  -0.160509  0  3.481608  0
N  N83  1  0.80937279  0.65923699  0.92858946  1  0  -0.237339  0  3.208565  0  0  -0.169574  0  3.49102  0  0  -0.182615  0  3.504711  0  0  -0.305163  -0.160642  0  3.48175  0
N  N84  1  0.61123324  0.17025107  0.42318303  1  0  -0.270568  0  3.119318  0  0  -0.239993  0  3.391914  0  0  -0.247421  0  3.406968  0  0  -0.294762  -0.234745  0  3.381924  0
N  N85  1  0.82975431  0.38877695  0.07681884  1  0  -0.270396  0  3.119187  0  0  -0.239798  0  3.39177  0  0  -0.24722  0  3.406826  0  0  -0.294639  -0.234548  0  3.381776  0
N  N86  1  0.38876115  0.82975302  0.57681602  1  0  -0.270617  0  3.119401  0  0  -0.239998  0  3.392011  0  0  -0.24742  0  3.407061  0  0  -0.294767  -0.234743  0  3.38201  0
N  N87  1  0.17024135  0.61122713  0.92318253  1  0  -0.270505  0  3.119381  0  0  -0.239891  0  3.391978  0  0  -0.247312  0  3.407033  0  0  -0.294715  -0.234647  0  3.381993  0
O  O88  1  0.10828241  0.99705920  0.43253395  1  0  -0.563475  0  1.943878  0  0  -0.518852  0  2.207718  0  0  -0.541738  0  2.202241  0  0  -0.330378  -0.502348  0  2.211018  0
O  O89  1  0.00293643  0.89172490  0.06746333  1  0  -0.563581  0  1.943784  0  0  -0.518891  0  2.20757  0  0  -0.541774  0  2.202085  0  0  -0.330459  -0.50239  0  2.210871  0
O  O90  1  0.89171325  0.00293448  0.56746158  1  0  -0.56356  0  1.944007  0  0  -0.518912  0  2.207822  0  0  -0.541796  0  2.202335  0  0  -0.330384  -0.502408  0  2.211126  0
O  O91  1  0.99706364  0.10827650  0.93253234  1  0  -0.563538  0  1.943804  0  0  -0.518894  0  2.207606  0  0  -0.541779  0  2.202123  0  0  -0.330419  -0.502394  0  2.210909  0
O  O92  1  0.65052651  0.40957843  0.54884119  1  0  -0.575411  0  2.179857  0  0  -0.509243  0  2.463471  0  0  -0.53767  0  2.451326  0  0  -0.324169  -0.489287  0  2.471163  0
O  O93  1  0.59041469  0.34946362  0.95116244  1  0  -0.575323  0  2.180214  0  0  -0.509177  0  2.463806  0  0  -0.537594  0  2.451645  0  0  -0.324057  -0.48921  0  2.47149  0
O  O94  1  0.34945652  0.59043104  0.45116085  1  0  -0.575528  0  2.179579  0  0  -0.509431  0  2.463315  0  0  -0.537861  0  2.451162  0  0  -0.324232  -0.489465  0  2.470987  0
O  O95  1  0.40959048  0.65052737  0.04884186  1  0  -0.575245  0  2.180261  0  0  -0.50907  0  2.463918  0  0  -0.537482  0  2.451755  0  0  -0.324015  -0.489116  0  2.47159  0
O  O96  1  0.85648775  0.54379811  0.57195189  1  0  -0.560995  0  1.978864  0  0  -0.537513  0  2.222836  0  0  -0.55895  0  2.21474  0  0  -0.322344  -0.522296  0  2.227961  0
O  O97  1  0.45620692  0.14348893  0.92805239  1  0  -0.561219  0  1.978706  0  0  -0.537755  0  2.222653  0  0  -0.559193  0  2.214545  0  0  -0.32244  -0.522527  0  2.227777  0
O  O98  1  0.14349429  0.45623084  0.42805059  1  0  -0.560945  0  1.97963  0  0  -0.537514  0  2.223721  0  0  -0.55894  0  2.215617  0  0  -0.32238  -0.522308  0  2.228844  0
O  O99  1  0.54377451  0.85652184  0.07194636  1  0  -0.561173  0  1.978535  0  0  -0.537702  0  2.222606  0  0  -0.559142  0  2.214497  0  0  -0.322399  -0.522485  0  2.227723  0
F  F100  1  0.87874985  0.30753539  0.68003558  1  0  -0.260774  0  1.158023  0  0  -0.219675  0  1.325486  0  0  -0.230317  0  1.310482  0  0  -0.107917  -0.211318  0  1.33534  0
F  F101  1  0.69247177  0.12124626  0.81997427  1  0  -0.260799  0  1.157934  0  0  -0.219655  0  1.325515  0  0  -0.230307  0  1.310535  0  0  -0.107939  -0.211313  0  1.335354  0
F  F102  1  0.12123477  0.69247276  0.31996928  1  0  -0.260889  0  1.158064  0  0  -0.219713  0  1.325515  0  0  -0.230335  0  1.310492  0  0  -0.107911  -0.211356  0  1.335353  0
F  F103  1  0.30751728  0.87875924  0.18003007  1  0  -0.260737  0  1.157962  0  0  -0.219658  0  1.325414  0  0  -0.230293  0  1.310409  0  0  -0.107889  -0.211311  0  1.335265  0
F  F104  1  0.67180880  0.55021776  0.69130145  1  0  -0.266661  0  1.160589  0  0  -0.225517  0  1.329713  0  0  -0.236421  0  1.315278  0  0  -0.112217  -0.217443  0  1.339793  0
F  F105  1  0.44980186  0.32819547  0.80869378  1  0  -0.266744  0  1.160515  0  0  -0.225586  0  1.32978  0  0  -0.236472  0  1.315345  0  0  -0.112242  -0.217506  0  1.339828  0
F  F106  1  0.32818618  0.44979928  0.30869394  1  0  -0.266809  0  1.160365  0  0  -0.225684  0  1.329541  0  0  -0.236585  0  1.315097  0  0  -0.11228  -0.217593  0  1.339592  0
F  F107  1  0.55020324  0.67182145  0.19130794  1  0  -0.266704  0  1.160512  0  0  -0.2256  0  1.329654  0  0  -0.236491  0  1.315201  0  0  -0.112262  -0.217507  0  1.339706  0
F  F108  1  0.60614349  0.30971949  0.67054303  1  0  -0.253336  0  1.187748  0  0  -0.213565  0  1.362567  0  0  -0.222892  0  1.345606  0  0  -0.103208  -0.207053  0  1.374763  0
F  F109  1  0.69028858  0.39384992  0.82946728  1  0  -0.253371  0  1.187567  0  0  -0.213511  0  1.362482  0  0  -0.222892  0  1.345557  0  0  -0.103189  -0.20711  0  1.374722  0
F  F110  1  0.39383132  0.69029789  0.32946137  1  0  -0.253333  0  1.187725  0  0  -0.213511  0  1.362566  0  0  -0.222882  0  1.345615  0  0  -0.103211  -0.207106  0  1.374817  0
F  F111  1  0.30970931  0.60615026  0.17053838  1  0  -0.253439  0  1.187529  0  0  -0.213588  0  1.362279  0  0  -0.223015  0  1.34538  0  0  -0.103235  -0.20718  0  1.374532  0
