# generated using pymatgen
data_Zn2H19C46N2(ClO2)5
_symmetry_space_group_name_H-M   'P 1'
_cell_length_a   16.62577213
_cell_length_b   17.84634213
_cell_length_c   33.10619230
_cell_angle_alpha   90.23473326
_cell_angle_beta   89.89660669
_cell_angle_gamma   89.95651680
_symmetry_Int_Tables_number   1
_chemical_formula_structural   Zn2H19C46N2(ClO2)5
_chemical_formula_sum   'Zn4 H38 C92 N4 Cl10 O20'
_cell_volume   9822.81110458
_cell_formula_units_Z   2
loop_
 _symmetry_equiv_pos_site_id
 _symmetry_equiv_pos_as_xyz
  1  'x, y, z'
loop_
 _atom_site_type_symbol
 _atom_site_label
 _atom_site_symmetry_multiplicity
 _atom_site_fract_x
 _atom_site_fract_y
 _atom_site_fract_z
 _atom_site_occupancy
 _atom_site_pbe_bader_charge
 _atom_site_pbe_bader_spin_density
 _atom_site_pbe_cm5_charge
 _atom_site_pbe_ddec_charge
 _atom_site_pbe_ddec_spin_density
 _atom_site_pbe_ddec_sum_bond_order
 _atom_site_pbe_magmom
Zn  Zn0  1  0.58178250  0.50570578  0.50171663  1  1.299373  0  0.66844  0.84573  0  2.386579  0
Zn  Zn1  1  0.41220763  0.48858707  0.50036166  1  1.294565  0  0.669603  0.846777  0  2.382358  0
Zn  Zn2  1  0.41843200  0.50863682  0.96051988  1  1.299167  0  0.66862  0.845983  0  2.387029  0
Zn  Zn3  1  0.58806344  0.49146306  0.96186782  1  1.296203  0  0.669845  0.847831  0  2.38253  0
H  H4  1  0.28965315  0.57485007  0.53707176  1  0.137335  0  0.129369  0.108768  0  0.987519  0
H  H5  1  0.13957125  0.58774940  0.54131031  1  0.110338  0  0.122994  0.13606  0  0.970549  0
H  H6  1  0.12302129  0.39518311  0.46157837  1  0.122127  0  0.12089  0.145138  0  0.974087  0
H  H7  1  0.86952297  0.59585126  0.54597787  1  0.100949  0  0.124046  0.148781  0  0.969007  0
H  H8  1  0.70641900  0.42140897  0.46508811  1  0.140022  0  0.129489  0.11108  0  0.989468  0
H  H9  1  0.85673960  0.41041202  0.46127061  1  0.112246  0  0.121765  0.133829  0  0.973513  0
H  H10  1  0.60098737  0.72444340  0.49700853  1  0.104219  0  0.102871  0.109097  0  1.019693  0
H  H11  1  0.61664523  0.86321688  0.49434438  1  0.089172  0  0.107251  0.112338  0  0.986928  0
H  H12  1  0.35800914  0.88483209  0.49755138  1  0.110001  0  0.107607  0.125224  0  0.989101  0
H  H13  1  0.64118757  0.11401660  0.50258891  1  0.085492  0  0.107844  0.125444  0  0.989134  0
H  H14  1  0.39195666  0.26544501  0.49600521  1  0.112195  0  0.09826  0.10355  0  1.035599  0
H  H15  1  0.38255452  0.12611558  0.49287783  1  0.077032  0  0.107278  0.111659  0  0.987476  0
H  H16  1  0.36455880  0.50076223  0.63077630  1  0.070753  0  0.109352  0.117933  0  0.994441  0
H  H17  1  0.29365293  0.50044232  0.69677601  1  0.078021  0  0.114997  0.122362  0  0.98238  0
H  H18  1  0.62076355  0.49023671  0.62561395  1  0.094122  0  0.105612  0.112825  0  1.034463  0
H  H19  1  0.63536053  0.50124553  0.83149851  1  0.067102  0  0.109264  0.118039  0  0.994076  0
H  H20  1  0.70626853  0.50041169  0.76554370  1  0.131736  0  0.115063  0.122506  0  0.981686  0
H  H21  1  0.37917186  0.49066235  0.83667030  1  0.090475  0  0.105808  0.11281  0  1.035346  0
H  H22  1  0.37221833  0.48600419  0.08913889  1  0.0879  0  0.107393  0.112352  0  0.991811  0
H  H23  1  0.37043433  0.48274401  0.16456060  1  0.076229  0  0.106472  0.110829  0  0.990021  0
H  H24  1  0.62303294  0.53861862  0.16477453  1  0.097268  0  0.108008  0.125691  0  0.989138  0
H  H25  1  0.37613717  0.53637488  0.29784907  1  0.098013  0  0.107966  0.125673  0  0.988959  0
H  H26  1  0.62736282  0.48320366  0.37284141  1  0.086939  0  0.107275  0.112125  0  0.992308  0
H  H27  1  0.62905990  0.48150815  0.29738842  1  0.080084  0  0.106687  0.111154  0  0.989094  0
H  H28  1  0.71062604  0.57678680  0.92504303  1  0.156239  0  0.128977  0.10826  0  0.988308  0
H  H29  1  0.86068962  0.58927046  0.92068296  1  0.108805  0  0.122904  0.136009  0  0.970378  0
H  H30  1  0.87729569  0.39791319  0.00043498  1  0.136219  0  0.121112  0.145827  0  0.973625  0
H  H31  1  0.13040148  0.59727008  0.91580747  1  0.122314  0  0.124152  0.14852  0  0.96909  0
H  H32  1  0.29417237  0.42499357  0.99709125  1  0.163187  0  0.129556  0.111148  0  0.98994  0
H  H33  1  0.14392542  0.41333449  0.00064081  1  0.116235  0  0.121679  0.133377  0  0.973319  0
H  H34  1  0.39933105  0.72736729  0.96457295  1  0.100233  0  0.103028  0.109452  0  1.018997  0
H  H35  1  0.38341871  0.86621045  0.96677110  1  0.097011  0  0.107297  0.112332  0  0.987434  0
H  H36  1  0.64198291  0.88779823  0.96268625  1  0.112279  0  0.107641  0.125569  0  0.989129  0
H  H37  1  0.35865501  0.11740030  0.95874546  1  0.084364  0  0.107736  0.125616  0  0.989828  0
H  H38  1  0.60826344  0.26799828  0.96577278  1  0.116057  0  0.098627  0.104179  0  1.034788  0
H  H39  1  0.61734167  0.12862785  0.96821446  1  0.073686  0  0.107308  0.112163  0  0.98732  0
H  H40  1  0.31708877  0.57578688  0.81304137  1  0.615061  0  0.318198  0.351022  0  0.925987  0
H  H41  1  0.68278746  0.57537655  0.64955700  1  0.607366  0  0.318142  0.350775  0  0.925666  0
C  C42  1  0.47315005  0.64131759  0.50022090  1  1.576549  0  0.212302  0.605102  0  4.158596  0
C  C43  1  0.49186978  0.49658826  0.57919933  1  1.517467  0  0.214134  0.595831  0  4.159935  0
C  C44  1  0.51599867  0.35319104  0.50079271  1  1.630949  0  0.21294  0.607011  0  4.154467  0
C  C45  1  0.50588245  0.50259685  0.42309687  1  1.614412  0  0.212866  0.6077  0  4.163301  0
C  C46  1  0.52723429  0.64416797  0.96148760  1  1.553254  0  0.213509  0.607008  0  4.155832  0
C  C47  1  0.50817170  0.49772262  0.88305279  1  1.628426  0  0.214184  0.595922  0  4.157857  0
C  C48  1  0.48433718  0.35612064  0.96150993  1  1.561594  0  0.21341  0.608284  0  4.152527  0
C  C49  1  0.49387781  0.50652092  0.03912480  1  1.620079  0  0.213232  0.609382  0  4.162014  0
C  C50  1  0.24973472  0.53628656  0.52126792  1  0.514858  0  0.064538  0.130387  0  3.898739  0
C  C51  1  0.16690146  0.54332033  0.52334160  1  0.008418  0  -0.070401  -0.175953  0  3.895693  0
C  C52  1  0.11886217  0.49206816  0.50163952  1  -0.008653  0  0.026148  0.198119  0  4.098669  0
C  C53  1  0.15740754  0.43598210  0.47884515  1  0.077998  0  -0.073977  -0.231592  0  3.880805  0
C  C54  1  0.24120590  0.43359202  0.47863011  1  0.65474  0  0.156296  0.293474  0  4.061931  0
C  C55  1  0.03394563  0.49637526  0.50239879  1  -0.289427  0  -0.019832  -0.078022  0  4.052346  0
C  C56  1  0.96071024  0.49932203  0.50271757  1  0.019171  0  -0.020429  -0.079908  0  4.052  0
C  C57  1  0.87573398  0.50295389  0.50325673  1  0.101627  0  0.027109  0.198338  0  4.096748  0
C  C58  1  0.83608689  0.55657289  0.52726778  1  0.0385  0  -0.070389  -0.225141  0  3.871708  0
C  C59  1  0.75229592  0.55834711  0.52689456  1  0.66589  0  0.157331  0.293986  0  4.052552  0
C  C60  1  0.74565395  0.45929455  0.48179433  1  0.494407  0  0.063441  0.124263  0  3.904172  0
C  C61  1  0.82860877  0.45319098  0.48006901  1  -0.000489  0  -0.071612  -0.176952  0  3.901643  0
C  C62  1  0.47268011  0.72555953  0.49835571  1  -0.023022  0  -0.01774  -0.087854  0  3.898434  0
C  C63  1  0.54840569  0.76081010  0.49685061  1  0.047947  0  -0.082049  -0.071249  0  3.992853  0
C  C64  1  0.55712869  0.83781160  0.49547051  1  -0.03213  0  -0.087272  -0.139057  0  3.962679  0
C  C65  1  0.48831699  0.88415518  0.49587202  1  0.027954  0  0.005125  0.163323  0  4.118966  0
C  C66  1  0.41192565  0.85015585  0.49712712  1  0.035838  0  -0.089725  -0.200764  0  3.913287  0
C  C67  1  0.40426362  0.77227232  0.49826798  1  0.071926  0  0.023204  0.149854  0  4.01096  0
C  C68  1  0.49640697  0.96306645  0.49568898  1  -0.482055  0  -0.040422  -0.101084  0  4.103447  0
C  C69  1  0.50574550  0.03092388  0.49630531  1  0.128039  0  -0.041346  -0.102674  0  4.103993  0
C  C70  1  0.51133381  0.11001295  0.49727489  1  0.055208  0  0.003833  0.161716  0  4.121704  0
C  C71  1  0.58600103  0.14668777  0.50059667  1  0.035922  0  -0.08976  -0.20145  0  3.917464  0
C  C72  1  0.59022662  0.22482374  0.50171933  1  0.048659  0  0.022741  0.148713  0  4.011998  0
C  C73  1  0.51999596  0.26897399  0.49984544  1  -0.026906  0  -0.016234  -0.084674  0  3.897319  0
C  C74  1  0.44601379  0.23105017  0.49688148  1  -0.050713  0  -0.082705  -0.07207  0  3.993617  0
C  C75  1  0.44073169  0.15378049  0.49532474  1  0.027207  0  -0.086032  -0.134615  0  3.95975  0
C  C76  1  0.42183564  0.50010960  0.64674038  1  0.042002  0  -0.073239  -0.128797  0  3.914116  0
C  C77  1  0.42369000  0.50046426  0.68912043  1  -0.038651  0  -0.004838  0.075798  0  4.041407  0
C  C78  1  0.35137153  0.50073103  0.71239855  1  -0.015457  0  -0.06815  -0.118675  0  3.944461  0
C  C79  1  0.56740913  0.49656941  0.64447857  1  -0.033612  0  -0.08858  -0.165474  0  3.952317  0
C  C80  1  0.57271333  0.50095788  0.68676658  1  -0.043595  0  -0.006976  0.047592  0  4.018882  0
C  C81  1  0.64818814  0.50231961  0.70850206  1  0.013562  0  -0.019153  -0.107809  0  3.998061  0
C  C82  1  0.57809086  0.50042166  0.81553270  1  0.029955  0  -0.073212  -0.129174  0  3.914468  0
C  C83  1  0.57622409  0.50056290  0.77316886  1  -0.053549  0  -0.005182  0.074905  0  4.043848  0
C  C84  1  0.64856752  0.50069230  0.74990819  1  -0.085363  0  -0.068623  -0.119258  0  3.944913  0
C  C85  1  0.43251941  0.49683652  0.81782365  1  0.004244  0  -0.088593  -0.165047  0  3.9533  0
C  C86  1  0.42720778  0.50109696  0.77554609  1  0.013979  0  -0.006576  0.047279  0  4.019587  0
C  C87  1  0.35175785  0.50250332  0.75381603  1  -0.035005  0  -0.019834  -0.109302  0  3.999296  0
C  C88  1  0.49317598  0.49772206  0.62461401  1  0.066532  0  -0.015317  -0.0121  0  3.986903  0
C  C89  1  0.49931240  0.50149193  0.70967730  1  0.012436  0  0.007817  0.011707  0  3.9021  0
C  C90  1  0.50676500  0.49818356  0.83766224  1  -0.097818  0  -0.015099  -0.011281  0  3.986569  0
C  C91  1  0.50059709  0.50155135  0.75262848  1  -0.028863  0  0.007936  0.012269  0  3.902431  0
C  C92  1  0.49762034  0.51089454  0.08435856  1  -0.024407  0  -0.016078  -0.082646  0  3.912411  0
C  C93  1  0.42692773  0.49651377  0.10633012  1  -0.00138  0  -0.081588  -0.077653  0  3.998688  0
C  C94  1  0.42578493  0.49499413  0.14821079  1  -0.039495  0  -0.087224  -0.139704  0  3.963469  0
C  C95  1  0.49710480  0.50923380  0.16997783  1  0.140993  0  0.00298  0.159686  0  4.123231  0
C  C96  1  0.56795714  0.52576968  0.14842917  1  0.073067  0  -0.089654  -0.199664  0  3.923713  0
C  C97  1  0.56822165  0.52655753  0.10634543  1  0.017713  0  0.022107  0.146545  0  4.018245  0
C  C98  1  0.49841277  0.50786937  0.21272470  1  -0.214127  0  -0.042774  -0.103334  0  4.108717  0
C  C99  1  0.50085971  0.50737578  0.24957249  1  -0.239218  0  -0.042309  -0.103129  0  4.109182  0
C  C100  1  0.50221331  0.50761954  0.29231679  1  0.137587  0  0.002762  0.160044  0  4.122374  0
C  C101  1  0.43130184  0.52342559  0.31405550  1  0.120002  0  -0.089725  -0.200303  0  3.923593  0
C  C102  1  0.43109870  0.52338076  0.35613868  1  -0.032445  0  0.022436  0.147098  0  4.017385  0
C  C103  1  0.50184868  0.50755297  0.37791914  1  0.000256  0  -0.016423  -0.082994  0  3.912924  0
C  C104  1  0.57257123  0.49382913  0.35576955  1  -0.022163  0  -0.081207  -0.077018  0  3.999126  0
C  C105  1  0.57365979  0.49318024  0.31388511  1  -0.052906  0  -0.087406  -0.139921  0  3.962846  0
C  C106  1  0.75054573  0.53836245  0.94081215  1  0.504989  0  0.064842  0.131037  0  3.89743  0
C  C107  1  0.83339330  0.54515516  0.93866898  1  -0.015114  0  -0.070097  -0.176108  0  3.894714  0
C  C108  1  0.88146526  0.49413171  0.96033088  1  0.18481  0  0.026463  0.198574  0  4.097523  0
C  C109  1  0.84291074  0.43848692  0.98315539  1  -0.008833  0  -0.074787  -0.233104  0  3.881599  0
C  C110  1  0.75911242  0.43628331  0.98340811  1  0.652412  0  0.156503  0.294334  0  4.060647  0
C  C111  1  0.96639251  0.49827571  0.95948738  1  -0.152065  0  -0.019993  -0.078998  0  4.053044  0
C  C112  1  0.03962686  0.50114810  0.95906170  1  -0.218461  0  -0.020703  -0.079426  0  4.053018  0
C  C113  1  0.12458035  0.50503717  0.95854474  1  0.080935  0  0.027249  0.198299  0  4.094314  0
C  C114  1  0.16401117  0.55844270  0.93456691  1  0.030889  0  -0.070586  -0.224367  0  3.869657  0
C  C115  1  0.24778887  0.56062733  0.93509287  1  0.673435  0  0.157727  0.29476  0  4.051766  0
C  C116  1  0.25480808  0.46241649  0.98028452  1  0.463212  0  0.062774  0.12377  0  3.904574  0
C  C117  1  0.17189022  0.45589943  0.98184720  1  0.003654  0  -0.071171  -0.176066  0  3.899276  0
C  C118  1  0.52761050  0.72849027  0.96288453  1  0.059623  0  -0.01749  -0.088498  0  3.898441  0
C  C119  1  0.45182982  0.76377408  0.96445985  1  0.046573  0  -0.082775  -0.072279  0  3.992997  0
C  C120  1  0.44296995  0.84079591  0.96557073  1  -0.032812  0  -0.086407  -0.13758  0  3.963875  0
C  C121  1  0.51171249  0.88710569  0.96485191  1  0.074338  0  0.004723  0.162307  0  4.121584  0
C  C122  1  0.58814962  0.85311627  0.96339534  1  -0.008639  0  -0.08967  -0.201196  0  3.916047  0
C  C123  1  0.59593848  0.77520971  0.96251713  1  -0.005768  0  0.023243  0.150521  0  4.012556  0
C  C124  1  0.50348942  0.96600906  0.96506701  1  -0.498057  0  -0.041152  -0.101553  0  4.10308  0
C  C125  1  0.49402885  0.03387257  0.96468800  1  0.139604  0  -0.041155  -0.102293  0  4.102937  0
C  C126  1  0.48851481  0.11296462  0.96400056  1  0.144678  0  0.004819  0.162383  0  4.12045  0
C  C127  1  0.41392548  0.14987302  0.96087453  1  -0.036617  0  -0.089287  -0.200916  0  3.917885  0
C  C128  1  0.40991039  0.22802364  0.96005450  1  0.055791  0  0.022313  0.148227  0  4.012426  0
C  C129  1  0.48021111  0.27195719  0.96212261  1  0.055554  0  -0.016453  -0.084776  0  3.89912  0
C  C130  1  0.55411853  0.23379865  0.96483672  1  -0.043486  0  -0.083313  -0.072467  0  3.99425  0
C  C131  1  0.55921819  0.15650871  0.96600819  1  0.004215  0  -0.085787  -0.135478  0  3.960092  0
C  C132  1  0.27069526  0.50792916  0.77372030  1  1.525274  0  0.225685  0.580773  0  4.103425  0
C  C133  1  0.72922607  0.50756944  0.68861813  1  1.501186  0  0.225443  0.578966  0  4.106146  0
N  N134  1  0.28684018  0.48227780  0.49933410  1  -1.238955  0  -0.310945  -0.250492  0  3.455193  0
N  N135  1  0.70746258  0.51123799  0.50472186  1  -1.209931  0  -0.309872  -0.250364  0  3.451081  0
N  N136  1  0.71344951  0.48477065  0.96276425  1  -1.231276  0  -0.311084  -0.250872  0  3.453362  0
N  N137  1  0.29278104  0.51411647  0.95738283  1  -1.221966  0  -0.310031  -0.251134  0  3.453114  0
Cl  Cl138  1  0.28861439  0.36585069  0.45048451  1  -0.14312  0  0.050437  -0.030129  0  1.503538  0
Cl  Cl139  1  0.70386208  0.62422540  0.55597656  1  -0.144074  0  0.051587  -0.026271  0  1.505138  0
Cl  Cl140  1  0.30671487  0.73810896  0.50069044  1  -0.208754  0  -0.027506  -0.100933  0  1.483812  0
Cl  Cl141  1  0.68565384  0.26284855  0.50706951  1  -0.211389  0  -0.027168  -0.100364  0  1.479218  0
Cl  Cl142  1  0.65781214  0.55151190  0.08323222  1  -0.202944  0  -0.02628  -0.089481  0  1.481982  0
Cl  Cl143  1  0.34136314  0.54747161  0.37951840  1  -0.192759  0  -0.026224  -0.08938  0  1.481572  0
Cl  Cl144  1  0.71172093  0.36903990  0.01157411  1  -0.141436  0  0.05036  -0.030544  0  1.502393  0
Cl  Cl145  1  0.29602321  0.62628020  0.90611274  1  -0.144026  0  0.05159  -0.02677  0  1.504235  0
Cl  Cl146  1  0.69350570  0.74096910  0.95991376  1  -0.209261  0  -0.027457  -0.101073  0  1.483675  0
Cl  Cl147  1  0.31456002  0.26632100  0.95472996  1  -0.209386  0  -0.027225  -0.100713  0  1.479697  0
O  O148  1  0.54095028  0.61250459  0.50930048  1  -1.173895  0  -0.323501  -0.569399  0  2.410054  0
O  O149  1  0.40934968  0.60488811  0.49269155  1  -1.1527  0  -0.314613  -0.545069  0  2.353824  0
O  O150  1  0.42436055  0.50714965  0.56200736  1  -1.163486  0  -0.317564  -0.546812  0  2.303825  0
O  O151  1  0.55915267  0.48576803  0.56171287  1  -1.162908  0  -0.31845  -0.549633  0  2.347049  0
O  O152  1  0.44789338  0.38048759  0.51074312  1  -1.165868  0  -0.320116  -0.552712  0  2.351526  0
O  O153  1  0.57800739  0.39084132  0.49121559  1  -1.165095  0  -0.31679  -0.553005  0  2.366546  0
O  O154  1  0.57214452  0.52095759  0.43971117  1  -1.160097  0  -0.321211  -0.544783  0  2.270448  0
O  O155  1  0.44357221  0.47843304  0.44107260  1  -1.163224  0  -0.320873  -0.562488  0  2.423736  0
O  O156  1  0.45938552  0.61509358  0.95268512  1  -1.173981  0  -0.324217  -0.570051  0  2.409906  0
O  O157  1  0.59110955  0.60795115  0.96911699  1  -1.156155  0  -0.315177  -0.546044  0  2.351927  0
O  O158  1  0.57568381  0.50860445  0.90020221  1  -1.165951  0  -0.31719  -0.546248  0  2.303052  0
O  O159  1  0.44094000  0.48716854  0.90058160  1  -1.164462  0  -0.318981  -0.550266  0  2.345837  0
O  O160  1  0.55248920  0.38320544  0.95168736  1  -1.167748  0  -0.320822  -0.553892  0  2.352819  0
O  O161  1  0.42234405  0.39394977  0.97117071  1  -1.164463  0  -0.316511  -0.55341  0  2.366179  0
O  O162  1  0.42769613  0.52496075  0.02251200  1  -1.157668  0  -0.321534  -0.545353  0  2.270349  0
O  O163  1  0.55636862  0.48253944  0.02110802  1  -1.163929  0  -0.320818  -0.563249  0  2.423487  0
O  O164  1  0.26457521  0.55386167  0.80686104  1  -1.117432  0  -0.35214  -0.492508  0  2.23564  0
O  O165  1  0.21087753  0.47676693  0.76091682  1  -1.117675  0  -0.290084  -0.452701  0  2.028058  0
O  O166  1  0.73531580  0.55341508  0.65564837  1  -1.112195  0  -0.351675  -0.4916  0  2.235596  0
O  O167  1  0.78904311  0.47631947  0.70127102  1  -1.11916  0  -0.29  -0.451933  0  2.028147  0
