# generated using pymatgen
data_CdH18C18N4O5
_symmetry_space_group_name_H-M   'P 1'
_cell_length_a   9.10726751
_cell_length_b   10.50818720
_cell_length_c   11.57658240
_cell_angle_alpha   88.72821997
_cell_angle_beta   68.10869216
_cell_angle_gamma   68.20574785
_symmetry_Int_Tables_number   1
_chemical_formula_structural   CdH18C18N4O5
_chemical_formula_sum   'Cd2 H36 C36 N8 O10'
_cell_volume   945.79755038
_cell_formula_units_Z   2
loop_
 _symmetry_equiv_pos_site_id
 _symmetry_equiv_pos_as_xyz
  1  'x, y, z'
loop_
 _atom_site_type_symbol
 _atom_site_label
 _atom_site_symmetry_multiplicity
 _atom_site_fract_x
 _atom_site_fract_y
 _atom_site_fract_z
 _atom_site_occupancy
 _atom_site_hle17_bader_spin_density
 _atom_site_hle17_ddec_charge
 _atom_site_hle17_ddec_spin_density
 _atom_site_hle17_ddec_sum_bond_order
 _atom_site_hle17_magmom
 _atom_site_hse06_10hf_bader_spin_density
 _atom_site_hse06_10hf_ddec_charge
 _atom_site_hse06_10hf_ddec_spin_density
 _atom_site_hse06_10hf_ddec_sum_bond_order
 _atom_site_hse06_10hf_magmom
 _atom_site_hse06_bader_spin_density
 _atom_site_hse06_ddec_charge
 _atom_site_hse06_ddec_spin_density
 _atom_site_hse06_ddec_sum_bond_order
 _atom_site_hse06_magmom
 _atom_site_pbe_bader_spin_density
 _atom_site_pbe_cm5_charge
 _atom_site_pbe_ddec_charge
 _atom_site_pbe_ddec_spin_density
 _atom_site_pbe_ddec_sum_bond_order
 _atom_site_pbe_magmom
Cd  Cd0  1  0.86594931  0.66512630  0.14313188  1  0  1.128911  0  1.68256  0  0  0.938889  0  2.128831  0  0  0.995405  0  2.077657  0  0  0.767894  0.895421  0  2.166068  0
Cd  Cd1  1  0.13405646  0.33487274  0.85686663  1  0  1.128905  0  1.682573  0  0  0.9389  0  2.128815  0  0  0.995414  0  2.077642  0  0  0.767882  0.895429  0  2.166056  0
H  H2  1  0.89907197  0.15953858  0.09864402  1  0  0.108751  0  0.95615  0  0  0.117131  0  1.022698  0  0  0.120585  0  1.020457  0  0  0.104798  0.11471  0  1.024422  0
H  H3  1  0.10093308  0.84046450  0.90134854  1  0  0.108785  0  0.956163  0  0  0.117149  0  1.02272  0  0  0.1206  0  1.020493  0  0  0.104787  0.114711  0  1.024464  0
H  H4  1  0.09205796  0.87839772  0.33326343  1  0  0.122111  0  0.934021  0  0  0.131872  0  0.995336  0  0  0.136264  0  0.991738  0  0  0.110473  0.12869  0  0.998067  0
H  H5  1  0.90793158  0.12160565  0.66673544  1  0  0.122065  0  0.933989  0  0  0.131808  0  0.995335  0  0  0.136198  0  0.991737  0  0  0.110425  0.128617  0  0.998071  0
H  H6  1  0.11122489  0.28359916  0.32929387  1  0  0.107785  0  0.98147  0  0  0.113888  0  1.052757  0  0  0.118542  0  1.048484  0  0  0.099246  0.111007  0  1.054827  0
H  H7  1  0.88877396  0.71640203  0.67070490  1  0  0.107783  0  0.981517  0  0  0.113882  0  1.052814  0  0  0.118541  0  1.048527  0  0  0.099251  0.111002  0  1.054882  0
H  H8  1  0.11804208  0.23211804  0.52448091  1  0  0.079355  0  0.93261  0  0  0.096349  0  0.998439  0  0  0.096988  0  0.99755  0  0  0.096484  0.095857  0  0.999134  0
H  H9  1  0.88195511  0.76787910  0.47552192  1  0  0.079376  0  0.9326  0  0  0.096344  0  0.998465  0  0  0.09698  0  0.997579  0  0  0.096474  0.09585  0  0.999163  0
H  H10  1  0.27697806  0.08377324  0.54777911  1  0  0.101509  0  0.929777  0  0  0.119557  0  0.991754  0  0  0.119854  0  0.992775  0  0  0.106799  0.119322  0  0.99105  0
H  H11  1  0.72301508  0.91621984  0.45222244  1  0  0.101556  0  0.92966  0  0  0.119601  0  0.991641  0  0  0.119895  0  0.992667  0  0  0.106803  0.119364  0  0.99094  0
H  H12  1  0.33047543  0.15356791  0.40240830  1  0  0.076971  0  0.955897  0  0  0.094457  0  1.023221  0  0  0.094808  0  1.02336  0  0  0.09584  0.094034  0  1.023408  0
H  H13  1  0.66951890  0.84642517  0.59759462  1  0  0.077021  0  0.955892  0  0  0.09453  0  1.023191  0  0  0.094883  0  1.02333  0  0  0.095875  0.094108  0  1.023374  0
H  H14  1  0.52770724  0.94101728  0.12104515  1  0  0.107219  0  0.960814  0  0  0.116951  0  1.020775  0  0  0.119361  0  1.019983  0  0  0.117086  0.114975  0  1.021849  0
H  H15  1  0.47228924  0.05897379  0.87896497  1  0  0.107221  0  0.960744  0  0  0.116955  0  1.020712  0  0  0.119359  0  1.019924  0  0  0.117041  0.114979  0  1.021785  0
H  H16  1  0.32825409  0.91318864  0.99626963  1  0  0.132034  0  0.951875  0  0  0.140961  0  1.012556  0  0  0.14357  0  1.011724  0  0  0.125637  0.139029  0  1.013345  0
H  H17  1  0.67173571  0.08680669  0.00374667  1  0  0.132091  0  0.951823  0  0  0.141024  0  1.012479  0  0  0.143633  0  1.01165  0  0  0.125693  0.139077  0  1.013287  0
H  H18  1  0.72391613  0.52472018  0.96481582  1  0  0.108041  0  0.944729  0  0  0.117504  0  1.009323  0  0  0.119977  0  1.006005  0  0  0.138372  0.115295  0  1.012599  0
H  H19  1  0.27609419  0.47527666  0.03517449  1  0  0.108041  0  0.9447  0  0  0.117531  0  1.009248  0  0  0.120006  0  1.005929  0  0  0.138374  0.115323  0  1.012523  0
H  H20  1  0.31739452  0.66149161  0.92526873  1  0  0.092687  0  0.940307  0  0  0.105946  0  1.005457  0  0  0.107289  0  1.00436  0  0  0.112397  0.104668  0  1.006651  0
H  H21  1  0.68260624  0.33851060  0.07473290  1  0  0.092691  0  0.940302  0  0  0.105973  0  1.005412  0  0  0.107318  0  1.00431  0  0  0.112398  0.104695  0  1.006607  0
H  H22  1  0.52395075  0.52530892  0.87127313  1  0  0.074385  0  0.91878  0  0  0.09329  0  0.974556  0  0  0.093951  0  0.974532  0  0  0.114574  0.092771  0  0.974674  0
H  H23  1  0.47604691  0.47469228  0.12872512  1  0  0.074401  0  0.91879  0  0  0.093286  0  0.974575  0  0  0.09393  0  0.974576  0  0  0.114589  0.092768  0  0.974694  0
H  H24  1  0.42199416  0.79733274  0.75996571  1  0  0.093536  0  0.939752  0  0  0.106954  0  1.00734  0  0  0.108952  0  1.006291  0  0  0.097965  0.10519  0  1.008608  0
H  H25  1  0.57800158  0.20267264  0.24003818  1  0  0.093615  0  0.93973  0  0  0.107017  0  1.007304  0  0  0.109019  0  1.006243  0  0  0.097984  0.105249  0  1.008582  0
H  H26  1  0.63765151  0.67473042  0.71559480  1  0  0.075325  0  0.939462  0  0  0.093395  0  1.000444  0  0  0.094304  0  1.000439  0  0  0.095225  0.09256  0  1.000475  0
H  H27  1  0.36234613  0.32527596  0.28440849  1  0  0.075368  0  0.939455  0  0  0.093444  0  1.000417  0  0  0.094352  0  1.000412  0  0  0.095238  0.092609  0  1.000449  0
H  H28  1  0.56351371  0.49285424  0.64456957  1  0  0.073869  0  0.918826  0  0  0.090027  0  0.978389  0  0  0.090446  0  0.978979  0  0  0.110851  0.089538  0  0.978253  0
H  H29  1  0.43648752  0.50715207  0.35543181  1  0  0.073812  0  0.918815  0  0  0.090014  0  0.978345  0  0  0.090435  0  0.978935  0  0  0.110838  0.089493  0  0.978245  0
H  H30  1  0.34556889  0.60810009  0.69654759  1  0  0.080354  0  0.941752  0  0  0.094702  0  1.006967  0  0  0.094491  0  1.00832  0  0  0.11135  0.094663  0  1.006076  0
H  H31  1  0.65443091  0.39190418  0.30345254  1  0  0.080358  0  0.941713  0  0  0.094691  0  1.006965  0  0  0.094479  0  1.008322  0  0  0.11135  0.094655  0  1.006069  0
H  H32  1  0.78398292  0.53374862  0.43814713  1  0  0.098536  0  0.932254  0  0  0.108987  0  0.992383  0  0  0.111952  0  0.988789  0  0  0.134523  0.10701  0  0.994514  0
H  H33  1  0.21601928  0.46625050  0.56185503  1  0  0.098514  0  0.932153  0  0  0.108942  0  0.992319  0  0  0.111906  0  0.988728  0  0  0.134505  0.106965  0  0.994449  0
H  H34  1  0.43356607  0.84304015  0.32432240  1  0  0.103968  0  0.983764  0  0  0.11062  0  1.048083  0  0  0.113475  0  1.046481  0  0  0.114129  0.108581  0  1.049208  0
H  H35  1  0.56644351  0.15696602  0.67567737  1  0  0.103902  0  0.98376  0  0  0.110608  0  1.04802  0  0  0.113462  0  1.046418  0  0  0.114122  0.108567  0  1.049147  0
H  H36  1  0.25821276  0.80425994  0.56752635  1  0  0.114318  0  0.990441  0  0  0.119819  0  1.060324  0  0  0.12113  0  1.061917  0  0  0.117721  0.118643  0  1.059634  0
H  H37  1  0.74179324  0.19574627  0.43247275  1  0  0.114366  0  0.990543  0  0  0.119848  0  1.06043  0  0  0.121208  0  1.061972  0  0  0.117767  0.118666  0  1.059745  0
C  C38  1  0.00565747  0.23308898  0.20801464  1  0  -0.048763  0  3.791279  0  0  -0.022901  0  4.028576  0  0  -0.02988  0  4.051643  0  0  -0.025727  -0.018377  0  4.013088  0
C  C39  1  0.99434425  0.76691112  0.79198158  1  0  -0.048739  0  3.791253  0  0  -0.022887  0  4.028553  0  0  -0.029861  0  4.051613  0  0  -0.025745  -0.018369  0  4.013071  0
C  C40  1  0.95770344  0.13643644  0.16706324  1  0  -0.100447  0  3.707102  0  0  -0.139831  0  3.960367  0  0  -0.13864  0  3.979246  0  0  -0.091339  -0.140522  0  3.94842  0
C  C41  1  0.04229206  0.86356682  0.83293300  1  0  -0.100506  0  3.707117  0  0  -0.139863  0  3.960393  0  0  -0.138674  0  3.979263  0  0  -0.091336  -0.140539  0  3.948458  0
C  C42  1  0.98699193  0.00887528  0.21362451  1  0  -0.043557  0  3.771472  0  0  -0.016078  0  4.006109  0  0  -0.022046  0  4.026906  0  0  -0.017347  -0.012645  0  3.992705  0
C  C43  1  0.01300406  0.99112695  0.78637162  1  0  -0.043478  0  3.771386  0  0  -0.016004  0  4.006027  0  0  -0.021972  0  4.026822  0  0  -0.017345  -0.012576  0  3.992626  0
C  C44  1  0.06617316  0.97836232  0.29896334  1  0  -0.161199  0  3.699307  0  0  -0.202541  0  3.962811  0  0  -0.202269  0  3.977008  0  0  -0.089372  -0.202174  0  3.953294  0
C  C45  1  0.93381423  0.02164315  0.70103697  1  0  -0.161237  0  3.69921  0  0  -0.202576  0  3.962748  0  0  -0.202304  0  3.976951  0  0  -0.089321  -0.202194  0  3.953226  0
C  C46  1  0.10904957  0.07709168  0.34333376  1  0  0.259225  0  3.829933  0  0  0.252847  0  4.089721  0  0  0.262698  0  4.104995  0  0  0.078941  0.245803  0  4.079456  0
C  C47  1  0.89094284  0.92291064  0.65666689  1  0  0.259442  0  3.829876  0  0  0.253034  0  4.089656  0  0  0.262857  0  4.10493  0  0  0.078983  0.245994  0  4.079389  0
C  C48  1  0.07964043  0.20431585  0.29760722  1  0  -0.21222  0  3.74181  0  0  -0.244772  0  3.992706  0  0  -0.246987  0  4.010348  0  0  -0.110074  -0.242433  0  3.979809  0
C  C49  1  0.92035604  0.79568535  0.70238966  1  0  -0.212273  0  3.741809  0  0  -0.244829  0  3.992735  0  0  -0.247045  0  4.010367  0  0  -0.110071  -0.24249  0  3.97984  0
C  C50  1  0.97204134  0.37180784  0.16230555  1  0  0.624769  0  3.943737  0  0  0.573416  0  4.236896  0  0  0.607622  0  4.231016  0  0  0.189923  0.54954  0  4.240226  0
C  C51  1  0.02796277  0.62819222  0.83769170  1  0  0.624756  0  3.943725  0  0  0.573416  0  4.236881  0  0  0.60762  0  4.230995  0  0  0.189907  0.549541  0  4.240209  0
C  C52  1  0.92709477  0.90582147  0.17773088  1  0  0.627967  0  3.953283  0  0  0.581672  0  4.244016  0  0  0.615096  0  4.238355  0  0  0.188549  0.558922  0  4.246592  0
C  C53  1  0.07290791  0.09417653  0.82226338  1  0  0.62789  0  3.953301  0  0  0.581574  0  4.244071  0  0  0.614998  0  4.23842  0  0  0.188555  0.558821  0  4.246643  0
C  C54  1  0.22800606  0.13388801  0.47829884  1  0  -0.074233  0  3.650124  0  0  -0.175063  0  3.918547  0  0  -0.168615  0  3.924058  0  0  -0.141617  -0.179177  0  3.914736  0
C  C55  1  0.77198731  0.86610713  0.52170344  1  0  -0.074315  0  3.650026  0  0  -0.175177  0  3.918438  0  0  -0.168756  0  3.923942  0  0  -0.141631  -0.179287  0  3.914638  0
C  C56  1  0.53665417  0.85027269  0.07175864  1  0  -0.00322  0  3.754556  0  0  -0.036886  0  4.02099  0  0  -0.035253  0  4.042663  0  0  -0.005857  -0.037679  0  4.006172  0
C  C57  1  0.46334446  0.14972141  0.92824989  1  0  -0.003243  0  3.754683  0  0  -0.036909  0  4.021116  0  0  -0.03527  0  4.042785  0  0  -0.005812  -0.037699  0  4.006288  0
C  C58  1  0.43778492  0.83825733  0.01063997  1  0  -0.05853  0  3.642475  0  0  -0.097197  0  3.89698  0  0  -0.096035  0  3.916452  0  0  0.003934  -0.097712  0  3.883778  0
C  C59  1  0.56221467  0.16173471  0.98936920  1  0  -0.058547  0  3.642507  0  0  -0.09721  0  3.897021  0  0  -0.096053  0  3.916498  0  0  0.003859  -0.097717  0  3.883828  0
C  C60  1  0.64275153  0.63358901  0.99363171  1  0  0.159148  0  3.674486  0  0  0.094763  0  3.943745  0  0  0.109095  0  3.957312  0  0  0.137662  0.084945  0  3.934718  0
C  C61  1  0.35725639  0.36640789  0.00636190  1  0  0.159278  0  3.674503  0  0  0.094866  0  3.943787  0  0  0.109199  0  3.957352  0  0  0.137689  0.085045  0  3.934759  0
C  C62  1  0.45591631  0.63787037  0.88021806  1  0  0.002537  0  3.623331  0  0  -0.058546  0  3.880246  0  0  -0.054452  0  3.891433  0  0  -0.048663  -0.061071  0  3.872702  0
C  C63  1  0.54408254  0.36213084  0.11978329  1  0  0.002497  0  3.623418  0  0  -0.058566  0  3.880275  0  0  -0.054467  0  3.891469  0  0  -0.048713  -0.061091  0  3.872731  0
C  C64  1  0.50243071  0.68683707  0.75124664  1  0  -0.154494  0  3.672883  0  0  -0.198482  0  3.936151  0  0  -0.200858  0  3.948906  0  0  -0.161467  -0.196774  0  3.928001  0
C  C65  1  0.49756622  0.31316829  0.24875690  1  0  -0.154655  0  3.672942  0  0  -0.198604  0  3.936162  0  0  -0.200973  0  3.948916  0  0  -0.161477  -0.196896  0  3.928008  0
C  C66  1  0.47772576  0.60261056  0.65960399  1  0  0.008469  0  3.62544  0  0  -0.0519  0  3.883089  0  0  -0.047523  0  3.895185  0  0  -0.050662  -0.054945  0  3.87528  0
C  C67  1  0.52227404  0.39739369  0.34039528  1  0  0.008576  0  3.625381  0  0  -0.051846  0  3.883046  0  0  -0.047478  0  3.895152  0  0  -0.05067  -0.054869  0  3.875239  0
C  C68  1  0.66646650  0.61399686  0.43929118  1  0  0.148804  0  3.678564  0  0  0.090371  0  3.947418  0  0  0.102922  0  3.961835  0  0  0.133681  0.08216  0  3.937284  0
C  C69  1  0.33353831  0.38600426  0.56070928  1  0  0.148855  0  3.678513  0  0  0.09043  0  3.947386  0  0  0.102982  0  3.9618  0  0  0.133683  0.082216  0  3.937254  0
C  C70  1  0.48132437  0.77332421  0.38403638  1  0  -0.001316  0  3.774764  0  0  -0.036184  0  4.042604  0  0  -0.033591  0  4.061127  0  0  -0.008255  -0.037997  0  4.030166  0
C  C71  1  0.51868330  0.22668096  0.61596312  1  0  -0.001127  0  3.774684  0  0  -0.036036  0  4.042494  0  0  -0.033444  0  4.061026  0  0  -0.008203  -0.037849  0  4.03005  0
C  C72  1  0.39199625  0.75481736  0.50407762  1  0  -0.071359  0  3.666613  0  0  -0.110935  0  3.927268  0  0  -0.109131  0  3.946058  0  0  -0.004492  -0.112427  0  3.915426  0
C  C73  1  0.60801166  0.24518470  0.49591930  1  0  -0.071406  0  3.666601  0  0  -0.110976  0  3.92729  0  0  -0.109219  0  3.946039  0  0  -0.004529  -0.112468  0  3.915461  0
N  N74  1  0.66360926  0.72185712  0.06057959  1  0  -0.394768  0  3.290038  0  0  -0.314646  0  3.573034  0  0  -0.337657  0  3.592201  0  0  -0.363179  -0.298503  0  3.559048  0
N  N75  1  0.33639724  0.27813778  0.93941795  1  0  -0.394823  0  3.29017  0  0  -0.314701  0  3.573188  0  0  -0.337715  0  3.592353  0  0  -0.363151  -0.298557  0  3.559201  0
N  N76  1  0.50692681  0.70014374  0.96197214  1  0  -0.059463  0  3.575652  0  0  0.034754  0  3.796954  0  0  0.020289  0  3.822767  0  0  -0.245739  0.044474  0  3.779221  0
N  N77  1  0.49307228  0.29985440  0.03803096  1  0  -0.059543  0  3.575611  0  0  0.034668  0  3.796912  0  0  0.020203  0  3.822726  0  0  -0.245735  0.044389  0  3.779174  0
N  N78  1  0.51126806  0.65268189  0.53754627  1  0  -0.073252  0  3.584951  0  0  0.020899  0  3.805078  0  0  0.006131  0  3.83203  0  0  -0.24749  0.030795  0  3.786944  0
N  N79  1  0.48873579  0.34732127  0.46245268  1  0  -0.073377  0  3.58495  0  0  0.020804  0  3.805073  0  0  0.006038  0  3.832036  0  0  -0.247523  0.030701  0  3.786929  0
N  N80  1  0.65178789  0.68553435  0.34492417  1  0  -0.393157  0  3.252572  0  0  -0.320368  0  3.533188  0  0  -0.341176  0  3.552147  0  0  -0.355703  -0.306138  0  3.519966  0
N  N81  1  0.34821932  0.31446673  0.65507558  1  0  -0.393204  0  3.252548  0  0  -0.32042  0  3.533178  0  0  -0.341229  0  3.552131  0  0  -0.355719  -0.306188  0  3.519949  0
O  O82  1  0.00089405  0.46082951  0.21414149  1  0  -0.636054  0  1.98278  0  0  -0.572795  0  2.224599  0  0  -0.600498  0  2.214338  0  0  -0.331398  -0.552355  0  2.231605  0
O  O83  1  0.99910982  0.53916852  0.78585674  1  0  -0.636069  0  1.982801  0  0  -0.572803  0  2.224583  0  0  -0.600507  0  2.214334  0  0  -0.331391  -0.552356  0  2.231584  0
O  O84  1  0.91207262  0.39721153  0.07660762  1  0  -0.677395  0  2.00116  0  0  -0.612631  0  2.259068  0  0  -0.63984  0  2.247358  0  0  -0.336493  -0.592391  0  2.266651  0
O  O85  1  0.08793148  0.60278853  0.92338876  1  0  -0.677406  0  2.00123  0  0  -0.612632  0  2.259093  0  0  -0.639861  0  2.247432  0  0  -0.336467  -0.592395  0  2.266672  0
O  O86  1  0.79429638  0.94878427  0.15319583  1  0  -0.639706  0  1.885374  0  0  -0.590893  0  2.110395  0  0  -0.615239  0  2.101979  0  0  -0.336298  -0.572863  0  2.1151  0
O  O87  1  0.20569962  0.05120774  0.84680490  1  0  -0.639669  0  1.88538  0  0  -0.59083  0  2.11039  0  0  -0.615171  0  2.101977  0  0  -0.336296  -0.572816  0  2.115132  0
O  O88  1  0.01516341  0.77749296  0.17871662  1  0  -0.649554  0  1.948153  0  0  -0.583939  0  2.190203  0  0  -0.612869  0  2.17858  0  0  -0.349735  -0.562285  0  2.197904  0
O  O89  1  0.98485119  0.22250481  0.82126981  1  0  -0.649499  0  1.948131  0  0  -0.583884  0  2.190186  0  0  -0.612811  0  2.178564  0  0  -0.349731  -0.56224  0  2.197916  0
O  O90  1  0.17751673  0.03927206  0.43156728  1  0  -0.257866  0  2.391552  0  0  -0.173445  0  2.624945  0  0  -0.192645  0  2.631095  0  0  -0.183129  -0.160123  0  2.620399  0
O  O91  1  0.82246996  0.96072730  0.56843686  1  0  -0.258075  0  2.391733  0  0  -0.17357  0  2.625059  0  0  -0.192698  0  2.631169  0  0  -0.183226  -0.160255  0  2.620519  0
