# generated using pymatgen
data_Fe3H34C56(N3O5)2
_symmetry_space_group_name_H-M   'P 1'
_cell_length_a   6.99131364
_cell_length_b   16.56186757
_cell_length_c   17.09396378
_cell_angle_alpha   90.04538493
_cell_angle_beta   90.09138510
_cell_angle_gamma   102.50267468
_symmetry_Int_Tables_number   1
_chemical_formula_structural   Fe3H34C56(N3O5)2
_chemical_formula_sum   'Fe3 H34 C56 N6 O10'
_cell_volume   1932.35557124
_cell_formula_units_Z   1
loop_
 _symmetry_equiv_pos_site_id
 _symmetry_equiv_pos_as_xyz
  1  'x, y, z'
loop_
 _atom_site_type_symbol
 _atom_site_label
 _atom_site_symmetry_multiplicity
 _atom_site_fract_x
 _atom_site_fract_y
 _atom_site_fract_z
 _atom_site_occupancy
 _atom_site_pbe_bader_charge
 _atom_site_pbe_bader_spin_density
 _atom_site_pbe_cm5_charge
 _atom_site_pbe_ddec_charge
 _atom_site_pbe_ddec_spin_density
 _atom_site_pbe_ddec_sum_bond_order
 _atom_site_pbe_magmom
Fe  Fe0  1  0.50111712  0.00207256  0.49317213  1  1.224039  -0.221829  0.719782  0.385027  -0.254327  3.352989  -0.221
Fe  Fe1  1  0.50079378  0.50141400  0.99533282  1  1.595053  2.795643  0.802173  1.243616  3.040877  2.879988  2.776
Fe  Fe2  1  0.00060835  0.50135156  0.99535505  1  1.722323  3.977514  0.863924  1.382144  4.332809  2.57851  3.948
H  H3  1  0.45764624  0.91804790  0.19807264  1  0.070252  1e-05  0.106908  0.12736  -7e-06  1.006189  0.0
H  H4  1  0.45803055  0.91720536  0.79143823  1  0.097788  1.8e-05  0.107134  0.129085  -2e-06  1.004775  0.0
H  H5  1  0.54349647  0.08574084  0.19802877  1  0.071514  6e-06  0.106961  0.127588  -8e-06  1.00613  0.0
H  H6  1  0.54319972  0.08499290  0.79136978  1  0.072468  1.4e-05  0.107441  0.128251  -5e-06  1.005302  0.0
H  H7  1  0.02910146  0.67178713  0.17651236  1  0.097532  0.000468  0.107016  0.11229  0.00011  1.004074  0.0
H  H8  1  0.64359086  0.67321656  0.81335361  1  0.116801  0.000271  0.107998  0.113157  2.2e-05  1.003497  0.0
H  H9  1  0.97116776  0.33099492  0.17603851  1  0.099916  0.000461  0.107072  0.112816  0.000108  1.002548  0.0
H  H10  1  0.35796882  0.32812006  0.81355134  1  0.086445  0.000291  0.107162  0.112793  3e-05  1.004556  0.0
H  H11  1  0.97150342  0.32900488  0.81539936  1  0.094698  0.000472  0.106942  0.112177  0.000112  1.003707  0.0
H  H12  1  0.35777944  0.33050369  0.17791227  1  0.109994  0.000272  0.106884  0.111502  2.3e-05  1.003936  0.0
H  H13  1  0.03023781  0.67257250  0.81466226  1  0.102608  0.000459  0.10737  0.112213  0.000108  1.00227  0.0
H  H14  1  0.64269358  0.67270384  0.17864528  1  0.110321  0.000284  0.10715  0.112471  2.9e-05  1.004332  0.0
H  H15  1  0.08052431  0.77892630  0.28275475  1  0.079813  0.000138  0.099187  0.100429  4.8e-05  1.005789  0.0
H  H16  1  0.69608443  0.77722730  0.70548433  1  0.090395  0.000191  0.100333  0.103681  6.6e-05  1.01188  0.0
H  H17  1  0.92055625  0.22477740  0.28281617  1  0.070176  0.000125  0.099409  0.101312  4.3e-05  1.005069  0.0
H  H18  1  0.30514961  0.22271457  0.70590436  1  0.01453  0.000212  0.098815  0.09966  7.4e-05  1.006892  0.0
H  H19  1  0.92062512  0.22345354  0.70784130  1  0.054477  0.000139  0.099023  0.100578  4.8e-05  1.006883  0.0
H  H20  1  0.30517797  0.22429417  0.28465133  1  0.055967  0.000206  0.099441  0.101086  7.3e-05  1.00553  0.0
H  H21  1  0.07997451  0.77665744  0.70678537  1  0.037704  0.000116  0.100417  0.103644  3.8e-05  1.012023  0.0
H  H22  1  0.69594793  0.77974907  0.28493915  1  0.057306  0.000208  0.099557  0.100859  7.3e-05  1.004994  0.0
H  H23  1  0.85762192  0.06989142  0.59767296  1  0.076877  7.7e-05  0.114485  0.081817  3.9e-05  1.007797  0.0
H  H24  1  0.24905510  0.12312513  0.42654848  1  0.136979  0.000117  0.119859  0.113667  6e-05  1.051635  0.0
H  H25  1  0.15008261  0.90205434  0.65542855  1  0.115393  8.2e-05  0.101266  0.108512  4.7e-05  1.094545  0.0
H  H26  1  0.75332994  0.88002568  0.43730025  1  0.146544  0.000133  0.119988  0.112718  6.7e-05  1.046932  0.0
H  H27  1  0.12423193  0.88017847  0.43732423  1  0.15697  0.000133  0.119954  0.112882  6.6e-05  1.046586  0.0
H  H28  1  0.75070265  0.90223263  0.65557012  1  0.125876  8.5e-05  0.101403  0.108931  4.9e-05  1.09602  0.0
H  H29  1  0.87624064  0.12298040  0.42654087  1  0.125526  0.000118  0.11917  0.113249  6e-05  1.051173  0.0
H  H30  1  0.21461810  0.06985942  0.59779640  1  0.085023  7.8e-05  0.114107  0.081096  4.1e-05  1.009554  0.0
H  H31  1  0.34285384  0.68838783  0.41496191  1  0.111956  -7e-06  0.107473  0.129683  -1.2e-05  1.005215  0.0
H  H32  1  0.34324219  0.68825813  0.57378085  1  0.103266  2e-05  0.107434  0.129039  -1e-06  1.004737  0.0
H  H33  1  0.65872869  0.31556471  0.41642149  1  0.070659  1e-06  0.107048  0.129218  -1e-05  1.003416  0.0
H  H34  1  0.65846864  0.31461429  0.57521938  1  0.090543  1.6e-05  0.107625  0.129098  -4e-06  1.004305  0.0
H  H35  1  0.78541004  0.61437938  0.99737156  1  0.587384  0.005555  0.326193  0.414754  0.002047  0.860842  0.005
H  H36  1  0.21618896  0.38853549  0.99654027  1  0.631021  0.005133  0.325916  0.414268  0.002075  0.861893  0.005
C  C37  1  0.41167117  0.82627077  0.43030010  1  0.347353  0.002122  0.077517  0.145682  0.000921  4.082572  0.001
C  C38  1  0.41207916  0.82610045  0.55915110  1  0.394509  0.001791  0.086297  0.177599  0.000813  4.030924  0.001
C  C39  1  0.59008620  0.17763954  0.43056452  1  0.333106  0.001887  0.07666  0.145504  0.000814  4.080258  0.001
C  C40  1  0.58986794  0.17680817  0.55948338  1  0.445478  0.00206  0.081061  0.161944  0.000938  4.058159  0.001
C  C41  1  0.42400942  0.85143080  0.35224374  1  0.005414  0.00187  -0.00641  -0.091141  0.000886  4.008464  0.001
C  C42  1  0.42421599  0.85017835  0.63740461  1  -0.0166  0.001976  -0.010161  -0.09944  0.000928  3.994418  0.001
C  C43  1  0.57740946  0.15272614  0.35234612  1  0.003093  0.002224  -0.008071  -0.093635  0.001044  4.00827  0.001
C  C44  1  0.57734166  0.15154362  0.63754559  1  0.004255  0.001953  -0.007776  -0.093386  0.000921  4.009003  0.001
C  C45  1  0.46582620  0.93399308  0.32860319  1  0.379429  0.002084  0.085064  0.167942  0.00092  4.047394  0.001
C  C46  1  0.46614437  0.93293113  0.66097730  1  0.35535  0.002074  0.083588  0.161999  0.00093  4.063119  0.001
C  C47  1  0.53548018  0.07013763  0.32857862  1  0.376699  0.001885  0.0836  0.165251  0.000827  4.050693  0.001
C  C48  1  0.53537915  0.06891670  0.66092407  1  0.346539  0.002015  0.080422  0.153046  0.000888  4.069086  0.001
C  C49  1  0.47903938  0.95985104  0.24778035  1  -0.051346  0.001475  -0.106892  -0.182696  0.000707  4.002845  0.001
C  C50  1  0.47923426  0.95884026  0.74170479  1  -0.094263  0.001582  -0.10812  -0.192732  0.000749  4.001141  0.001
C  C51  1  0.52212113  0.04408924  0.24776163  1  -0.052328  0.001587  -0.107235  -0.18359  0.000756  4.004153  0.001
C  C52  1  0.52202567  0.04317617  0.74167963  1  -0.020969  0.001594  -0.105065  -0.176394  0.000759  3.992523  0.001
C  C53  1  0.39166992  0.78638995  0.29032293  1  -0.016349  0.000405  -0.000397  0.094683  0.000168  4.013948  0.0
C  C54  1  0.39203583  0.78516040  0.69952607  1  0.052453  0.000317  0.000486  0.095436  0.00013  4.005982  0.0
C  C55  1  0.60950334  0.21764665  0.29044929  1  0.023689  0.000365  -0.000734  0.094478  0.000152  4.013013  0.0
C  C56  1  0.60949492  0.21613616  0.70002566  1  -0.078163  0.000388  -0.000226  0.095862  0.000158  4.010451  0.0
C  C57  1  0.20363048  0.75542998  0.25992267  1  -0.111124  0.000406  -0.090712  -0.140326  0.00017  3.987619  0.0
C  C58  1  0.54982272  0.75485680  0.72953087  1  -0.044016  0.000759  -0.092198  -0.144566  0.000345  3.982672  0.001
C  C59  1  0.79728050  0.24820439  0.25990804  1  -0.059892  0.000394  -0.091204  -0.141783  0.000166  3.986234  0.0
C  C60  1  0.45139380  0.24612201  0.72989124  1  -0.002938  0.000767  -0.091549  -0.140039  0.000347  3.989382  0.001
C  C61  1  0.79724940  0.24655011  0.73099455  1  -0.030527  0.000399  -0.09222  -0.143199  0.000169  3.989715  0.0
C  C62  1  0.45138189  0.24797997  0.26097275  1  -0.034769  0.000778  -0.090686  -0.1406  0.000354  3.987399  0.001
C  C63  1  0.20436312  0.75452007  0.73030015  1  -0.136641  0.00039  -0.091046  -0.144144  0.00016  3.984767  0.0
C  C64  1  0.54968717  0.75590338  0.26115293  1  -0.006344  0.000765  -0.091272  -0.140642  0.000349  3.987003  0.001
C  C65  1  0.17439046  0.69608802  0.20081514  1  -0.024982  0.001108  -0.082173  -0.084294  0.000472  3.983292  0.001
C  C66  1  0.52163424  0.69675132  0.78956680  1  -0.105858  0.001178  -0.082241  -0.085355  0.000486  3.981453  0.001
C  C67  1  0.82611340  0.30701812  0.20046063  1  -0.080376  0.001016  -0.082203  -0.084713  0.000423  3.981114  0.001
C  C68  1  0.47979940  0.30458421  0.78975459  1  0.016996  0.001117  -0.083277  -0.088556  0.000488  3.985117  0.001
C  C69  1  0.82628536  0.30508961  0.79085381  1  -0.029216  0.001078  -0.081652  -0.084038  0.00046  3.981401  0.001
C  C70  1  0.47961614  0.30677518  0.20156102  1  -0.10382  0.001193  -0.082316  -0.084523  0.000497  3.982003  0.001
C  C71  1  0.17551635  0.69637194  0.79035773  1  -0.062929  0.000991  -0.081572  -0.082229  0.000402  3.979828  0.0
C  C72  1  0.52101219  0.69660598  0.20206646  1  -0.109093  0.001199  -0.082873  -0.086488  0.000497  3.984684  0.001
C  C73  1  0.33331752  0.66680801  0.17108704  1  0.019766  0.011267  -0.01974  -0.045112  0.005236  3.977451  0.009
C  C74  1  0.33438309  0.66749011  0.82080304  1  0.07052  0.010699  -0.018038  -0.041979  0.004967  3.973187  0.008
C  C75  1  0.66709536  0.33622839  0.17055001  1  0.021606  0.010835  -0.018967  -0.044694  0.005033  3.975639  0.008
C  C76  1  0.66744359  0.33424936  0.82085627  1  -0.042888  0.011237  -0.018566  -0.041934  0.005188  3.973664  0.009
C  C77  1  0.30383383  0.60549055  0.10535260  1  1.560595  0.003176  0.233801  0.617937  0.002974  4.128457  0.004
C  C78  1  0.30496170  0.60640898  0.88667788  1  1.55983  0.003101  0.234189  0.616927  0.002874  4.128174  0.004
C  C79  1  0.69643687  0.39719571  0.10465937  1  1.557333  0.003111  0.233702  0.617288  0.002907  4.127257  0.004
C  C80  1  0.69725808  0.39608342  0.88624205  1  1.562468  0.003092  0.232822  0.616237  0.002924  4.126142  0.004
C  C81  1  0.36912340  0.74083595  0.45462218  1  -0.043588  0.001236  -0.108655  -0.186902  0.000599  4.012287  0.001
C  C82  1  0.36937838  0.74078011  0.53431714  1  -0.123449  0.001886  -0.107696  -0.186228  0.000887  4.005741  0.001
C  C83  1  0.63253790  0.26282658  0.45563716  1  0.047722  0.001517  -0.109393  -0.187185  0.000734  4.008327  0.001
C  C84  1  0.63242368  0.26230697  0.53539237  1  -0.14636  0.001638  -0.107828  -0.183516  0.000773  4.004746  0.001
C  C85  1  0.89631311  0.01443122  0.57343863  1  0.245962  0.000366  0.004323  0.033337  0.000189  3.758448  0.0
C  C86  1  0.13381515  0.07526433  0.45080972  1  0.252214  0.000238  0.000891  -0.050309  0.00014  3.849654  0.0
C  C87  1  0.06487130  0.93943426  0.62531962  1  -0.096839  0.000141  -0.091459  -0.121004  7.5e-05  3.839117  0.0
C  C88  1  0.86910887  0.93003831  0.45789528  1  0.186611  0.000251  0.000998  -0.043047  0.000142  3.863816  0.0
C  C89  1  0.05952906  0.93010633  0.45788592  1  0.235414  0.000229  0.000452  -0.045088  0.00013  3.865113  0.0
C  C90  1  0.87394970  0.93951224  0.62536466  1  -0.090316  0.000137  -0.091328  -0.12131  7.4e-05  3.840882  0.0
C  C91  1  0.94289726  0.07520495  0.45079861  1  0.176521  0.00023  0.001434  -0.049922  0.000129  3.850674  0.0
C  C92  1  0.11907013  0.01441453  0.57345150  1  0.218888  0.00037  0.004679  0.033053  0.000191  3.758194  0.0
N  N93  1  0.43820488  0.87862645  0.49483412  1  -1.129897  0.000233  -0.364195  -0.302104  -0.000102  3.455529  0.002
N  N94  1  0.56378176  0.12491113  0.49474286  1  -1.129897  0.00028  -0.368172  -0.30429  -8.1e-05  3.481535  0.002
N  N95  1  0.50074563  0.00211053  0.37787916  1  -1.148251  0.000345  -0.364206  -0.285163  -4.7e-05  3.465942  0.002
N  N96  1  0.50072298  0.00073947  0.61142404  1  -1.165072  0.000281  -0.360793  -0.299343  -3e-05  3.437877  0.002
N  N97  1  0.81361249  0.00408251  0.49011431  1  -0.927067  0.003613  -0.274294  -0.048212  0.001652  3.352397  0.003
N  N98  1  0.19080805  0.00421305  0.49014415  1  -0.926172  0.003625  -0.274368  -0.045977  0.001655  3.351601  0.003
O  O99  1  0.45671136  0.58406467  0.07986460  1  -1.130874  0.065787  -0.298777  -0.541182  0.03157  2.309191  0.051
O  O100  1  0.13101724  0.58327038  0.91275146  1  -1.144754  0.111186  -0.30662  -0.563225  0.052443  2.316097  0.089
O  O101  1  0.54382382  0.41960863  0.07990497  1  -1.124946  0.061809  -0.296826  -0.536377  0.029693  2.31244  0.047
O  O102  1  0.87206390  0.42058147  0.91143989  1  -1.146529  0.111941  -0.30792  -0.565036  0.052756  2.315324  0.09
O  O103  1  0.54473195  0.41802408  0.91140245  1  -1.125415  0.065657  -0.297318  -0.538246  0.031384  2.304616  0.05
O  O104  1  0.87028485  0.42014735  0.07843427  1  -1.148919  0.111721  -0.307353  -0.564471  0.05265  2.318439  0.09
O  O105  1  0.45749082  0.58388895  0.91133400  1  -1.12655  0.06139  -0.29717  -0.536811  0.029458  2.31023  0.046
O  O106  1  0.12915430  0.58126810  0.07996289  1  -1.14461  0.111924  -0.307814  -0.564676  0.052803  2.317701  0.09
O  O107  1  0.76631742  0.55442401  0.99559022  1  -1.058657  0.131947  -0.547586  -0.818294  0.067143  2.188937  0.098
O  O108  1  0.23524399  0.44849548  0.99504500  1  -1.10236  0.13224  -0.546645  -0.816731  0.066985  2.189323  0.098
