# generated using pymatgen
data_ZnH9C19N4Cl3O4
_symmetry_space_group_name_H-M   'P 1'
_cell_length_a   17.26353142
_cell_length_b   22.65942872
_cell_length_c   24.14125315
_cell_angle_alpha   93.92551334
_cell_angle_beta   89.53864467
_cell_angle_gamma   94.27654781
_symmetry_Int_Tables_number   1
_chemical_formula_structural   ZnH9C19N4Cl3O4
_chemical_formula_sum   'Zn4 H36 C76 N16 Cl12 O16'
_cell_volume   9395.18913439
_cell_formula_units_Z   4
loop_
 _symmetry_equiv_pos_site_id
 _symmetry_equiv_pos_as_xyz
  1  'x, y, z'
loop_
 _atom_site_type_symbol
 _atom_site_label
 _atom_site_symmetry_multiplicity
 _atom_site_fract_x
 _atom_site_fract_y
 _atom_site_fract_z
 _atom_site_occupancy
 _atom_site_pbe_bader_charge
 _atom_site_pbe_bader_spin_density
 _atom_site_pbe_cm5_charge
 _atom_site_pbe_ddec_charge
 _atom_site_pbe_ddec_spin_density
 _atom_site_pbe_ddec_sum_bond_order
 _atom_site_pbe_magmom
Zn  Zn0  1  0.01436609  0.95286594  0.45782651  1  1.29881  0  0.669003  0.850223  0  2.36879  0
Zn  Zn1  1  0.00408902  0.03687740  0.54971281  1  1.306172  0  0.669636  0.850315  0  2.381044  0
Zn  Zn2  1  0.94088430  0.53090274  0.05263321  1  1.295361  0  0.669186  0.847311  0  2.365907  0
Zn  Zn3  1  0.94982221  0.44277427  0.96481083  1  1.301736  0  0.668688  0.847537  0  2.378617  0
H  H4  1  0.02344698  0.64350254  0.08056187  1  0.15558  0  0.124589  0.10688  0  0.995858  0
H  H5  1  0.03971850  0.72363850  0.15828913  1  0.132132  0  0.1217  0.134111  0  0.992625  0
H  H6  1  0.86987884  0.62070611  0.25114104  1  0.132182  0  0.12465  0.148109  0  0.975468  0
H  H7  1  0.09214510  0.85758794  0.26254333  1  0.139833  0  0.12479  0.148144  0  0.976448  0
H  H8  1  0.90850691  0.76309213  0.35056383  1  0.12656  0  0.121419  0.134177  0  0.991005  0
H  H9  1  0.92627657  0.84313283  0.42820057  1  0.15622  0  0.125065  0.105851  0  0.994699  0
H  H10  1  0.03370497  0.42095722  0.86331419  1  0.138896  0  0.134492  0.111913  0  0.959451  0
H  H11  1  0.04503035  0.34413004  0.78352906  1  0.111501  0  0.120644  0.131456  0  0.996584  0
H  H12  1  0.86253610  0.23768650  0.86115484  1  0.137416  0  0.124977  0.149129  0  0.974218  0
H  H13  1  0.09593000  0.24042769  0.65584755  1  0.168471  0  0.124324  0.148377  0  0.97356  0
H  H14  1  0.90445409  0.13836962  0.72816599  1  0.123819  0  0.120578  0.131285  0  0.997433  0
H  H15  1  0.91696643  0.06116727  0.64891736  1  0.102652  0  0.13497  0.112716  0  0.958738  0
H  H16  1  0.76387072  0.05187076  0.55886674  1  0.108613  0  0.106737  0.113906  0  0.999988  0
H  H17  1  0.61835459  0.05177247  0.55822739  1  0.105778  0  0.107382  0.11051  0  1.012529  0
H  H18  1  0.61127564  0.91586052  0.42479688  1  0.10647  0  0.110354  0.126677  0  0.993427  0
H  H19  1  0.40182751  0.03989397  0.60488525  1  0.123337  0  0.110052  0.126569  0  0.993571  0
H  H20  1  0.39881396  0.96875626  0.43509164  1  0.109407  0  0.107515  0.11117  0  1.011091  0
H  H21  1  0.25311016  0.96776509  0.43617455  1  0.113355  0  0.100771  0.107037  0  1.024126  0
H  H22  1  0.94048992  0.55355553  0.82995428  1  0.082362  0  0.107865  0.114359  0  0.992531  0
H  H23  1  0.95222200  0.62776044  0.75709361  1  0.122297  0  0.1068  0.10933  0  1.014816  0
H  H24  1  0.99936199  0.76646212  0.88557563  1  0.121283  0  0.109846  0.126271  0  0.994267  0
H  H25  1  0.96479188  0.71194561  0.62476906  1  0.087806  0  0.109931  0.126424  0  0.993855  0
H  H26  1  0.00309754  0.85197329  0.75316447  1  0.096203  0  0.107181  0.110496  0  1.013377  0
H  H27  1  0.00890336  0.92610567  0.68025245  1  0.102001  0  0.107878  0.114228  0  0.993089  0
H  H28  1  0.98837005  0.43050517  0.18615935  1  0.10416  0  0.103805  0.110624  0  1.007088  0
H  H29  1  0.02374076  0.36176188  0.25783010  1  0.116742  0  0.106764  0.109866  0  1.014046  0
H  H30  1  0.06451327  0.22933552  0.12673638  1  0.087722  0  0.110079  0.127597  0  0.992148  0
H  H31  1  0.97816149  0.26854381  0.37957739  1  0.114184  0  0.110669  0.126818  0  0.993217  0
H  H32  1  0.09219654  0.14949829  0.26488348  1  0.138593  0  0.107544  0.11169  0  1.010222  0
H  H33  1  0.07525045  0.07070958  0.33340458  1  0.086239  0  0.097387  0.100051  0  1.029326  0
H  H34  1  0.70173156  0.51871679  0.07793679  1  0.114459  0  0.103085  0.109871  0  1.012548  0
H  H35  1  0.55636806  0.52058291  0.07810704  1  0.09347  0  0.107078  0.110713  0  1.011399  0
H  H36  1  0.55139932  0.43334572  0.91424509  1  0.081511  0  0.109458  0.125773  0  0.994932  0
H  H37  1  0.34035234  0.55886409  0.09523421  1  0.121718  0  0.110155  0.126728  0  0.993658  0
H  H38  1  0.33758670  0.44066481  0.94807444  1  0.097739  0  0.106892  0.109402  0  1.015141  0
H  H39  1  0.19243900  0.44239816  0.94485561  1  0.086377  0  0.106413  0.112581  0  0.996291  0
C  C40  1  0.85742060  0.98812246  0.49885759  1  1.606123  0  0.215425  0.604937  0  4.153149  0
C  C41  1  0.99681307  0.91042538  0.57216290  1  1.575726  0  0.214563  0.607435  0  4.153722  0
C  C42  1  0.15817681  0.99979010  0.51507869  1  1.605398  0  0.213297  0.606769  0  4.158262  0
C  C43  1  0.01376425  0.07553364  0.43299230  1  1.57268  0  0.211834  0.605931  0  4.169389  0
C  C44  1  0.95170212  0.56899579  0.93821899  1  1.608403  0  0.214313  0.605742  0  4.15584  0
C  C45  1  0.09746152  0.50006969  0.00983478  1  1.57849  0  0.21094  0.598584  0  4.163985  0
C  C46  1  0.97212006  0.41099667  0.07914284  1  1.602052  0  0.21081  0.603722  0  4.170215  0
C  C47  1  0.79587821  0.47763171  0.00208680  1  1.594366  0  0.213909  0.606492  0  4.154357  0
C  C48  1  0.99033075  0.64107681  0.11908881  1  0.478228  0  0.063708  0.130453  0  3.888851  0
C  C49  1  0.99924826  0.68493255  0.16185843  1  -0.003116  0  -0.07287  -0.190093  0  3.901778  0
C  C50  1  0.95445089  0.67778426  0.21013656  1  0.335035  0  0.109096  0.221214  0  4.022858  0
C  C51  1  0.90423619  0.62710068  0.21376782  1  0.036147  0  -0.069316  -0.241202  0  3.892714  0
C  C52  1  0.89955251  0.58511691  0.16858723  1  0.640568  0  0.159397  0.30179  0  4.035726  0
C  C53  1  0.05497575  0.85303982  0.29883450  1  0.008337  0  -0.068689  -0.24221  0  3.894087  0
C  C54  1  0.00022323  0.80485108  0.30099010  1  0.326717  0  0.109705  0.223206  0  4.024175  0
C  C55  1  0.95217962  0.79997554  0.34798139  1  0.021687  0  -0.071474  -0.190218  0  3.899437  0
C  C56  1  0.96202266  0.84376737  0.39078618  1  0.471928  0  0.063278  0.131612  0  3.889531  0
C  C57  1  0.06111590  0.89459711  0.34428649  1  0.643121  0  0.16103  0.304964  0  4.029717  0
C  C58  1  0.99733490  0.37937641  0.86078053  1  0.451502  0  0.063647  0.125595  0  3.902396  0
C  C59  1  0.00346505  0.33727217  0.81699104  1  -0.016707  0  -0.074477  -0.195556  0  3.916233  0
C  C60  1  0.95402383  0.28503310  0.81715873  1  0.405447  0  0.107111  0.220121  0  4.024  0
C  C61  1  0.90127594  0.27776094  0.86051801  1  0.024497  0  -0.06771  -0.237598  0  3.884405  0
C  C62  1  0.89929459  0.32277205  0.90302824  1  0.630022  0  0.160181  0.303695  0  4.034086  0
C  C63  1  0.05561935  0.20114438  0.65551550  1  0.017833  0  -0.067402  -0.23814  0  3.884152  0
C  C64  1  0.99981379  0.19535457  0.69712068  1  0.306406  0  0.107399  0.220915  0  4.026078  0
C  C65  1  0.94830165  0.14417463  0.69599675  1  0.022925  0  -0.074378  -0.195114  0  3.918649  0
C  C66  1  0.95528595  0.10174835  0.65257518  1  0.499323  0  0.063938  0.123838  0  3.903635  0
C  C67  1  0.05903628  0.15550111  0.61371554  1  0.659197  0  0.161898  0.30566  0  4.030891  0
C  C68  1  0.77009275  0.98360524  0.49385904  1  -0.00183  0  -0.011915  -0.080631  0  3.878483  0
C  C69  1  0.72909279  0.02174572  0.53020798  1  0.000427  0  -0.079  -0.0656  0  3.97709  0
C  C70  1  0.64902537  0.02202268  0.52995434  1  -0.022007  0  -0.08701  -0.151412  0  3.96474  0
C  C71  1  0.60637265  0.98309072  0.49168306  1  0.395913  0  0.089259  0.189913  0  4.052333  0
C  C72  1  0.64516399  0.94532327  0.45454488  1  0.027046  0  -0.085757  -0.212098  0  3.932422  0
C  C73  1  0.72601518  0.94509450  0.45568151  1  -0.004991  0  0.024197  0.153277  0  3.993171  0
C  C74  1  0.36873390  0.02405027  0.56790471  1  -0.014609  0  -0.085384  -0.211659  0  3.932868  0
C  C75  1  0.40863251  0.00410646  0.52039962  1  0.385585  0  0.089529  0.188833  0  4.05338  0
C  C76  1  0.36727355  0.98370973  0.47202504  1  -0.069318  0  -0.087236  -0.150217  0  3.961614  0
C  C77  1  0.28714088  0.98330818  0.47282649  1  0.001845  0  -0.080228  -0.06369  0  3.974124  0
C  C78  1  0.24510729  0.00242533  0.52030882  1  0.011129  0  -0.013935  -0.081658  0  3.884649  0
C  C79  1  0.28774675  0.02283894  0.56835349  1  0.047918  0  0.022468  0.152404  0  4.000458  0
C  C80  1  0.96145000  0.61744888  0.89842460  1  -0.001924  0  -0.010379  -0.075312  0  3.885742  0
C  C81  1  0.95291247  0.60066270  0.84130353  1  -0.02084  0  -0.079055  -0.068536  0  3.981112  0
C  C82  1  0.95955898  0.64132232  0.80097152  1  -0.013424  0  -0.086184  -0.148335  0  3.963429  0
C  C83  1  0.97626546  0.70173788  0.81720637  1  0.308224  0  0.088  0.187496  0  4.046803  0
C  C84  1  0.98585829  0.71962675  0.87356918  1  -0.002131  0  -0.084383  -0.211682  0  3.932854  0
C  C85  1  0.97841596  0.67810339  0.91377834  1  0.094712  0  0.022532  0.151415  0  3.999619  0
C  C86  1  0.97517091  0.75909336  0.63670219  1  0.008009  0  -0.085347  -0.212206  0  3.93184  0
C  C87  1  0.98371332  0.77732240  0.69306950  1  0.379522  0  0.089403  0.19025  0  4.044911  0
C  C88  1  0.99650770  0.83808117  0.70929774  1  -0.021818  0  -0.086544  -0.150492  0  3.96045  0
C  C89  1  0.99977637  0.87872871  0.66893626  1  -0.006503  0  -0.078941  -0.066444  0  3.977747  0
C  C90  1  0.99154604  0.86170198  0.61182684  1  0.03335  0  -0.011266  -0.078651  0  3.885973  0
C  C91  1  0.97923696  0.80062667  0.59645827  1  0.018695  0  0.023211  0.1528  0  3.998783  0
C  C92  1  0.00190609  0.36809617  0.11701646  1  0.007795  0  -0.01293  -0.076667  0  3.889473  0
C  C93  1  0.00432876  0.38578943  0.17418305  1  -0.014936  0  -0.079874  -0.065628  0  3.981005  0
C  C94  1  0.02423056  0.34835925  0.21368636  1  -0.04349  0  -0.087653  -0.152697  0  3.970835  0
C  C95  1  0.04335440  0.29072706  0.19629354  1  0.339793  0  0.089848  0.192295  0  4.046567  0
C  C96  1  0.04729483  0.27350492  0.13960755  1  0.006951  0  -0.085635  -0.214325  0  3.928105  0
C  C97  1  0.02627286  0.31164419  0.10014819  1  0.070542  0  0.023291  0.152779  0  3.998163  0
C  C98  1  0.00094391  0.22539668  0.37035843  1  0.076811  0  -0.084463  -0.209447  0  3.935486  0
C  C99  1  0.03593904  0.21355165  0.31861767  1  0.332867  0  0.088258  0.185756  0  4.054986  0
C  C100  1  0.06491066  0.15795696  0.30516344  1  -0.031612  0  -0.08597  -0.147449  0  3.956867  0
C  C101  1  0.05565099  0.11486859  0.34307753  1  -0.075525  0  -0.080521  -0.066954  0  3.976045  0
C  C102  1  0.01982830  0.12542302  0.39511136  1  0.090432  0  -0.010855  -0.069022  0  3.894752  0
C  C103  1  0.99302828  0.18178829  0.40844599  1  -0.029225  0  0.020495  0.144481  0  4.014058  0
C  C104  1  0.70892404  0.47560094  0.99686001  1  0.05516  0  -0.013292  -0.08073  0  3.88045  0
C  C105  1  0.66737408  0.50018314  0.04237633  1  -0.074672  0  -0.079135  -0.063156  0  3.969719  0
C  C106  1  0.58739016  0.50136175  0.04266231  1  0.004506  0  -0.08701  -0.150786  0  3.96053  0
C  C107  1  0.54544797  0.47707739  0.99575293  1  0.347946  0  0.090762  0.190809  0  4.053121  0
C  C108  1  0.58487077  0.45197918  0.95017798  1  0.027103  0  -0.085839  -0.21231  0  3.936283  0
C  C109  1  0.66567265  0.45133681  0.95025473  1  0.035648  0  0.023138  0.153131  0  3.996838  0
C  C110  1  0.30755263  0.53397660  0.06183082  1  0.05522  0  -0.086001  -0.213228  0  3.932228  0
C  C111  1  0.34748184  0.50045793  0.02167208  1  0.29392  0  0.088437  0.188806  0  4.048481  0
C  C112  1  0.30610673  0.46714861  0.97873817  1  0.032439  0  -0.086268  -0.149585  0  3.964523  0
C  C113  1  0.22624043  0.46856795  0.97698034  1  -0.025769  0  -0.07875  -0.0657  0  3.977373  0
C  C114  1  0.18439422  0.50274116  0.01627894  1  0.010994  0  -0.01104  -0.075531  0  3.881645  0
C  C115  1  0.22692697  0.53544172  0.05915540  1  0.016585  0  0.023521  0.151832  0  3.996435  0
N  N116  1  0.94080965  0.59204014  0.12189364  1  -1.200638  0  -0.304714  -0.241774  0  3.431107  0
N  N117  1  0.95538904  0.71797894  0.25794445  1  -0.473575  0  -0.126265  -0.109389  0  3.21909  0
N  N118  1  0.99890701  0.76461855  0.25325882  1  -0.401195  0  -0.12617  -0.108628  0  3.223892  0
N  N119  1  0.01584868  0.89040737  0.38940990  1  -1.217683  0  -0.303582  -0.242201  0  3.425591  0
N  N120  1  0.94646546  0.37264214  0.90335506  1  -1.207145  0  -0.304334  -0.244394  0  3.438563  0
N  N121  1  0.95217027  0.23686868  0.77628464  1  -0.449569  0  -0.126659  -0.109382  0  3.221649  0
N  N122  1  0.00132328  0.24364666  0.73784152  1  -0.454123  0  -0.127166  -0.110576  0  3.222336  0
N  N123  1  0.00941590  0.10688585  0.61180601  1  -1.215988  0  -0.305126  -0.24534  0  3.429345  0
N  N124  1  0.52459968  0.97901262  0.48665030  1  -0.50816  0  -0.147144  -0.133504  0  3.263073  0
N  N125  1  0.49021312  0.00675158  0.52577829  1  -0.493568  0  -0.145549  -0.129551  0  3.271186  0
N  N126  1  0.98427295  0.74803608  0.78062640  1  -0.461084  0  -0.147427  -0.133576  0  3.264104  0
N  N127  1  0.97720693  0.73101099  0.72966930  1  -0.486882  0  -0.148449  -0.135513  0  3.266496  0
N  N128  1  0.05483833  0.24596668  0.23277603  1  -0.460477  0  -0.149634  -0.137048  0  3.252084  0
N  N129  1  0.03347075  0.25935084  0.28213605  1  -0.48501  0  -0.148109  -0.132382  0  3.284445  0
N  N130  1  0.46404284  0.47537964  0.98954266  1  -0.465791  0  -0.147952  -0.132728  0  3.276191  0
N  N131  1  0.42897303  0.50289161  0.02849085  1  -0.459001  0  -0.147281  -0.133466  0  3.261451  0
Cl  Cl132  1  0.83915374  0.52226367  0.17376394  1  -0.129243  0  0.053043  -0.021686  0  1.49792  0
Cl  Cl133  1  0.13000990  0.95282465  0.34152947  1  -0.127734  0  0.057681  -0.022693  0  1.524185  0
Cl  Cl134  1  0.83428853  0.31295834  0.95574298  1  -0.104543  0  0.055012  -0.012043  0  1.546034  0
Cl  Cl135  1  0.12968786  0.16311099  0.56437134  1  -0.113398  0  0.053552  -0.013773  0  1.547739  0
Cl  Cl136  1  0.76594336  0.89614725  0.40702555  1  -0.204818  0  -0.025766  -0.094476  0  1.498027  0
Cl  Cl137  1  0.24605860  0.04663425  0.63063284  1  -0.201988  0  -0.028088  -0.090076  0  1.497587  0
Cl  Cl138  1  0.99383129  0.70564533  0.98192567  1  -0.207719  0  -0.023191  -0.094841  0  1.493762  0
Cl  Cl139  1  0.96542075  0.77251549  0.52831747  1  -0.21173  0  -0.027411  -0.0976  0  1.484584  0
Cl  Cl140  1  0.03352543  0.28605011  0.03117456  1  -0.200018  0  -0.027285  -0.088582  0  1.484298  0
Cl  Cl141  1  0.94507746  0.19915554  0.47005407  1  -0.201144  0  -0.027472  -0.087979  0  1.465594  0
Cl  Cl142  1  0.70612372  0.42014963  0.89026836  1  -0.192797  0  -0.028939  -0.090958  0  1.502218  0
Cl  Cl143  1  0.18412446  0.57714474  0.11228989  1  -0.205075  0  -0.027507  -0.093841  0  1.484814  0
O  O144  1  0.89518762  0.94973063  0.47161277  1  -1.161369  0  -0.316429  -0.551925  0  2.382538  0
O  O145  1  0.88690226  0.03089897  0.53101363  1  -1.16179  0  -0.320885  -0.552419  0  2.308603  0
O  O146  1  0.98048955  0.96147050  0.59259174  1  -1.166716  0  -0.32003  -0.551785  0  2.30062  0
O  O147  1  0.01820832  0.89767880  0.52259207  1  -1.152642  0  -0.317828  -0.547602  0  2.353301  0
O  O148  1  0.11919209  0.02196994  0.55497832  1  -1.162281  0  -0.3174  -0.551981  0  2.429677  0
O  O149  1  0.13002054  0.97550174  0.46967357  1  -1.160965  0  -0.322796  -0.560595  0  2.376333  0
O  O150  1  0.00221078  0.02345232  0.41001674  1  -1.151391  0  -0.31882  -0.547147  0  2.321625  0
O  O151  1  0.02314373  0.08897955  0.48446091  1  -1.149931  0  -0.318176  -0.563055  0  2.450709  0
O  O152  1  0.92790654  0.58269411  0.98706448  1  -1.155374  0  -0.319329  -0.544185  0  2.346533  0
O  O153  1  0.96706916  0.51742886  0.91876342  1  -1.160361  0  -0.31835  -0.551214  0  2.296909  0
O  O154  1  0.06755299  0.45462569  0.98115547  1  -1.158787  0  -0.318931  -0.551406  0  2.315748  0
O  O155  1  0.06065569  0.54176872  0.03245611  1  -1.163384  0  -0.316237  -0.551637  0  2.359031  0
O  O156  1  0.94499459  0.39145892  0.03221861  1  -1.16176  0  -0.322674  -0.563822  0  2.424045  0
O  O157  1  0.97497484  0.46500337  0.09824335  1  -1.163099  0  -0.318823  -0.555903  0  2.373478  0
O  O158  1  0.82511822  0.50382308  0.04635698  1  -1.169303  0  -0.322213  -0.559737  0  2.364565  0
O  O159  1  0.83407538  0.45335320  0.96279654  1  -1.154724  0  -0.317212  -0.5508  0  2.439527  0
