# generated using pymatgen
data_CdH12C11N12O
_symmetry_space_group_name_H-M   'P 1'
_cell_length_a   10.23853798
_cell_length_b   11.83214361
_cell_length_c   14.19093156
_cell_angle_alpha   110.62293563
_cell_angle_beta   89.99994430
_cell_angle_gamma   90.00006139
_symmetry_Int_Tables_number   1
_chemical_formula_structural   CdH12C11N12O
_chemical_formula_sum   'Cd4 H48 C44 N48 O4'
_cell_volume   1608.97897931
_cell_formula_units_Z   4
loop_
 _symmetry_equiv_pos_site_id
 _symmetry_equiv_pos_as_xyz
  1  'x, y, z'
loop_
 _atom_site_type_symbol
 _atom_site_label
 _atom_site_symmetry_multiplicity
 _atom_site_fract_x
 _atom_site_fract_y
 _atom_site_fract_z
 _atom_site_occupancy
 _atom_site_hle17_bader_spin_density
 _atom_site_hle17_ddec_charge
 _atom_site_hle17_ddec_spin_density
 _atom_site_hle17_ddec_sum_bond_order
 _atom_site_hle17_magmom
 _atom_site_hse06_10hf_bader_spin_density
 _atom_site_hse06_10hf_ddec_charge
 _atom_site_hse06_10hf_ddec_spin_density
 _atom_site_hse06_10hf_ddec_sum_bond_order
 _atom_site_hse06_10hf_magmom
 _atom_site_hse06_bader_spin_density
 _atom_site_hse06_ddec_charge
 _atom_site_hse06_ddec_spin_density
 _atom_site_hse06_ddec_sum_bond_order
 _atom_site_hse06_magmom
 _atom_site_pbe_bader_spin_density
 _atom_site_pbe_cm5_charge
 _atom_site_pbe_ddec_charge
 _atom_site_pbe_ddec_spin_density
 _atom_site_pbe_ddec_sum_bond_order
 _atom_site_pbe_magmom
Cd  Cd0  1  0.87444134  0.81607777  0.62804466  1  0  1.148541  0  1.827991  0  0  0.973635  0  2.293809  0  0  1.019763  0  2.249238  0  0  0.818678  0.940999  0  2.324315  0
Cd  Cd1  1  0.37444099  0.68392168  0.87195452  1  0  1.148532  0  1.827994  0  0  0.973626  0  2.29381  0  0  1.019757  0  2.249238  0  0  0.818675  0.940991  0  2.324316  0
Cd  Cd2  1  0.12555783  0.18392253  0.37195563  1  0  1.148545  0  1.827963  0  0  0.973635  0  2.293794  0  0  1.019767  0  2.249219  0  0  0.818692  0.941002  0  2.324302  0
Cd  Cd3  1  0.62555915  0.31607771  0.12804480  1  0  1.14855  0  1.827954  0  0  0.97364  0  2.293778  0  0  1.01977  0  2.249205  0  0  0.818679  0.941006  0  2.324284  0
H  H4  1  0.03346270  0.53021845  0.61191985  1  0  0.086719  0  0.947865  0  0  0.095482  0  1.012091  0  0  0.09694  0  1.011045  0  0  0.129052  0.094682  0  1.012487  0
H  H5  1  0.53345996  0.96978077  0.88808232  1  0  0.086708  0  0.947928  0  0  0.095473  0  1.012162  0  0  0.096931  0  1.011112  0  0  0.129056  0.094674  0  1.01256  0
H  H6  1  0.96654037  0.46978097  0.38808300  1  0  0.086658  0  0.94795  0  0  0.095426  0  1.012183  0  0  0.096883  0  1.011133  0  0  0.129029  0.094628  0  1.012582  0
H  H7  1  0.46654019  0.03021772  0.11191815  1  0  0.086692  0  0.947944  0  0  0.095453  0  1.012181  0  0  0.096911  0  1.011131  0  0  0.129032  0.094653  0  1.012578  0
H  H8  1  0.64364457  0.63966878  0.68570972  1  0  0.111888  0  0.967098  0  0  0.118206  0  1.036952  0  0  0.120361  0  1.034616  0  0  0.134843  0.116605  0  1.038676  0
H  H9  1  0.14364256  0.86032960  0.81428930  1  0  0.111884  0  0.967171  0  0  0.118234  0  1.036988  0  0  0.120388  0  1.034657  0  0  0.134859  0.116633  0  1.038709  0
H  H10  1  0.35635655  0.36032970  0.31428863  1  0  0.111842  0  0.967152  0  0  0.118186  0  1.036984  0  0  0.120342  0  1.034646  0  0  0.134843  0.116585  0  1.038708  0
H  H11  1  0.85635660  0.13966980  0.18571143  1  0  0.111848  0  0.967148  0  0  0.118192  0  1.036978  0  0  0.120348  0  1.034641  0  0  0.134841  0.116591  0  1.038702  0
H  H12  1  0.82781785  0.13458396  0.92094604  1  0  0.098236  0  0.918866  0  0  0.111633  0  0.972901  0  0  0.113015  0  0.971589  0  0  0.139577  0.110589  0  0.973847  0
H  H13  1  0.32781519  0.36541807  0.57905429  1  0  0.098241  0  0.918905  0  0  0.111641  0  0.972937  0  0  0.113021  0  0.971628  0  0  0.139575  0.110597  0  0.973884  0
H  H14  1  0.17218229  0.86541454  0.07905443  1  0  0.098231  0  0.918885  0  0  0.111626  0  0.972929  0  0  0.113012  0  0.971608  0  0  0.139563  0.110582  0  0.973874  0
H  H15  1  0.67218104  0.63458492  0.42094537  1  0  0.098213  0  0.918899  0  0  0.11161  0  0.972945  0  0  0.112993  0  0.97163  0  0  0.139551  0.110567  0  0.973892  0
H  H16  1  0.48623601  0.32706192  0.90844740  1  0  0.120257  0  0.92885  0  0  0.129457  0  0.992945  0  0  0.132622  0  0.988388  0  0  0.145664  0.126986  0  0.996488  0
H  H17  1  0.98623427  0.17293752  0.59155206  1  0  0.120282  0  0.928829  0  0  0.129481  0  0.992933  0  0  0.132645  0  0.988378  0  0  0.145662  0.127008  0  0.996476  0
H  H18  1  0.51376609  0.67293837  0.09155218  1  0  0.120272  0  0.928843  0  0  0.129472  0  0.992943  0  0  0.132636  0  0.988386  0  0  0.145653  0.126999  0  0.996486  0
H  H19  1  0.01376587  0.82706008  0.40844815  1  0  0.120294  0  0.928833  0  0  0.129495  0  0.992931  0  0  0.13266  0  0.988376  0  0  0.145658  0.127023  0  0.996474  0
H  H20  1  0.57123467  0.47158395  0.74038313  1  0  0.09237  0  0.94005  0  0  0.11111  0  1.000724  0  0  0.111461  0  1.000901  0  0  0.115379  0.11088  0  1.000467  0
H  H21  1  0.07123429  0.02841607  0.75961538  1  0  0.092346  0  0.94006  0  0  0.11108  0  1.000738  0  0  0.111428  0  1.000916  0  0  0.11536  0.110851  0  1.000479  0
H  H22  1  0.42876645  0.52841724  0.25961671  1  0  0.092366  0  0.940046  0  0  0.111118  0  1.000705  0  0  0.111469  0  1.000883  0  0  0.115378  0.110889  0  1.000448  0
H  H23  1  0.92876586  0.97158332  0.24038464  1  0  0.09235  0  0.94012  0  0  0.1111  0  1.000781  0  0  0.111451  0  1.000958  0  0  0.115373  0.110875  0  1.000521  0
H  H24  1  0.70114084  0.42368619  0.80019920  1  0  0.083618  0  0.943819  0  0  0.095755  0  1.01164  0  0  0.096072  0  1.012415  0  0  0.111005  0.09546  0  1.0112  0
H  H25  1  0.20114255  0.07631395  0.69980208  1  0  0.083607  0  0.943827  0  0  0.095753  0  1.011627  0  0  0.096067  0  1.012404  0  0  0.111011  0.095458  0  1.011187  0
H  H26  1  0.29885832  0.57631411  0.19980180  1  0  0.083631  0  0.943819  0  0  0.095773  0  1.011627  0  0  0.096088  0  1.012404  0  0  0.111008  0.095478  0  1.011189  0
H  H27  1  0.79885759  0.92368636  0.30019962  1  0  0.083624  0  0.943799  0  0  0.095761  0  1.011618  0  0  0.096076  0  1.012395  0  0  0.111026  0.095455  0  1.011191  0
H  H28  1  0.73992177  0.24739463  0.63393258  1  0  0.086504  0  0.935479  0  0  0.100337  0  1.003158  0  0  0.101571  0  1.002816  0  0  0.099899  0.099341  0  1.003595  0
H  H29  1  0.23992152  0.25260463  0.86606700  1  0  0.086503  0  0.935493  0  0  0.100332  0  1.003184  0  0  0.101567  0  1.002839  0  0  0.099895  0.099336  0  1.003621  0
H  H30  1  0.26007837  0.75260566  0.36606700  1  0  0.086502  0  0.935496  0  0  0.100324  0  1.003164  0  0  0.101558  0  1.002822  0  0  0.09988  0.099327  0  1.0036  0
H  H31  1  0.76007764  0.74739478  0.13393444  1  0  0.086511  0  0.935495  0  0  0.100331  0  1.003164  0  0  0.101566  0  1.002819  0  0  0.099878  0.099332  0  1.0036  0
H  H32  1  0.59767594  0.29022528  0.58518549  1  0  0.087658  0  0.936226  0  0  0.105701  0  0.993955  0  0  0.106256  0  0.995073  0  0  0.099643  0.105221  0  0.993231  0
H  H33  1  0.09767557  0.20977388  0.91481487  1  0  0.087606  0  0.936273  0  0  0.105675  0  0.993988  0  0  0.106211  0  0.995127  0  0  0.099631  0.105193  0  0.993263  0
H  H34  1  0.40232323  0.70977412  0.41481453  1  0  0.087682  0  0.936244  0  0  0.10571  0  0.993969  0  0  0.106267  0  0.995085  0  0  0.099663  0.105229  0  0.993244  0
H  H35  1  0.90232262  0.79022641  0.08518542  1  0  0.087622  0  0.936316  0  0  0.105679  0  0.994008  0  0  0.106216  0  0.995147  0  0  0.099648  0.105197  0  0.993282  0
H  H36  1  0.46209690  0.25692526  0.72062229  1  0  0.08537  0  0.929095  0  0  0.099767  0  0.99457  0  0  0.10022  0  0.995036  0  0  0.116993  0.099311  0  0.994412  0
H  H37  1  0.96209695  0.24307416  0.77937860  1  0  0.085349  0  0.929095  0  0  0.099754  0  0.994573  0  0  0.100209  0  0.995041  0  0  0.116982  0.099306  0  0.994406  0
H  H38  1  0.53790324  0.74307504  0.27937871  1  0  0.085369  0  0.929094  0  0  0.099771  0  0.994561  0  0  0.100225  0  0.995028  0  0  0.116991  0.099315  0  0.994403  0
H  H39  1  0.03790319  0.75692523  0.22062143  1  0  0.085372  0  0.929103  0  0  0.099768  0  0.994575  0  0  0.100221  0  0.995041  0  0  0.116993  0.099313  0  0.994417  0
H  H40  1  0.54978126  0.12512271  0.64955657  1  0  0.090239  0  0.932707  0  0  0.102046  0  1.000364  0  0  0.101961  0  1.001161  0  0  0.1159  0.102057  0  0.999782  0
H  H41  1  0.04978118  0.37487641  0.85044381  1  0  0.090232  0  0.932688  0  0  0.102041  0  1.000363  0  0  0.101955  0  1.001161  0  0  0.1159  0.102051  0  0.999783  0
H  H42  1  0.45021888  0.87487758  0.35044301  1  0  0.090253  0  0.932684  0  0  0.10204  0  1.00038  0  0  0.101955  0  1.001177  0  0  0.115897  0.10205  0  0.999798  0
H  H43  1  0.95021896  0.62512298  0.14955622  1  0  0.090236  0  0.932689  0  0  0.102038  0  1.000358  0  0  0.101951  0  1.001156  0  0  0.115897  0.102048  0  0.999777  0
H  H44  1  0.81210478  0.06089471  0.68326528  1  0  0.376624  0  0.948327  0  0  0.334062  0  1.033358  0  0  0.345068  0  1.017723  0  0  0.276201  0.32637  0  1.044238  0
H  H45  1  0.31210483  0.43910550  0.81673453  1  0  0.376598  0  0.948355  0  0  0.334036  0  1.033382  0  0  0.345041  0  1.017748  0  0  0.276191  0.326344  0  1.044261  0
H  H46  1  0.18789341  0.93910650  0.31673598  1  0  0.37665  0  0.948267  0  0  0.334095  0  1.033284  0  0  0.345099  0  1.01765  0  0  0.276216  0.326404  0  1.044163  0
H  H47  1  0.68789531  0.56089479  0.18326505  1  0  0.376614  0  0.948331  0  0  0.334052  0  1.033358  0  0  0.345058  0  1.017723  0  0  0.276202  0.32636  0  1.044237  0
H  H48  1  0.79881094  0.00425224  0.56471830  1  0  0.41607  0  0.89143  0  0  0.382574  0  0.960081  0  0  0.393217  0  0.944886  0  0  0.279294  0.375078  0  0.970772  0
H  H49  1  0.29881187  0.49574797  0.93528223  1  0  0.416071  0  0.891447  0  0  0.382558  0  0.960127  0  0  0.393202  0  0.94493  0  0  0.279284  0.375062  0  0.970819  0
H  H50  1  0.20118823  0.99574896  0.43528296  1  0  0.416036  0  0.89149  0  0  0.382553  0  0.960116  0  0  0.393193  0  0.944925  0  0  0.279293  0.375058  0  0.970807  0
H  H51  1  0.70118925  0.50425143  0.06471780  1  0  0.416043  0  0.891486  0  0  0.382525  0  0.960175  0  0  0.393171  0  0.944976  0  0  0.27927  0.375029  0  0.970866  0
C  C52  1  0.93240646  0.53310395  0.63560833  1  0  0.205042  0  3.724483  0  0  0.152477  0  4.019198  0  0  0.163922  0  4.032948  0  0  0.139405  0.144922  0  4.009642  0
C  C53  1  0.43240453  0.96689556  0.86439364  1  0  0.205068  0  3.7244  0  0  0.1525  0  4.019106  0  0  0.163948  0  4.032855  0  0  0.139394  0.144941  0  4.009556  0
C  C54  1  0.06759466  0.46689546  0.36439381  1  0  0.205151  0  3.72445  0  0  0.152578  0  4.019161  0  0  0.164028  0  4.032908  0  0  0.139463  0.145019  0  4.009612  0
C  C55  1  0.56759562  0.03310384  0.13560710  1  0  0.205024  0  3.724493  0  0  0.152463  0  4.019196  0  0  0.163911  0  4.032945  0  0  0.139435  0.144905  0  4.009644  0
C  C56  1  0.73590186  0.59146660  0.67262027  1  0  0.170574  0  3.65105  0  0  0.091497  0  3.916592  0  0  0.105258  0  3.929099  0  0  0.156491  0.082625  0  3.908036  0
C  C57  1  0.23589990  0.90853185  0.82738012  1  0  0.170523  0  3.651087  0  0  0.091409  0  3.916633  0  0  0.105165  0  3.929144  0  0  0.156427  0.082539  0  3.908073  0
C  C58  1  0.26409926  0.40853279  0.32737975  1  0  0.170603  0  3.651028  0  0  0.091504  0  3.91656  0  0  0.105262  0  3.92907  0  0  0.156468  0.082634  0  3.908005  0
C  C59  1  0.76409927  0.09146755  0.17262132  1  0  0.170566  0  3.65107  0  0  0.091458  0  3.916611  0  0  0.105214  0  3.929124  0  0  0.156466  0.082585  0  3.908057  0
C  C60  1  0.74637755  0.17281824  0.89347531  1  0  0.219799  0  3.698718  0  0  0.159855  0  3.989451  0  0  0.172556  0  4.00242  0  0  0.154507  0.151696  0  3.98024  0
C  C61  1  0.24637579  0.32718372  0.60652435  1  0  0.219759  0  3.698682  0  0  0.159796  0  3.989437  0  0  0.172497  0  4.002408  0  0  0.154482  0.15164  0  3.980223  0
C  C62  1  0.25362259  0.82718024  0.10652446  1  0  0.219831  0  3.698646  0  0  0.159877  0  3.989386  0  0  0.172578  0  4.002357  0  0  0.154547  0.15172  0  3.980173  0
C  C63  1  0.75362240  0.67281747  0.39347478  1  0  0.219843  0  3.698733  0  0  0.159885  0  3.989464  0  0  0.172586  0  4.002437  0  0  0.154521  0.151725  0  3.980255  0
C  C64  1  0.57238109  0.26985166  0.88956394  1  0  0.200804  0  3.621934  0  0  0.119344  0  3.892542  0  0  0.134845  0  3.90169  0  0  0.176911  0.109482  0  3.886167  0
C  C65  1  0.07238018  0.23014928  0.61043625  1  0  0.200681  0  3.621929  0  0  0.119211  0  3.892541  0  0  0.134709  0  3.901694  0  0  0.176875  0.109351  0  3.886161  0
C  C66  1  0.42761905  0.73014863  0.11043635  1  0  0.200679  0  3.621951  0  0  0.119209  0  3.892575  0  0  0.134709  0  3.901725  0  0  0.176888  0.10935  0  3.886195  0
C  C67  1  0.92761996  0.76984921  0.38956351  1  0  0.200632  0  3.622064  0  0  0.119157  0  3.892675  0  0  0.134655  0  3.90183  0  0  0.176831  0.109296  0  3.886296  0
C  C68  1  0.66306807  0.42080882  0.72697386  1  0  -0.018447  0  3.619058  0  0  -0.094838  0  3.873632  0  0  -0.09136  0  3.885298  0  0  -0.053068  -0.09703  0  3.865531  0
C  C69  1  0.16306871  0.07919039  0.77302647  1  0  -0.018362  0  3.619014  0  0  -0.094736  0  3.873573  0  0  -0.091255  0  3.885236  0  0  -0.053046  -0.096928  0  3.865466  0
C  C70  1  0.33693109  0.57919058  0.27302687  1  0  -0.01842  0  3.619081  0  0  -0.094827  0  3.873637  0  0  -0.091354  0  3.885309  0  0  -0.053056  -0.097017  0  3.865528  0
C  C71  1  0.83693143  0.92080991  0.22697452  1  0  -0.018413  0  3.619108  0  0  -0.094836  0  3.873671  0  0  -0.091356  0  3.885336  0  0  -0.053102  -0.097017  0  3.865561  0
C  C72  1  0.64443452  0.29130891  0.65519153  1  0  -0.146124  0  3.674153  0  0  -0.192308  0  3.944915  0  0  -0.194254  0  3.957659  0  0  -0.16074  -0.190646  0  3.935905  0
C  C73  1  0.14443522  0.20869027  0.84480739  1  0  -0.146148  0  3.674185  0  0  -0.192354  0  3.944973  0  0  -0.194288  0  3.957724  0  0  -0.160737  -0.190691  0  3.935965  0
C  C74  1  0.35556464  0.70869138  0.34480805  1  0  -0.146194  0  3.674288  0  0  -0.192316  0  3.944976  0  0  -0.194262  0  3.957718  0  0  -0.160737  -0.190651  0  3.935963  0
C  C75  1  0.85556492  0.79130913  0.15519264  1  0  -0.146162  0  3.674283  0  0  -0.192294  0  3.944951  0  0  -0.194231  0  3.957703  0  0  -0.160709  -0.190626  0  3.935936  0
C  C76  1  0.56024664  0.21838499  0.70175238  1  0  -0.008002  0  3.61276  0  0  -0.082703  0  3.872819  0  0  -0.078635  0  3.883895  0  0  -0.043851  -0.084941  0  3.864839  0
C  C77  1  0.06024554  0.28161505  0.79824826  1  0  -0.007927  0  3.612678  0  0  -0.082678  0  3.872826  0  0  -0.078603  0  3.883886  0  0  -0.043843  -0.084922  0  3.864845  0
C  C78  1  0.43975350  0.78161531  0.29824791  1  0  -0.007984  0  3.612783  0  0  -0.08271  0  3.872836  0  0  -0.078636  0  3.8839  0  0  -0.043852  -0.084948  0  3.864856  0
C  C79  1  0.93975460  0.71838435  0.20175247  1  0  -0.007969  0  3.612735  0  0  -0.0827  0  3.872822  0  0  -0.078617  0  3.883871  0  0  -0.043861  -0.084939  0  3.864842  0
C  C80  1  0.54465502  0.85727547  0.62794759  1  0  0.517341  0  4.004064  0  0  0.476518  0  4.289731  0  0  0.504479  0  4.29997  0  0  0.301566  0.457473  0  4.282581  0
C  C81  1  0.04465169  0.64272279  0.87204654  1  0  0.517424  0  4.004097  0  0  0.476601  0  4.289776  0  0  0.504567  0  4.30001  0  0  0.301581  0.457555  0  4.282633  0
C  C82  1  0.45534708  0.14272387  0.37204608  1  0  0.517386  0  4.004014  0  0  0.476566  0  4.289687  0  0  0.504528  0  4.299924  0  0  0.301541  0.457521  0  4.282545  0
C  C83  1  0.95534845  0.35727660  0.12795348  1  0  0.517347  0  4.004226  0  0  0.47651  0  4.289893  0  0  0.504478  0  4.300134  0  0  0.301531  0.457467  0  4.282752  0
C  C84  1  0.37470214  0.94003280  0.56389044  1  0  0.488482  0  4.014246  0  0  0.450273  0  4.308029  0  0  0.475151  0  4.319484  0  0  0.295257  0.433482  0  4.299997  0
C  C85  1  0.87470175  0.55996843  0.93610643  1  0  0.48837  0  4.014323  0  0  0.450158  0  4.308118  0  0  0.475039  0  4.31958  0  0  0.29519  0.433366  0  4.300087  0
C  C86  1  0.62529800  0.05997018  0.43610780  1  0  0.488441  0  4.014207  0  0  0.450238  0  4.30799  0  0  0.475116  0  4.319449  0  0  0.295199  0.433445  0  4.299961  0
C  C87  1  0.12529839  0.44003095  0.06389148  1  0  0.488516  0  4.014152  0  0  0.450286  0  4.307945  0  0  0.47517  0  4.319406  0  0  0.29524  0.433496  0  4.299915  0
C  C88  1  0.17296908  0.71206593  0.58717409  1  0  0.525311  0  3.96887  0  0  0.48015  0  4.265619  0  0  0.506983  0  4.276628  0  0  0.310593  0.461657  0  4.258189  0
C  C89  1  0.67297096  0.78793518  0.91282641  1  0  0.525209  0  3.968826  0  0  0.480048  0  4.265585  0  0  0.506884  0  4.276597  0  0  0.310504  0.461555  0  4.258155  0
C  C90  1  0.82702814  0.28793706  0.41282486  1  0  0.525098  0  3.968759  0  0  0.479931  0  4.265533  0  0  0.50676  0  4.276544  0  0  0.310443  0.46144  0  4.258105  0
C  C91  1  0.32703114  0.21206333  0.08717618  1  0  0.525205  0  3.968695  0  0  0.480046  0  4.265459  0  0  0.506874  0  4.276474  0  0  0.31048  0.461556  0  4.258031  0
C  C92  1  0.33674725  0.61723120  0.64051261  1  0  0.519438  0  3.98311  0  0  0.47814  0  4.274213  0  0  0.505327  0  4.284103  0  0  0.30721  0.4596  0  4.267329  0
C  C93  1  0.83675127  0.88277002  0.85948711  1  0  0.519397  0  3.983234  0  0  0.4781  0  4.274342  0  0  0.505288  0  4.284232  0  0  0.307192  0.459559  0  4.26746  0
C  C94  1  0.66324996  0.38277089  0.35948679  1  0  0.519228  0  3.983186  0  0  0.477925  0  4.274305  0  0  0.505111  0  4.284196  0  0  0.307123  0.459385  0  4.267422  0
C  C95  1  0.16325180  0.11722849  0.14051478  1  0  0.519263  0  3.9832  0  0  0.477968  0  4.274311  0  0  0.50515  0  4.284205  0  0  0.307208  0.459429  0  4.267427  0
N  N96  1  0.75453433  0.48639595  0.68673131  1  0  0.053794  0  3.563509  0  0  0.177111  0  3.748648  0  0  0.168227  0  3.769948  0  0  -0.130985  0.182723  0  3.734567  0
N  N97  1  0.25453385  0.01360332  0.81326898  1  0  0.053783  0  3.563397  0  0  0.177113  0  3.748544  0  0  0.168242  0  3.769817  0  0  -0.13096  0.182725  0  3.734463  0
N  N98  1  0.24546582  0.51360345  0.31326943  1  0  0.053765  0  3.563482  0  0  0.17709  0  3.748626  0  0  0.168213  0  3.769913  0  0  -0.130967  0.182703  0  3.734548  0
N  N99  1  0.74546630  0.98639698  0.18673202  1  0  0.053806  0  3.56348  0  0  0.17714  0  3.748628  0  0  0.168267  0  3.769907  0  0  -0.130954  0.182755  0  3.734549  0
N  N100  1  0.87956486  0.44740018  0.66364260  1  0  -0.27926  0  2.859088  0  0  -0.281594  0  3.132806  0  0  -0.290618  0  3.147816  0  0  -0.225326  -0.275459  0  3.122964  0
N  N101  1  0.37956343  0.05260009  0.83635929  1  0  -0.279224  0  2.858997  0  0  -0.281565  0  3.132721  0  0  -0.290593  0  3.147735  0  0  -0.225329  -0.27543  0  3.12288  0
N  N102  1  0.12043723  0.55259922  0.33635954  1  0  -0.279285  0  2.859098  0  0  -0.281623  0  3.132819  0  0  -0.290654  0  3.147836  0  0  -0.225393  -0.275487  0  3.122978  0
N  N103  1  0.62043672  0.94740022  0.16364241  1  0  -0.279219  0  2.859045  0  0  -0.28156  0  3.132755  0  0  -0.290591  0  3.147771  0  0  -0.225341  -0.275425  0  3.122912  0
N  N104  1  0.84755554  0.62404238  0.64023931  1  0  -0.44036  0  3.21137  0  0  -0.370073  0  3.506547  0  0  -0.393166  0  3.522773  0  0  -0.352572  -0.354161  0  3.495024  0
N  N105  1  0.34755252  0.87595707  0.85976270  1  0  -0.440366  0  3.211334  0  0  -0.370079  0  3.506523  0  0  -0.393173  0  3.522747  0  0  -0.352539  -0.354168  0  3.495001  0
N  N106  1  0.15244558  0.37595703  0.35976213  1  0  -0.44038  0  3.211305  0  0  -0.370091  0  3.506484  0  0  -0.393187  0  3.522712  0  0  -0.352546  -0.354179  0  3.494964  0
N  N107  1  0.65244567  0.12404234  0.14023873  1  0  -0.440336  0  3.211352  0  0  -0.370052  0  3.506536  0  0  -0.393146  0  3.522763  0  0  -0.352565  -0.354141  0  3.495016  0
N  N108  1  0.61620086  0.21549208  0.79533780  1  0  0.0459  0  3.555754  0  0  0.164302  0  3.73981  0  0  0.153805  0  3.763612  0  0  -0.13168  0.169875  0  3.725917  0
N  N109  1  0.11619989  0.28450800  0.70466281  1  0  0.045924  0  3.555739  0  0  0.164331  0  3.739808  0  0  0.153838  0  3.763603  0  0  -0.131679  0.169902  0  3.725918  0
N  N110  1  0.38379929  0.78450732  0.20466223  1  0  0.045924  0  3.555772  0  0  0.164321  0  3.739835  0  0  0.153822  0  3.763641  0  0  -0.131694  0.169892  0  3.725942  0
N  N111  1  0.88380026  0.71549140  0.29533721  1  0  0.045956  0  3.555746  0  0  0.164346  0  3.739816  0  0  0.153855  0  3.763607  0  0  -0.131681  0.169918  0  3.725922  0
N  N112  1  0.72769623  0.15303591  0.79623796  1  0  -0.283634  0  2.939943  0  0  -0.258328  0  3.194643  0  0  -0.269932  0  3.208985  0  0  -0.20878  -0.250387  0  3.185185  0
N  N113  1  0.22769534  0.34696514  0.70376215  1  0  -0.283709  0  2.939955  0  0  -0.258396  0  3.19466  0  0  -0.270001  0  3.209001  0  0  -0.208821  -0.250455  0  3.185201  0
N  N114  1  0.27230294  0.84696258  0.20376251  1  0  -0.283766  0  2.939942  0  0  -0.258452  0  3.19464  0  0  -0.270054  0  3.20898  0  0  -0.208854  -0.250511  0  3.185182  0
N  N115  1  0.77230285  0.65303605  0.29623769  1  0  -0.283685  0  2.939971  0  0  -0.258378  0  3.194676  0  0  -0.269985  0  3.209019  0  0  -0.208808  -0.250437  0  3.18522  0
N  N116  1  0.65286323  0.24417851  0.95335908  1  0  -0.414988  0  3.207349  0  0  -0.345593  0  3.505381  0  0  -0.368077  0  3.519516  0  0  -0.34535  -0.330138  0  3.494935  0
N  N117  1  0.15286146  0.25582339  0.54664062  1  0  -0.414804  0  3.207201  0  0  -0.345382  0  3.505204  0  0  -0.36786  0  3.519328  0  0  -0.345243  -0.329928  0  3.494754  0
N  N118  1  0.34713691  0.75582179  0.04664120  1  0  -0.414802  0  3.207187  0  0  -0.345394  0  3.505197  0  0  -0.367878  0  3.519334  0  0  -0.345274  -0.32994  0  3.494748  0
N  N119  1  0.84713771  0.74417600  0.45335870  1  0  -0.41486  0  3.207326  0  0  -0.345434  0  3.505318  0  0  -0.367912  0  3.519439  0  0  -0.345229  -0.329978  0  3.494867  0
N  N120  1  0.42572009  0.86574794  0.60196190  1  0  -0.465634  0  3.350751  0  0  -0.409122  0  3.613301  0  0  -0.434592  0  3.620355  0  0  -0.309751  -0.391525  0  3.608008  0
N  N121  1  0.92571790  0.63425151  0.89803301  1  0  -0.465577  0  3.35094  0  0  -0.409081  0  3.613519  0  0  -0.434552  0  3.620564  0  0  -0.309705  -0.391474  0  3.608207  0
N  N122  1  0.57428200  0.13425323  0.39803441  1  0  -0.465646  0  3.350794  0  0  -0.40916  0  3.613385  0  0  -0.434613  0  3.620412  0  0  -0.309736  -0.391551  0  3.608079  0
N  N123  1  0.07428322  0.36574878  0.10196586  1  0  -0.465647  0  3.35085  0  0  -0.409132  0  3.613436  0  0  -0.434599  0  3.620458  0  0  -0.309723  -0.391527  0  3.608121  0
N  N124  1  0.64854873  0.83924799  0.65621060  1  0  -0.643993  0  2.803072  0  0  -0.591933  0  3.08141  0  0  -0.615742  0  3.085717  0  0  -0.402659  -0.575749  0  3.078502  0
N  N125  1  0.14854742  0.66074946  0.84378463  1  0  -0.64404  0  2.803057  0  0  -0.591965  0  3.081366  0  0  -0.61578  0  3.085681  0  0  -0.402647  -0.575782  0  3.07846  0
N  N126  1  0.35145337  0.16074956  0.34378396  1  0  -0.643994  0  2.803029  0  0  -0.591924  0  3.081353  0  0  -0.61574  0  3.085669  0  0  -0.402611  -0.575742  0  3.078447  0
N  N127  1  0.85145468  0.33924993  0.15621540  1  0  -0.64397  0  2.803101  0  0  -0.591893  0  3.081414  0  0  -0.615708  0  3.085731  0  0  -0.402626  -0.57571  0  3.078508  0
N  N128  1  0.31613462  0.00205977  0.52903455  1  0  -0.605131  0  2.665718  0  0  -0.568067  0  2.903797  0  0  -0.586417  0  2.910505  0  0  -0.375704  -0.555624  0  2.899274  0
N  N129  1  0.81613571  0.49794224  0.97096437  1  0  -0.605116  0  2.665632  0  0  -0.568021  0  2.903715  0  0  -0.586378  0  2.910421  0  0  -0.375698  -0.55558  0  2.899192  0
N  N130  1  0.68386454  0.99794413  0.47096537  1  0  -0.605148  0  2.665618  0  0  -0.56807  0  2.903699  0  0  -0.586429  0  2.910404  0  0  -0.375683  -0.555627  0  2.899175  0
N  N131  1  0.18386541  0.50205804  0.02903380  1  0  -0.605185  0  2.665604  0  0  -0.568088  0  2.903691  0  0  -0.586444  0  2.910398  0  0  -0.375701  -0.555645  0  2.899168  0
N  N132  1  0.25181036  0.62258439  0.57516312  1  0  -0.462364  0  3.285395  0  0  -0.412345  0  3.556796  0  0  -0.436868  0  3.562207  0  0  -0.308515  -0.395435  0  3.552437  0
N  N133  1  0.75181429  0.87741678  0.92483804  1  0  -0.462263  0  3.28527  0  0  -0.412236  0  3.556649  0  0  -0.43677  0  3.562076  0  0  -0.308427  -0.395325  0  3.552284  0
N  N134  1  0.74818392  0.37742040  0.42483564  1  0  -0.462165  0  3.285284  0  0  -0.412128  0  3.556665  0  0  -0.436657  0  3.562092  0  0  -0.3084  -0.395216  0  3.5523  0
N  N135  1  0.24818585  0.12258085  0.07516640  1  0  -0.462229  0  3.285215  0  0  -0.412219  0  3.556623  0  0  -0.436738  0  3.562036  0  0  -0.30848  -0.395309  0  3.552259  0
N  N136  1  0.09604408  0.78802497  0.59124187  1  0  -0.610322  0  2.760011  0  0  -0.560703  0  3.036377  0  0  -0.583267  0  3.040787  0  0  -0.390843  -0.545457  0  3.033771  0
N  N137  1  0.59604489  0.71197698  0.90875822  1  0  -0.610316  0  2.760079  0  0  -0.560693  0  3.036439  0  0  -0.583258  0  3.04085  0  0  -0.390846  -0.545447  0  3.033829  0
N  N138  1  0.90395216  0.21198163  0.40875812  1  0  -0.610168  0  2.760125  0  0  -0.560547  0  3.036482  0  0  -0.583109  0  3.040893  0  0  -0.39075  -0.545304  0  3.033878  0
N  N139  1  0.40395428  0.28801972  0.09124314  1  0  -0.610255  0  2.760147  0  0  -0.560622  0  3.036486  0  0  -0.583185  0  3.0409  0  0  -0.390764  -0.545379  0  3.033881  0
N  N140  1  0.41644999  0.60143654  0.69522781  1  0  -0.632131  0  2.750064  0  0  -0.585315  0  3.018539  0  0  -0.607303  0  3.022331  0  0  -0.396487  -0.570203  0  3.015895  0
N  N141  1  0.91645215  0.89856473  0.80477186  1  0  -0.632084  0  2.750152  0  0  -0.585267  0  3.01861  0  0  -0.607257  0  3.02241  0  0  -0.396465  -0.570157  0  3.015968  0
N  N142  1  0.58354234  0.39856374  0.30477036  1  0  -0.632036  0  2.749862  0  0  -0.585225  0  3.01834  0  0  -0.607217  0  3.02214  0  0  -0.396472  -0.570111  0  3.015697  0
N  N143  1  0.08354409  0.10143467  0.19523028  1  0  -0.632042  0  2.749915  0  0  -0.585224  0  3.01838  0  0  -0.607215  0  3.022179  0  0  -0.39649  -0.570113  0  3.015737  0
O  O144  1  0.86172223  0.01400630  0.62127512  1  0  -0.820186  0  1.875726  0  0  -0.756526  0  2.07041  0  0  -0.778861  0  2.0383  0  0  -0.587753  -0.740384  0  2.092397  0
O  O145  1  0.36172323  0.48599486  0.87872563  1  0  -0.820156  0  1.875734  0  0  -0.756475  0  2.070411  0  0  -0.778817  0  2.038323  0  0  -0.587736  -0.740332  0  2.0924  0
O  O146  1  0.13827596  0.98599672  0.37872736  1  0  -0.820166  0  1.875734  0  0  -0.756504  0  2.070396  0  0  -0.77885  0  2.038315  0  0  -0.587761  -0.740364  0  2.092382  0
O  O147  1  0.63827789  0.51400453  0.12127369  1  0  -0.820153  0  1.875732  0  0  -0.756476  0  2.070433  0  0  -0.778813  0  2.038322  0  0  -0.587726  -0.740333  0  2.092418  0
