# generated using pymatgen
data_CuSiH8C20(N4F7)2
_symmetry_space_group_name_H-M   'P 1'
_cell_length_a   7.98452432
_cell_length_b   13.08673116
_cell_length_c   13.15852989
_cell_angle_alpha   74.86642272
_cell_angle_beta   65.40800676
_cell_angle_gamma   65.43921335
_symmetry_Int_Tables_number   1
_chemical_formula_structural   CuSiH8C20(N4F7)2
_chemical_formula_sum   'Cu1 Si1 H8 C20 N8 F14'
_cell_volume   1130.64652271
_cell_formula_units_Z   1
loop_
 _symmetry_equiv_pos_site_id
 _symmetry_equiv_pos_as_xyz
  1  'x, y, z'
loop_
 _atom_site_type_symbol
 _atom_site_label
 _atom_site_symmetry_multiplicity
 _atom_site_fract_x
 _atom_site_fract_y
 _atom_site_fract_z
 _atom_site_occupancy
 _atom_site_pbe_bader_charge
 _atom_site_pbe_bader_spin_density
 _atom_site_pbe_cm5_charge
 _atom_site_pbe_ddec_charge
 _atom_site_pbe_ddec_spin_density
 _atom_site_pbe_ddec_sum_bond_order
 _atom_site_pbe_magmom
Cu  Cu0  1  0.49668109  0.49827300  0.49529690  1  1.126729  0.583086  0.759954  0.844061  0.736919  1.914931  0.583
Si  Si1  1  0.95952523  0.53268009  0.53181884  1  3.228318  -0.000145  0.243124  1.738209  -0.000306  3.897793  0.0
H  H2  1  0.25120089  0.57981424  0.36186690  1  0.259499  0.003169  0.12077  0.121978  0.001726  1.075643  0.003
H  H3  1  0.26573099  0.56222708  0.17560656  1  0.156918  0.001333  0.127193  0.144254  0.000692  0.982643  0.001
H  H4  1  0.15471698  0.61125165  0.91358601  1  0.133242  0.000964  0.126318  0.163073  0.000491  0.971927  0.001
H  H5  1  0.75377216  0.37220043  0.82350430  1  0.192089  0.000744  0.129314  0.173123  0.000382  0.976158  0.001
H  H6  1  0.25102334  0.36420598  0.57982876  1  0.265139  0.003131  0.121475  0.123471  0.001726  1.076954  0.003
H  H7  1  0.26609471  0.17687159  0.56239987  1  0.141086  0.001343  0.127805  0.144582  0.000688  0.98163  0.001
H  H8  1  0.15877332  0.91085693  0.61474337  1  0.13953  0.001061  0.127438  0.163886  0.000545  0.969443  0.001
H  H9  1  0.75146116  0.82530354  0.36944287  1  0.176328  0.000803  0.12952  0.172983  0.000411  0.975443  0.001
C  C10  1  0.39197911  0.54416537  0.29717747  1  0.43522  0.000532  0.056443  0.127882  -0.001046  3.880016  0.0
C  C11  1  0.40094270  0.53608628  0.19231237  1  0.026535  0.008348  -0.066757  -0.161132  0.005648  3.894922  0.007
C  C12  1  0.58328182  0.48964203  0.10954829  1  0.392975  -0.002908  0.101763  0.110626  -0.003549  4.05797  -0.002
C  C13  1  0.75165780  0.45630841  0.13707711  1  0.55365  0.006008  0.106696  0.078139  0.004164  4.025276  0.005
C  C14  1  0.72995178  0.46655288  0.24543726  1  1.157426  0.002661  0.226022  0.317896  0.001818  4.118354  0.002
C  C15  1  0.28304158  0.55427153  0.85695787  1  0.106498  0.00233  -0.085378  -0.325367  0.001729  3.911702  0.002
C  C16  1  0.45809727  0.49789296  0.87934957  1  0.364332  0.00052  0.116885  0.26055  0.000179  4.026311  0.0
C  C17  1  0.61596980  0.41910203  0.80905321  1  0.067037  0.002201  -0.07292  -0.29406  0.001632  3.869201  0.002
C  C18  1  0.59013661  0.40607257  0.71621944  1  1.095295  0.001332  0.248451  0.495284  0.000595  4.041462  0.001
C  C19  1  0.27786274  0.53200409  0.76112786  1  1.05032  0.002288  0.242076  0.475585  0.001458  4.071504  0.002
C  C20  1  0.39187042  0.29953684  0.54378296  1  0.389039  0.000619  0.053623  0.121356  -0.001053  3.88544  0.0
C  C21  1  0.40114928  0.19398506  0.53591461  1  0.099395  0.008091  -0.065083  -0.155336  0.005546  3.893658  0.007
C  C22  1  0.58355877  0.11115987  0.48910014  1  0.312228  -0.00282  0.099995  0.105475  -0.003451  4.057556  -0.002
C  C23  1  0.75168024  0.13920847  0.45560867  1  0.626509  0.005805  0.10885  0.082607  0.004059  4.023319  0.005
C  C24  1  0.72972555  0.24827551  0.46566600  1  1.148543  0.002658  0.224353  0.315831  0.001805  4.118212  0.002
C  C25  1  0.28625042  0.85486071  0.55675194  1  0.081142  0.002768  -0.083336  -0.323618  0.002065  3.910995  0.002
C  C26  1  0.45906046  0.87929214  0.49791442  1  0.396189  -0.000117  0.117363  0.261832  -0.000382  4.027123  0.0
C  C27  1  0.61519374  0.80949285  0.41823244  1  0.073735  0.002609  -0.071672  -0.293678  0.001951  3.870979  0.002
C  C28  1  0.59070632  0.71500714  0.40694316  1  1.059019  0.001179  0.249721  0.498529  0.000331  4.034257  0.0
C  C29  1  0.28195385  0.75726515  0.53683602  1  1.065502  0.001943  0.242232  0.476318  0.001195  4.066138  0.001
N  N30  1  0.55506721  0.50639113  0.32456792  1  -1.187231  0.107271  -0.328982  -0.31635  0.070335  3.604006  0.092
N  N31  1  0.60462737  0.46693131  0.00457800  1  -0.422893  0.001932  -0.118494  -0.075303  0.00117  3.190539  0.002
N  N32  1  0.45368003  0.52431221  0.97822821  1  -0.431071  -0.000479  -0.118022  -0.098501  -0.000817  3.203926  0.0
N  N33  1  0.43146603  0.46536114  0.68610079  1  -1.197291  0.059822  -0.316122  -0.434655  0.039576  3.388816  0.05
N  N34  1  0.55462377  0.32767505  0.50535757  1  -1.194905  0.105733  -0.328937  -0.312484  0.069424  3.613627  0.09
N  N35  1  0.60544925  0.00540850  0.46669210  1  -0.414823  0.001442  -0.119382  -0.075284  0.000847  3.186102  0.001
N  N36  1  0.45407510  0.97918177  0.52345820  1  -0.412659  -0.0004  -0.116955  -0.09761  -0.000701  3.201689  0.0
N  N37  1  0.43461063  0.68259690  0.46893275  1  -1.190391  0.064007  -0.320198  -0.431955  0.042276  3.411113  0.053
F  F38  1  0.17735766  0.53795864  0.53549811  1  -0.826858  0.000467  -0.23852  -0.56097  6e-06  1.30739  0.001
F  F39  1  0.75217272  0.52333063  0.52400494  1  -0.8358  -0.001075  -0.246342  -0.57215  -0.001219  1.258699  0.0
F  F40  1  0.96813884  0.63928056  0.42394150  1  -0.833144  0.00257  -0.230984  -0.520186  0.001631  1.155336  0.002
F  F41  1  0.96902351  0.42536961  0.63873784  1  -0.830331  0.002292  -0.229963  -0.519297  0.001456  1.15638  0.002
F  F42  1  0.10566857  0.43601567  0.43650163  1  -0.826929  -0.000157  -0.258113  -0.547495  -0.000177  1.097661  0.0
F  F43  1  0.81348440  0.62780543  0.62530440  1  -0.829092  0.001535  -0.267734  -0.546924  0.00097  1.053704  0.001
F  F44  1  0.89102052  0.43544000  0.27054816  1  -0.600269  0.001383  -0.059492  -0.100103  0.000557  1.43406  0.001
F  F45  1  0.93386848  0.41522394  0.06205211  1  -0.610215  0.003056  -0.081847  -0.092386  0.001861  1.377239  0.003
F  F46  1  0.10843329  0.57762249  0.74264898  1  -0.605261  0.001225  -0.056446  -0.109554  0.00063  1.42436  0.001
F  F47  1  0.72853365  0.32453423  0.65195809  1  -0.629811  0.001113  -0.068278  -0.129813  0.000603  1.423184  0.001
F  F48  1  0.89048163  0.27384776  0.43446628  1  -0.597141  0.001402  -0.056376  -0.096546  0.000571  1.437213  0.001
F  F49  1  0.93401598  0.06399365  0.41460014  1  -0.611191  0.003015  -0.082029  -0.093408  0.001836  1.375155  0.003
F  F50  1  0.11484678  0.73629814  0.58695277  1  -0.6063  0.001207  -0.053204  -0.10495  0.000614  1.434741  0.001
F  F51  1  0.72769831  0.65102292  0.32520780  1  -0.625863  0.001104  -0.065819  -0.128416  0.00058  1.430819  0.001
