# generated using pymatgen
data_CuH9C4O7
_symmetry_space_group_name_H-M   'P 1'
_cell_length_a   6.96745344
_cell_length_b   9.81829457
_cell_length_c   13.83568592
_cell_angle_alpha   89.99941470
_cell_angle_beta   90.00012094
_cell_angle_gamma   99.24585234
_symmetry_Int_Tables_number   1
_chemical_formula_structural   CuH9C4O7
_chemical_formula_sum   'Cu4 H36 C16 O28'
_cell_volume   934.18201234
_cell_formula_units_Z   4
loop_
 _symmetry_equiv_pos_site_id
 _symmetry_equiv_pos_as_xyz
  1  'x, y, z'
loop_
 _atom_site_type_symbol
 _atom_site_label
 _atom_site_symmetry_multiplicity
 _atom_site_fract_x
 _atom_site_fract_y
 _atom_site_fract_z
 _atom_site_occupancy
 _atom_site_hle17_ddec_charge
 _atom_site_hle17_ddec_spin_density
 _atom_site_hle17_ddec_sum_bond_order
 _atom_site_hle17_magmom
 _atom_site_hse06_10hf_ddec_charge
 _atom_site_hse06_10hf_ddec_spin_density
 _atom_site_hse06_10hf_ddec_sum_bond_order
 _atom_site_hse06_10hf_magmom
 _atom_site_hse06_ddec_charge
 _atom_site_hse06_ddec_spin_density
 _atom_site_hse06_ddec_sum_bond_order
 _atom_site_hse06_magmom
 _atom_site_pbe_cm5_charge
 _atom_site_pbe_ddec_charge
 _atom_site_pbe_ddec_spin_density
 _atom_site_pbe_ddec_sum_bond_order
 _atom_site_pbe_magmom
Cu  Cu0  1  0.95512701  0.31660066  0.72464411  1  1.045992  -0.753273  1.604667  -0.553  1.04365  -0.842426  1.992361  -0.68  1.127147  -0.907651  1.931564  -0.763  0.708253  0.969686  -0.791668  2.065892  -0.622
Cu  Cu1  1  0.54487738  0.18340047  0.22464549  1  1.045984  0.753297  1.604707  0.553  1.043659  0.842444  1.992394  0.68  1.127154  0.907668  1.931595  0.763  0.708223  0.969569  0.791695  2.066114  0.622
Cu  Cu2  1  0.04486158  0.68340550  0.27536220  1  1.04609  0.753331  1.604838  0.553  1.043731  0.842459  1.992567  0.68  1.127212  0.907665  1.931759  0.763  0.708237  0.969746  0.79172  2.06619  0.622
Cu  Cu3  1  0.45514365  0.81660177  0.77536298  1  1.046059  -0.753357  1.604977  -0.553  1.043712  -0.842455  1.992704  -0.68  1.1272  -0.907662  1.931911  -0.763  0.708224  0.969733  -0.791726  2.06636  -0.622
H  H4  1  0.02567022  0.87592939  0.56357222  1  0.106469  -0.000794  0.896719  -0.001  0.116592  -0.000635  0.949684  -0.001  0.118658  -0.0004  0.949017  -0.001  0.114193  0.114836  -0.000847  0.950824  -0.001
H  H5  1  0.47431096  0.62405369  0.06356789  1  0.106375  0.000796  0.896739  0.001  0.116612  0.000635  0.949589  0.001  0.118634  0.0004  0.948985  0.001  0.114191  0.114859  0.000847  0.950734  0.001
H  H6  1  0.97436156  0.12407735  0.43643843  1  0.106528  0.000793  0.896741  0.001  0.116648  0.000634  0.949723  0.001  0.118718  0.000399  0.949058  0.001  0.114225  0.11489  0.000846  0.950845  0.001
H  H7  1  0.52562498  0.37592800  0.93643264  1  0.106445  -0.000794  0.896964  -0.001  0.116568  -0.000633  0.949895  -0.001  0.118632  -0.000399  0.949232  -0.001  0.11422  0.114811  -0.000846  0.951017  -0.001
H  H8  1  0.32382082  0.96430705  0.47974287  1  0.120248  -9.6e-05  0.933253  0.0  0.136488  -0.000171  0.987715  0.0  0.138202  -9.5e-05  0.987671  0.0  0.107598  0.135163  -0.00026  0.98806  0.0
H  H9  1  0.17616764  0.53568300  0.97973472  1  0.120328  9.1e-05  0.933298  0.0  0.136515  0.00017  0.987737  0.0  0.138237  9.4e-05  0.987689  0.0  0.107571  0.135191  0.000259  0.988082  0.0
H  H10  1  0.67619641  0.03565201  0.52026994  1  0.120274  9.2e-05  0.933477  0.0  0.136469  0.00017  0.987904  0.0  0.138179  9.4e-05  0.987853  0.0  0.107635  0.135143  0.00026  0.988246  0.0
H  H11  1  0.82376605  0.46429348  0.02026147  1  0.120143  -9.2e-05  0.933303  0.0  0.136397  -0.00017  0.987802  0.0  0.138118  -9.5e-05  0.987747  0.0  0.107577  0.135075  -0.00026  0.988142  0.0
H  H12  1  0.30720135  0.13987528  0.51031872  1  0.134496  -0.0011  0.898308  -0.001  0.148166  -0.000816  0.950548  -0.001  0.150151  -0.000495  0.949972  -0.001  0.112386  0.146789  -0.001104  0.951042  -0.001
H  H13  1  0.19276568  0.36011495  0.01032165  1  0.13458  0.001098  0.898158  0.001  0.148179  0.000817  0.950432  0.001  0.150165  0.000495  0.949855  0.001  0.11235  0.1468  0.001105  0.950928  0.001
H  H14  1  0.69281777  0.86011459  0.48966374  1  0.134498  0.001098  0.898291  0.001  0.148086  0.000816  0.950547  0.001  0.15007  0.000494  0.949956  0.001  0.11238  0.146726  0.001105  0.951034  0.001
H  H15  1  0.80717782  0.63985984  0.98968394  1  0.13433  -0.001098  0.898162  -0.001  0.147997  -0.000816  0.950463  -0.001  0.149974  -0.000494  0.949906  -0.001  0.112345  0.146626  -0.001105  0.950989  -0.001
H  H16  1  0.26846791  0.20977935  0.74336194  1  0.422452  0.000141  0.876507  0.001  0.394885  -0.000502  0.936192  0.0  0.405739  -0.00032  0.920957  0.0  0.295839  0.386896  -0.000634  0.947376  0.0
H  H17  1  0.23152783  0.29023922  0.24338398  1  0.422489  -0.000142  0.876509  -0.001  0.394987  0.000502  0.936071  0.0  0.40584  0.00032  0.920836  0.0  0.295828  0.386991  0.000634  0.947263  0.0
H  H18  1  0.73150621  0.79023550  0.25662341  1  0.422376  -0.000142  0.876613  -0.001  0.394762  0.000503  0.936344  0.0  0.405614  0.000321  0.921113  0.0  0.295781  0.386781  0.000635  0.947518  0.0
H  H19  1  0.76846943  0.70975804  0.75662233  1  0.422432  0.000142  0.876508  0.001  0.39487  -0.000502  0.936216  0.0  0.405721  -0.00032  0.920984  0.0  0.295832  0.386889  -0.000634  0.947389  0.0
H  H20  1  0.29987765  0.35967385  0.78786560  1  0.412214  0.000122  0.897988  0.001  0.384586  -0.000466  0.957927  0.0  0.395509  -0.000271  0.94261  0.0  0.291826  0.376658  -0.000615  0.96897  0.0
H  H21  1  0.20013306  0.14034296  0.28788422  1  0.412352  -0.000123  0.897786  -0.001  0.384741  0.000465  0.957703  0.0  0.395666  0.000271  0.942379  0.0  0.291899  0.376815  0.000614  0.968744  0.0
H  H22  1  0.70013116  0.64034229  0.21210457  1  0.412255  -0.000122  0.897906  -0.001  0.384638  0.000466  0.957815  0.0  0.395567  0.000271  0.942484  0.0  0.291883  0.376711  0.000615  0.968859  0.0
H  H23  1  0.79988508  0.85965917  0.71211559  1  0.412271  0.000122  0.89793  0.001  0.384644  -0.000466  0.95787  0.0  0.395571  -0.000271  0.942543  0.0  0.291872  0.376725  -0.000615  0.968904  0.0
H  H24  1  0.05473568  0.57489350  0.70844151  1  0.395563  8e-05  0.916851  0.0  0.363044  8.8e-05  0.985311  0.0  0.374765  9.4e-05  0.96777  0.0  0.277628  0.354963  6.3e-05  0.997268  0.0
H  H25  1  0.44526963  0.92513672  0.20844860  1  0.395563  -8e-05  0.916826  0.0  0.363026  -8.8e-05  0.985314  0.0  0.37475  -9.4e-05  0.967769  0.0  0.277621  0.35495  -6.3e-05  0.997266  0.0
H  H26  1  0.94526590  0.42512237  0.29155829  1  0.395516  -7.9e-05  0.916902  0.0  0.363013  -8.8e-05  0.985359  0.0  0.374739  -9.4e-05  0.96781  0.0  0.277604  0.354925  -6.3e-05  0.997323  0.0
H  H27  1  0.55474109  0.07489178  0.79155699  1  0.395485  7.9e-05  0.916929  0.0  0.362965  8.8e-05  0.9854  0.0  0.374688  9.4e-05  0.967854  0.0  0.277553  0.354878  6.3e-05  0.997363  0.0
H  H28  1  0.25343452  0.53747987  0.67725841  1  0.411977  7.4e-05  0.864103  0.0  0.389256  0.00015  0.925374  0.0  0.400186  0.000133  0.908705  0.0  0.29469  0.381577  0.000149  0.936935  0.0
H  H29  1  0.24656847  0.96256071  0.17726545  1  0.412016  -7.3e-05  0.864052  0.0  0.389316  -0.00015  0.925281  0.0  0.400243  -0.000133  0.908618  0.0  0.294758  0.381642  -0.000149  0.936836  0.0
H  H30  1  0.74659289  0.46255438  0.32275369  1  0.412152  -7.2e-05  0.864022  0.0  0.389448  -0.00015  0.925144  0.0  0.400373  -0.000133  0.908482  0.0  0.294816  0.381777  -0.000149  0.936692  0.0
H  H31  1  0.75340708  0.03746343  0.82277122  1  0.412145  7.2e-05  0.864126  0.0  0.389434  0.00015  0.925176  0.0  0.40036  0.000133  0.908513  0.0  0.294807  0.38176  0.000149  0.936729  0.0
H  H32  1  0.62726849  0.41034308  0.71780747  1  0.428271  -8.8e-05  0.854962  0.001  0.403786  -0.000677  0.914145  -0.001  0.414572  -0.00047  0.898923  0.0  0.301589  0.395731  -0.000821  0.925503  -0.001
H  H33  1  0.87274850  0.08967393  0.21782326  1  0.42834  8.8e-05  0.854915  -0.001  0.403789  0.000677  0.914187  0.001  0.414574  0.00047  0.898964  0.0  0.30155  0.395735  0.000821  0.925544  0.001
H  H34  1  0.37276280  0.58966979  0.28217210  1  0.42832  9e-05  0.854893  -0.001  0.403897  0.000679  0.914026  0.001  0.414683  0.000472  0.898802  0.0  0.301588  0.395836  0.000823  0.925401  0.001
H  H35  1  0.12725567  0.91033076  0.78217583  1  0.428336  -8.9e-05  0.854951  0.001  0.403836  -0.000678  0.914132  -0.001  0.414623  -0.000471  0.898907  0.0  0.301579  0.395781  -0.000822  0.925498  -0.001
H  H36  1  0.60010260  0.26531344  0.66652133  1  0.427174  2e-06  0.86923  0.001  0.39917  -0.000495  0.928057  0.0  0.410737  -0.000284  0.911479  0.0  0.299584  0.390786  -0.000659  0.940005  0.0
H  H37  1  0.89991703  0.23469783  0.16653118  1  0.42684  -1e-06  0.869709  -0.001  0.398906  0.000496  0.928407  0.0  0.410475  0.000285  0.911831  0.0  0.29948  0.390525  0.00066  0.940341  0.0
H  H38  1  0.39991650  0.73469488  0.33346764  1  0.426885  -1e-06  0.869606  -0.001  0.398923  0.000496  0.928352  0.0  0.410489  0.000284  0.911778  0.0  0.299509  0.390554  0.00066  0.940278  0.0
H  H39  1  0.10008521  0.76530372  0.83347224  1  0.426907  0.0  0.8696  0.001  0.398981  -0.000496  0.928282  0.0  0.410548  -0.000285  0.911707  0.0  0.299549  0.390616  -0.000661  0.9402  0.0
C  C40  1  0.98718431  0.06605248  0.63224262  1  0.658981  0.003712  3.826715  0.007  0.61341  -0.000482  4.140298  0.002  0.649637  -3.4e-05  4.134295  0.001  0.21521  0.588552  -0.000999  4.14171  0.002
C  C41  1  0.51280112  0.43393929  0.13222854  1  0.659368  -0.003704  3.826832  -0.007  0.613734  0.000481  4.140491  -0.002  0.64997  3.4e-05  4.134466  -0.001  0.215308  0.588871  0.000998  4.141889  -0.002
C  C42  1  0.01280040  0.93396584  0.36777092  1  0.659234  -0.003724  3.825331  -0.007  0.613693  0.000482  4.138948  -0.002  0.649938  3.5e-05  4.13293  -0.001  0.215415  0.588832  0.000998  4.14037  -0.002
C  C43  1  0.48721802  0.56603214  0.86775826  1  0.659353  0.003719  3.824969  0.007  0.613667  -0.00048  4.138762  0.002  0.649909  -3.4e-05  4.132742  0.001  0.215507  0.588804  -0.000997  4.140187  0.002
C  C44  1  0.05319307  0.98675061  0.54672389  1  -0.100986  -0.009672  3.604543  -0.011  -0.110515  -0.004963  3.84527  -0.006  -0.115626  -0.003203  3.858431  -0.004  -0.080414  -0.107139  -0.006384  3.837049  -0.007
C  C45  1  0.44683797  0.51323748  0.04671280  1  -0.100786  0.009644  3.603978  0.011  -0.110409  0.004957  3.844635  0.006  -0.115499  0.0032  3.857786  0.004  -0.080437  -0.107044  0.006376  3.83642  0.007
C  C46  1  0.94681591  0.01325733  0.45328892  1  -0.101116  0.009643  3.605219  0.011  -0.110816  0.004953  3.846057  0.006  -0.11595  0.003198  3.85922  0.004  -0.080466  -0.107449  0.00637  3.837837  0.007
C  C47  1  0.55318713  0.48672598  0.95328990  1  -0.101059  -0.009637  3.60625  -0.011  -0.110571  -0.004955  3.847022  -0.006  -0.115676  -0.003201  3.860165  -0.004  -0.080405  -0.107206  -0.006372  3.838801  -0.007
C  C48  1  0.27503530  0.03207977  0.53432026  1  -0.281345  -0.009199  3.615644  -0.01  -0.326913  -0.005197  3.86718  -0.006  -0.333087  -0.003325  3.874758  -0.004  -0.159594  -0.322788  -0.006754  3.862528  -0.007
C  C49  1  0.22493316  0.46791242  0.03432134  1  -0.281784  0.009223  3.614801  0.01  -0.327153  0.005201  3.866101  0.006  -0.333324  0.003326  3.873644  0.004  -0.1596  -0.323017  0.006759  3.861447  0.007
C  C50  1  0.72500390  0.96790982  0.46568894  1  -0.281245  0.009232  3.615714  0.01  -0.326544  0.005206  3.866839  0.006  -0.332697  0.003329  3.874448  0.004  -0.159522  -0.322437  0.006766  3.862213  0.007
C  C51  1  0.77491896  0.53205695  0.96570448  1  -0.280738  -0.009258  3.615213  -0.01  -0.326459  -0.005218  3.866828  -0.006  -0.332647  -0.003335  3.874496  -0.004  -0.159587  -0.322361  -0.006782  3.862188  -0.007
C  C52  1  0.37720832  0.01303511  0.62876048  1  0.710942  0.004443  3.822262  0.008  0.664595  4.5e-05  4.136283  0.002  0.701296  0.000411  4.129866  0.002  0.219891  0.639184  -0.000371  4.138755  0.002
C  C53  1  0.12277441  0.48696421  0.12876659  1  0.710773  -0.004443  3.822621  -0.008  0.664493  -4.6e-05  4.136475  -0.002  0.701189  -0.000411  4.130075  -0.002  0.219766  0.639083  0.000371  4.138948  -0.002
C  C54  1  0.62283438  0.98697715  0.37123354  1  0.710557  -0.004439  3.822875  -0.008  0.664265  -4.3e-05  4.136713  -0.002  0.700924  -0.000407  4.130325  -0.002  0.219714  0.63888  0.000376  4.139169  -0.002
C  C55  1  0.87719670  0.51301263  0.87122671  1  0.710218  0.004448  3.822229  0.008  0.664055  4.5e-05  4.136104  0.002  0.700718  0.000411  4.129743  0.002  0.219871  0.638675  -0.000373  4.13855  0.002
O  O56  1  0.97424233  0.19219628  0.61639801  1  -0.565847  -0.085237  2.036336  -0.114  -0.543826  -0.048036  2.313973  -0.07  -0.585387  -0.035325  2.304433  -0.055  -0.30852  -0.511462  -0.056723  2.320438  -0.08
O  O57  1  0.52571684  0.30778233  0.11639564  1  -0.56601  0.085278  2.03623  0.114  -0.543956  0.048055  2.313885  0.07  -0.585523  0.035339  2.304335  0.055  -0.308607  -0.511555  0.056748  2.320361  0.08
O  O58  1  0.02577842  0.80777624  0.38360541  1  -0.566184  0.085294  2.035457  0.114  -0.544064  0.048052  2.313024  0.07  -0.585645  0.03534  2.303488  0.055  -0.308665  -0.51168  0.056739  2.31952  0.08
O  O59  1  0.47424556  0.69223107  0.88360200  1  -0.56635  -0.085321  2.03524  -0.114  -0.54427  -0.048069  2.312946  -0.07  -0.585862  -0.035349  2.303411  -0.055  -0.308765  -0.511882  -0.05676  2.31945  -0.08
O  O60  1  0.95887491  0.00651218  0.71407838  1  -0.665534  -0.002314  2.015313  -0.004  -0.609885  -0.000978  2.238689  -0.002  -0.636614  -3.3e-05  2.225382  -0.001  -0.312747  -0.590063  -0.00207  2.24637  -0.004
O  O61  1  0.54116693  0.49346068  0.21406085  1  -0.665659  0.002303  2.015527  0.004  -0.610144  0.000975  2.239115  0.002  -0.636859  3e-05  2.225764  0.001  -0.312806  -0.59031  0.002066  2.246786  0.004
O  O62  1  0.04115062  0.99349125  0.28591492  1  -0.665521  0.002308  2.014632  0.004  -0.610034  0.000973  2.23816  0.002  -0.636757  2.9e-05  2.224833  0.001  -0.312824  -0.590205  0.002064  2.245845  0.004
O  O63  1  0.45886600  0.50653483  0.78590716  1  -0.665483  -0.0023  2.014854  -0.004  -0.60986  -0.000972  2.238361  -0.002  -0.636571  -2.7e-05  2.225028  -0.001  -0.312858  -0.590038  -0.002061  2.246039  -0.004
O  O64  1  0.43043092  0.11687497  0.68392098  1  -0.676195  -0.001973  2.029274  -0.004  -0.606424  -0.000972  2.24107  -0.002  -0.63499  -0.000146  2.229498  -0.001  -0.310564  -0.586116  -0.001946  2.248405  -0.003
O  O65  1  0.06956745  0.38311845  0.18392371  1  -0.675882  0.001975  2.0293  0.004  -0.606269  0.000973  2.241124  0.002  -0.634842  0.000146  2.229559  0.001  -0.310393  -0.585959  0.001947  2.248457  0.003
O  O66  1  0.56957483  0.88314925  0.31608533  1  -0.676039  0.00198  2.029543  0.004  -0.606295  0.000976  2.241264  0.002  -0.634849  0.000148  2.229709  0.001  -0.310518  -0.585998  0.00195  2.248597  0.003
O  O67  1  0.93042501  0.61687557  0.81608332  1  -0.675915  -0.001989  2.029461  -0.004  -0.606265  -0.000977  2.241206  -0.002  -0.634817  -0.000149  2.229651  -0.001  -0.31061  -0.58597  -0.001953  2.248532  -0.003
O  O68  1  0.39524325  0.88934446  0.64902243  1  -0.591309  -0.087719  2.052304  -0.117  -0.572576  -0.051095  2.340172  -0.075  -0.614533  -0.037258  2.328841  -0.058  -0.316862  -0.54002  -0.060863  2.348391  -0.086
O  O69  1  0.10476340  0.61065236  0.14901705  1  -0.591217  0.087732  2.052581  0.117  -0.572518  0.051103  2.340401  0.075  -0.614471  0.037263  2.329071  0.058  -0.316789  -0.539959  0.06087  2.348617  0.086
O  O70  1  0.60477958  0.11063223  0.35098243  1  -0.591171  0.087705  2.05313  0.117  -0.572484  0.051085  2.340957  0.075  -0.614423  0.037251  2.329637  0.058  -0.316825  -0.539913  0.060844  2.349161  0.086
O  O71  1  0.89522759  0.38935083  0.85098131  1  -0.591091  -0.087704  2.053482  -0.117  -0.572348  -0.05109  2.341258  -0.075  -0.614287  -0.037258  2.329945  -0.058  -0.31676  -0.539813  -0.060845  2.349445  -0.086
O  O72  1  0.20320368  0.27258123  0.78340061  1  -0.793833  -0.066663  1.933378  -0.087  -0.764516  -0.047972  2.13132  -0.068  -0.796478  -0.036901  2.096703  -0.055  -0.579446  -0.739469  -0.055187  2.158024  -0.074
O  O73  1  0.29680468  0.22743860  0.28342230  1  -0.794051  0.06667  1.933146  0.087  -0.764792  0.047971  2.130847  0.068  -0.796755  0.036897  2.096228  0.055  -0.579552  -0.739738  0.055189  2.157624  0.074
O  O74  1  0.79680560  0.72743800  0.21658691  1  -0.793848  0.066663  1.933405  0.087  -0.764484  0.047968  2.131443  0.068  -0.796444  0.036897  2.096813  0.055  -0.579447  -0.739433  0.055179  2.158181  0.074
O  O75  1  0.70319770  0.77257320  0.71658907  1  -0.79391  -0.066661  1.933321  -0.087  -0.764625  -0.047969  2.131262  -0.068  -0.796588  -0.036899  2.096646  -0.055  -0.579491  -0.739556  -0.055181  2.157954  -0.074
O  O76  1  0.11551167  0.52152521  0.65980761  1  -0.818694  0.001435  1.811163  0.001  -0.777922  0.001405  1.963749  0.001  -0.794428  0.001516  1.92696  0.001  -0.600589  -0.762789  0.001141  1.991314  0.001
O  O77  1  0.38449349  0.97850939  0.15981013  1  -0.818709  -0.001434  1.811156  -0.001  -0.777939  -0.001405  1.963772  -0.001  -0.794442  -0.001516  1.926984  -0.001  -0.600622  -0.762773  -0.001141  1.991343  -0.001
O  O78  1  0.88450452  0.47849222  0.34019653  1  -0.818817  -0.001435  1.811246  -0.001  -0.778078  -0.001406  1.963676  -0.001  -0.794581  -0.001516  1.926884  -0.001  -0.600691  -0.762934  -0.00114  1.991247  -0.001
O  O79  1  0.61549154  0.02151099  0.84019401  1  -0.818764  0.001435  1.811417  0.001  -0.778021  0.001406  1.963843  0.001  -0.794523  0.001517  1.927054  0.001  -0.600623  -0.762871  0.00114  1.991422  0.001
O  O80  1  0.69424232  0.35192835  0.67522535  1  -0.781011  -0.059097  1.89405  -0.077  -0.74494  -0.04386  2.079596  -0.062  -0.775338  -0.034051  2.043391  -0.051  -0.569898  -0.720907  -0.050298  2.107923  -0.067
O  O81  1  0.80578489  0.14808623  0.17523287  1  -0.780817  0.059093  1.894227  0.077  -0.744705  0.043854  2.079766  0.062  -0.775105  0.034044  2.043562  0.051  -0.569788  -0.720634  0.050289  2.108104  0.067
O  O82  1  0.30577517  0.64807889  0.32475421  1  -0.780817  0.05908  1.894197  0.077  -0.744827  0.043849  2.079589  0.062  -0.775223  0.03404  2.043396  0.051  -0.569812  -0.720768  0.050284  2.107908  0.067
O  O83  1  0.19422956  0.85191065  0.82476116  1  -0.78086  -0.059085  1.894236  -0.077  -0.744831  -0.043852  2.079666  -0.062  -0.775225  -0.034043  2.043463  -0.051  -0.569851  -0.720771  -0.050285  2.107985  -0.067
