# generated using pymatgen
data_ZnH4C8INO4
_symmetry_space_group_name_H-M   'P 1'
_cell_length_a   7.36906161
_cell_length_b   9.11044744
_cell_length_c   13.29781752
_cell_angle_alpha   93.51579477
_cell_angle_beta   102.70244252
_cell_angle_gamma   80.33133345
_symmetry_Int_Tables_number   1
_chemical_formula_structural   ZnH4C8INO4
_chemical_formula_sum   'Zn2 H8 C16 I2 N2 O8'
_cell_volume   858.25787304
_cell_formula_units_Z   2
loop_
 _symmetry_equiv_pos_site_id
 _symmetry_equiv_pos_as_xyz
  1  'x, y, z'
loop_
 _atom_site_type_symbol
 _atom_site_label
 _atom_site_symmetry_multiplicity
 _atom_site_fract_x
 _atom_site_fract_y
 _atom_site_fract_z
 _atom_site_occupancy
 _atom_site_pbe_bader_charge
 _atom_site_pbe_bader_spin_density
 _atom_site_pbe_cm5_charge
 _atom_site_pbe_ddec_charge
 _atom_site_pbe_ddec_spin_density
 _atom_site_pbe_ddec_sum_bond_order
 _atom_site_pbe_magmom
Zn  Zn0  1  0.30029325  0.52404758  0.48043128  1  1.291006  0  0.672097  0.832307  0  2.383809  0
Zn  Zn1  1  0.69227015  0.41833971  0.51954712  1  1.290643  0  0.672512  0.833736  0  2.384387  0
H  H2  1  0.18461693  0.39913558  0.15998989  1  0.100834  0  0.096772  0.101075  0  1.033376  0
H  H3  1  0.80523803  0.53779978  0.83989829  1  0.100329  0  0.096911  0.101012  0  1.033005  0
H  H4  1  0.84380996  0.56241004  0.02834112  1  0.086187  0  0.089612  0.096142  0  1.062346  0
H  H5  1  0.14638274  0.37278701  0.97152089  1  0.083511  0  0.089708  0.09639  0  1.061255  0
H  H6  1  0.08441427  0.32573105  0.51853122  1  0.491662  0  0.312693  0.265938  0  0.961104  0
H  H7  1  0.90814647  0.61590113  0.48153204  1  0.482636  0  0.312456  0.265498  0  0.96255  0
H  H8  1  0.71380866  0.92756070  0.52166915  1  0.123076  0  0.113637  0.134871  0  0.979495  0
H  H9  1  0.28157709  0.01398205  0.47804525  1  0.143603  0  0.112857  0.133339  0  0.980993  0
C  C10  1  0.52849013  0.75679969  0.50576011  1  1.534128  0  0.216639  0.638768  0  4.155063  0
C  C11  1  0.29396038  0.42321049  0.12295499  1  0.014699  0  -0.085764  -0.077587  0  3.980704  0
C  C12  1  0.39435337  0.43255758  0.85860858  1  -0.281263  0  -0.035709  -0.010236  0  3.809384  0
C  C13  1  0.59526431  0.50451528  0.14100663  1  -0.272203  0  -0.03519  -0.00907  0  3.808374  0
C  C14  1  0.41185711  0.44324649  0.96819498  1  0.055094  0  -0.005071  0.059321  0  3.96117  0
C  C15  1  0.57769625  0.49303002  0.03139409  1  0.046686  0  -0.005857  0.058566  0  3.9625  0
C  C16  1  0.56673499  0.91198031  0.50725886  1  -0.053394  0  -0.075426  -0.167519  0  3.880344  0
C  C17  1  0.42863829  0.02968095  0.49189818  1  -0.035639  0  -0.075277  -0.167304  0  3.879869  0
C  C18  1  0.46699730  0.18495723  0.49397137  1  1.553277  0  0.21649  0.639728  0  4.153237  0
C  C19  1  0.52328595  0.46873129  0.69867519  1  1.575946  0  0.216927  0.609891  0  4.151359  0
C  C20  1  0.46506926  0.47205293  0.30092789  1  1.575761  0  0.216434  0.608896  0  4.152672  0
C  C21  1  0.45680041  0.46902905  0.18698927  1  0.032458  0  -0.018335  -0.051196  0  3.956299  0
C  C22  1  0.53240813  0.46898050  0.81267219  1  0.029601  0  -0.018558  -0.052149  0  3.958099  0
C  C23  1  0.71716929  0.52636801  0.98185462  1  -0.072336  0  -0.099689  -0.132677  0  4.00079  0
C  C24  1  0.27267561  0.40956115  0.01788665  1  -0.07716  0  -0.098649  -0.131198  0  3.998106  0
C  C25  1  0.69578289  0.51364393  0.87678078  1  0.032543  0  -0.085183  -0.075644  0  3.982121  0
I  I26  1  0.83730038  0.58448228  0.22961687  1  0.166531  0  0.125708  0.029555  0  1.634683  0
I  I27  1  0.15234676  0.35302237  0.76945746  1  0.164082  0  0.126477  0.030038  0  1.627477  0
N  N28  1  0.97260474  0.41420338  0.51395794  1  -0.431492  0  -0.262969  -0.139343  0  3.222431  0
N  N29  1  0.02007372  0.52745157  0.48587089  1  -0.450023  0  -0.26151  -0.136624  0  3.221017  0
O  O30  1  0.35843990  0.73547771  0.49125990  1  -1.143653  0  -0.314483  -0.522917  0  2.268602  0
O  O31  1  0.63700583  0.20586865  0.50719900  1  -1.149993  0  -0.313253  -0.521846  0  2.266665  0
O  O32  1  0.67316200  0.65427003  0.51955646  1  -1.175847  0  -0.315184  -0.577236  0  2.329945  0
O  O33  1  0.32270781  0.28785625  0.48208349  1  -1.189696  0  -0.315956  -0.579558  0  2.33019  0
O  O34  1  0.36663403  0.51626050  0.64003266  1  -1.165528  0  -0.316912  -0.554216  0  2.389021  0
O  O35  1  0.62225336  0.42811291  0.36028255  1  -1.166526  0  -0.315944  -0.554408  0  2.399817  0
O  O36  1  0.67866045  0.42527053  0.67021400  1  -1.155558  0  -0.316379  -0.537604  0  2.34517  0
O  O37  1  0.30917867  0.51475765  0.32897601  1  -1.153984  0  -0.316631  -0.536736  0  2.343094  0
