# generated using pymatgen
data_HgH14C14I2(N2O)2
_symmetry_space_group_name_H-M   'P 1'
_cell_length_a   5.09567167
_cell_length_b   8.62500131
_cell_length_c   20.96588660
_cell_angle_alpha   99.32322850
_cell_angle_beta   90.00004648
_cell_angle_gamma   90.00000022
_symmetry_Int_Tables_number   1
_chemical_formula_structural   HgH14C14I2(N2O)2
_chemical_formula_sum   'Hg2 H28 C28 I4 N8 O4'
_cell_volume   909.28207856
_cell_formula_units_Z   2
loop_
 _symmetry_equiv_pos_site_id
 _symmetry_equiv_pos_as_xyz
  1  'x, y, z'
loop_
 _atom_site_type_symbol
 _atom_site_label
 _atom_site_symmetry_multiplicity
 _atom_site_fract_x
 _atom_site_fract_y
 _atom_site_fract_z
 _atom_site_occupancy
 _atom_site_hle17_bader_spin_density
 _atom_site_hle17_ddec_charge
 _atom_site_hle17_ddec_spin_density
 _atom_site_hle17_ddec_sum_bond_order
 _atom_site_hle17_magmom
 _atom_site_hse06_10hf_bader_spin_density
 _atom_site_hse06_10hf_ddec_charge
 _atom_site_hse06_10hf_ddec_spin_density
 _atom_site_hse06_10hf_ddec_sum_bond_order
 _atom_site_hse06_10hf_magmom
 _atom_site_hse06_bader_spin_density
 _atom_site_hse06_ddec_charge
 _atom_site_hse06_ddec_spin_density
 _atom_site_hse06_ddec_sum_bond_order
 _atom_site_hse06_magmom
 _atom_site_pbe_bader_spin_density
 _atom_site_pbe_cm5_charge
 _atom_site_pbe_ddec_charge
 _atom_site_pbe_ddec_spin_density
 _atom_site_pbe_ddec_sum_bond_order
 _atom_site_pbe_magmom
Hg  Hg0  1  0.01423294  0.75000016  0.75000012  1  0  0.561931  0  2.116395  0  0  0.424983  0  2.602319  0  0  0.469955  0  2.578173  0  0  0.400428  0.395124  0  2.618065  0
Hg  Hg1  1  0.98576644  0.24999970  0.24999995  1  0  0.561915  0  2.11643  0  0  0.424961  0  2.602362  0  0  0.469933  0  2.578217  0  0  0.400422  0.395102  0  2.618108  0
H  H2  1  0.35882893  0.13032641  0.51954877  1  0  0.313384  0  0.912004  0  0  0.291571  0  0.982761  0  0  0.300133  0  0.975534  0  0  0.309472  0.285515  0  0.987878  0
H  H3  1  0.35882970  0.36967439  0.98045150  1  0  0.313377  0  0.912012  0  0  0.291564  0  0.982771  0  0  0.300126  0  0.975544  0  0  0.309466  0.285509  0  0.987888  0
H  H4  1  0.64117045  0.86967462  0.48045138  1  0  0.313378  0  0.912009  0  0  0.291564  0  0.982768  0  0  0.300126  0  0.975541  0  0  0.309473  0.285508  0  0.987885  0
H  H5  1  0.64117164  0.63032547  0.01954857  1  0  0.313389  0  0.912006  0  0  0.291569  0  0.982765  0  0  0.300131  0  0.975538  0  0  0.309466  0.285513  0  0.987882  0
H  H6  1  0.65780245  0.78184154  0.62420465  1  0  0.067271  0  0.97553  0  0  0.0707  0  1.049794  0  0  0.073815  0  1.046634  0  0  0.093463  0.068381  0  1.052191  0
H  H7  1  0.65780483  0.71815883  0.87579572  1  0  0.067279  0  0.975548  0  0  0.070697  0  1.049811  0  0  0.073811  0  1.046654  0  0  0.093453  0.068378  0  1.052208  0
H  H8  1  0.34219693  0.21815832  0.37579542  1  0  0.067271  0  0.975543  0  0  0.070696  0  1.049815  0  0  0.073811  0  1.046655  0  0  0.09346  0.068377  0  1.052212  0
H  H9  1  0.34219651  0.28184220  0.12420491  1  0  0.067272  0  0.975539  0  0  0.070697  0  1.049812  0  0  0.073812  0  1.046652  0  0  0.093464  0.068378  0  1.052209  0
H  H10  1  0.33435134  0.64563505  0.54583122  1  0  0.11449  0  0.966506  0  0  0.123613  0  1.029258  0  0  0.127168  0  1.028229  0  0  0.102774  0.120993  0  1.030217  0
H  H11  1  0.33435398  0.85436528  0.95416956  1  0  0.114476  0  0.966502  0  0  0.12359  0  1.029265  0  0  0.127153  0  1.028225  0  0  0.102771  0.12097  0  1.030226  0
H  H12  1  0.66564608  0.35436480  0.45416933  1  0  0.114506  0  0.966491  0  0  0.12364  0  1.029229  0  0  0.127193  0  1.028199  0  0  0.102795  0.121019  0  1.03019  0
H  H13  1  0.66564736  0.14563575  0.04583107  1  0  0.114486  0  0.966503  0  0  0.123599  0  1.029268  0  0  0.127162  0  1.028229  0  0  0.102772  0.120979  0  1.030229  0
H  H14  1  0.41676654  0.23783811  0.64111087  1  0  0.112707  0  0.972189  0  0  0.122655  0  1.034274  0  0  0.126307  0  1.032681  0  0  0.094508  0.120057  0  1.035581  0
H  H15  1  0.41676690  0.26216152  0.85888933  1  0  0.112718  0  0.972187  0  0  0.122665  0  1.034269  0  0  0.126315  0  1.032677  0  0  0.094513  0.120067  0  1.035577  0
H  H16  1  0.58323480  0.76216175  0.35888920  1  0  0.112708  0  0.972182  0  0  0.122656  0  1.034264  0  0  0.126307  0  1.032673  0  0  0.094514  0.120058  0  1.035572  0
H  H17  1  0.58323444  0.73783716  0.14111066  1  0  0.112674  0  0.972208  0  0  0.122659  0  1.03424  0  0  0.126311  0  1.032649  0  0  0.094515  0.120062  0  1.035548  0
H  H18  1  0.73215198  0.39471531  0.71666603  1  0  0.068732  0  0.971921  0  0  0.073711  0  1.044097  0  0  0.07684  0  1.040781  0  0  0.09612  0.07144  0  1.04649  0
H  H19  1  0.73214816  0.10528434  0.78333376  1  0  0.068742  0  0.971941  0  0  0.073715  0  1.04412  0  0  0.076844  0  1.040803  0  0  0.09611  0.071443  0  1.046513  0
H  H20  1  0.26785133  0.60528455  0.28333356  1  0  0.068714  0  0.971953  0  0  0.073689  0  1.044136  0  0  0.076818  0  1.040819  0  0  0.096104  0.071417  0  1.046529  0
H  H21  1  0.26784925  0.89471434  0.21666623  1  0  0.068732  0  0.971942  0  0  0.073703  0  1.044127  0  0  0.076833  0  1.04081  0  0  0.096104  0.071433  0  1.04652  0
H  H22  1  0.94748545  0.37112421  0.56187266  1  0  0.086123  0  0.933902  0  0  0.101025  0  0.99821  0  0  0.101504  0  0.998681  0  0  0.114875  0.10064  0  0.997964  0
H  H23  1  0.94748804  0.12887546  0.93812765  1  0  0.086081  0  0.934012  0  0  0.100997  0  0.998312  0  0  0.101476  0  0.998784  0  0  0.11487  0.100607  0  0.998072  0
H  H24  1  0.05251196  0.62887564  0.43812741  1  0  0.086086  0  0.933988  0  0  0.100989  0  0.998282  0  0  0.101467  0  0.998753  0  0  0.114836  0.100593  0  0.998047  0
H  H25  1  0.05251330  0.87112440  0.06187242  1  0  0.086059  0  0.933994  0  0  0.100984  0  0.998292  0  0  0.101462  0  0.998763  0  0  0.114852  0.100601  0  0.998044  0
H  H26  1  0.14988882  0.39986249  0.49620264  1  0  0.061932  0  0.946175  0  0  0.078721  0  1.012136  0  0  0.078211  0  1.013255  0  0  0.105085  0.079043  0  1.011441  0
H  H27  1  0.14988800  0.10013801  0.00379765  1  0  0.061952  0  0.946111  0  0  0.078725  0  1.012115  0  0  0.078217  0  1.013233  0  0  0.105088  0.079047  0  1.01142  0
H  H28  1  0.85011056  0.60013736  0.50379743  1  0  0.061923  0  0.946202  0  0  0.078699  0  1.012173  0  0  0.07819  0  1.013291  0  0  0.105077  0.079021  0  1.011476  0
H  H29  1  0.85011138  0.89986184  0.99620242  1  0  0.061947  0  0.946163  0  0  0.078724  0  1.012166  0  0  0.078215  0  1.013283  0  0  0.105103  0.079046  0  1.011472  0
C  C30  1  0.59728443  0.66133783  0.62632545  1  0  0.116788  0  3.76621  0  0  0.089045  0  4.017978  0  0  0.096294  0  4.036265  0  0  0.030257  0.084387  0  4.005512  0
C  C31  1  0.59728484  0.83866370  0.87367498  1  0  0.11671  0  3.766279  0  0  0.088979  0  4.018046  0  0  0.096229  0  4.036336  0  0  0.030229  0.084322  0  4.005585  0
C  C32  1  0.40271692  0.33866203  0.37367462  1  0  0.116754  0  3.766176  0  0  0.08901  0  4.017944  0  0  0.096259  0  4.036231  0  0  0.030247  0.084353  0  4.005477  0
C  C33  1  0.40271847  0.16133733  0.12632517  1  0  0.116773  0  3.766203  0  0  0.08903  0  4.017966  0  0  0.096279  0  4.036257  0  0  0.030244  0.084374  0  4.0055  0
C  C34  1  0.41711968  0.58371178  0.58258986  1  0  -0.182109  0  3.721833  0  0  -0.199271  0  3.968579  0  0  -0.207712  0  3.99008  0  0  -0.094758  -0.19379  0  3.954218  0
C  C35  1  0.41712220  0.91628856  0.91741045  1  0  -0.182088  0  3.721886  0  0  -0.19923  0  3.968619  0  0  -0.207675  0  3.990111  0  0  -0.094759  -0.19375  0  3.954262  0
C  C36  1  0.58287970  0.41628807  0.41741069  1  0  -0.182112  0  3.721811  0  0  -0.199287  0  3.968578  0  0  -0.207722  0  3.990073  0  0  -0.094788  -0.193806  0  3.954217  0
C  C37  1  0.58287914  0.08371130  0.08258962  1  0  -0.18215  0  3.721881  0  0  -0.1993  0  3.968622  0  0  -0.207746  0  3.990115  0  0  -0.094765  -0.19382  0  3.954264  0
C  C38  1  0.34662653  0.42892642  0.58687515  1  0  0.125378  0  3.711982  0  0  0.141077  0  3.951739  0  0  0.145742  0  3.972719  0  0  0.009898  0.138145  0  3.937448  0
C  C39  1  0.34662707  0.07107321  0.91312503  1  0  0.125406  0  3.711999  0  0  0.141101  0  3.951784  0  0  0.145768  0  3.972768  0  0  0.009898  0.138169  0  3.937497  0
C  C40  1  0.65337285  0.57107462  0.41312499  1  0  0.125381  0  3.712  0  0  0.141067  0  3.951765  0  0  0.145732  0  3.972746  0  0  0.009908  0.138135  0  3.937472  0
C  C41  1  0.65337231  0.92892548  0.08687496  1  0  0.125383  0  3.711921  0  0  0.141089  0  3.9517  0  0  0.145754  0  3.972681  0  0  0.009879  0.138156  0  3.937414  0
C  C42  1  0.46215799  0.35846515  0.63551170  1  0  -0.157051  0  3.695786  0  0  -0.175426  0  3.939889  0  0  -0.182836  0  3.959674  0  0  -0.089358  -0.170727  0  3.926676  0
C  C43  1  0.46215838  0.14153566  0.86448859  1  0  -0.157052  0  3.695784  0  0  -0.175417  0  3.939881  0  0  -0.182828  0  3.959665  0  0  -0.089365  -0.170718  0  3.926672  0
C  C44  1  0.53784138  0.64153471  0.36448837  1  0  -0.157035  0  3.6958  0  0  -0.175403  0  3.939898  0  0  -0.182814  0  3.959685  0  0  -0.089363  -0.170704  0  3.926684  0
C  C45  1  0.53784100  0.85846420  0.13551148  1  0  -0.156992  0  3.695746  0  0  -0.175384  0  3.939822  0  0  -0.182796  0  3.959606  0  0  -0.089342  -0.170685  0  3.926612  0
C  C46  1  0.63913375  0.44482107  0.67768755  1  0  0.120335  0  3.741537  0  0  0.091519  0  3.993812  0  0  0.098796  0  4.012239  0  0  0.036976  0.086836  0  3.981252  0
C  C47  1  0.63913203  0.05517857  0.82231270  1  0  0.120242  0  3.741658  0  0  0.091429  0  3.993931  0  0  0.098706  0  4.012359  0  0  0.036958  0.086747  0  3.981373  0
C  C48  1  0.36086563  0.55517879  0.32231252  1  0  0.120298  0  3.741634  0  0  0.09148  0  3.99391  0  0  0.098756  0  4.012339  0  0  0.036966  0.086797  0  3.98135  0
C  C49  1  0.36086735  0.94482128  0.17768737  1  0  0.120244  0  3.741671  0  0  0.091427  0  3.993955  0  0  0.098704  0  4.012383  0  0  0.036965  0.086744  0  3.981396  0
C  C50  1  0.14475709  0.34805514  0.54084520  1  0  0.017634  0  3.670439  0  0  -0.043774  0  3.917595  0  0  -0.038667  0  3.927174  0  0  -0.048587  -0.047185  0  3.910972  0
C  C51  1  0.14475975  0.15194564  0.95915503  1  0  0.01763  0  3.670517  0  0  -0.043795  0  3.917702  0  0  -0.038695  0  3.927293  0  0  -0.048575  -0.0472  0  3.911082  0
C  C52  1  0.85524033  0.65194589  0.45915543  1  0  0.017641  0  3.670594  0  0  -0.04373  0  3.917674  0  0  -0.038623  0  3.927252  0  0  -0.048544  -0.047133  0  3.911052  0
C  C53  1  0.85524159  0.84805539  0.04084464  1  0  0.017706  0  3.670415  0  0  -0.04376  0  3.917622  0  0  -0.038654  0  3.927203  0  0  -0.048583  -0.04717  0  3.911002  0
C  C54  1  0.96520629  0.08716525  0.50948780  1  0  0.443326  0  3.875485  0  0  0.397479  0  4.169  0  0  0.423352  0  4.16649  0  0  0.237355  0.380067  0  4.170109  0
C  C55  1  0.96520513  0.41283442  0.99051203  1  0  0.443327  0  3.875482  0  0  0.397469  0  4.169015  0  0  0.423343  0  4.166504  0  0  0.237337  0.380058  0  4.170125  0
C  C56  1  0.03479309  0.91283343  0.49051219  1  0  0.443207  0  3.875686  0  0  0.397472  0  4.169085  0  0  0.423347  0  4.166574  0  0  0.23735  0.380061  0  4.170192  0
C  C57  1  0.03479425  0.58716661  0.00948812  1  0  0.443246  0  3.875617  0  0  0.397515  0  4.168994  0  0  0.423388  0  4.166484  0  0  0.237379  0.380103  0  4.170104  0
I  I58  1  0.12363351  0.98235546  0.68125945  1  0  -0.35212  0  1.101998  0  0  -0.31223  0  1.425942  0  0  -0.330042  0  1.408196  0  0  -0.172072  -0.300249  0  1.438264  0
I  I59  1  0.12363374  0.51764486  0.81874081  1  0  -0.352121  0  1.102002  0  0  -0.312235  0  1.425936  0  0  -0.330047  0  1.408191  0  0  -0.172075  -0.300257  0  1.438259  0
I  I60  1  0.87636783  0.01764439  0.31874062  1  0  -0.352116  0  1.102014  0  0  -0.312221  0  1.42596  0  0  -0.330034  0  1.408215  0  0  -0.172066  -0.300241  0  1.438282  0
I  I61  1  0.87636760  0.48235617  0.18125934  1  0  -0.35211  0  1.102008  0  0  -0.312221  0  1.425952  0  0  -0.330033  0  1.408208  0  0  -0.17207  -0.300242  0  1.438275  0
N  N62  1  0.70664594  0.59310666  0.67297348  1  0  -0.305855  0  3.276503  0  0  -0.231479  0  3.539649  0  0  -0.252107  0  3.56224  0  0  -0.32153  -0.217539  0  3.523964  0
N  N63  1  0.70664424  0.90689489  0.82702649  1  0  -0.305734  0  3.276505  0  0  -0.231355  0  3.539627  0  0  -0.251983  0  3.56222  0  0  -0.321465  -0.217415  0  3.523943  0
N  N64  1  0.29335540  0.40689320  0.32702611  1  0  -0.30578  0  3.276476  0  0  -0.231397  0  3.539607  0  0  -0.252025  0  3.5622  0  0  -0.321489  -0.217457  0  3.523921  0
N  N65  1  0.29335318  0.09310615  0.17297318  1  0  -0.305743  0  3.276463  0  0  -0.231365  0  3.539597  0  0  -0.251992  0  3.562188  0  0  -0.321483  -0.217425  0  3.523912  0
N  N66  1  0.17470601  0.17929034  0.52525134  1  0  -0.391186  0  3.337954  0  0  -0.330736  0  3.578263  0  0  -0.352216  0  3.587969  0  0  -0.40871  -0.316028  0  3.571318  0
N  N67  1  0.17470676  0.32070927  0.97474881  1  0  -0.391193  0  3.33801  0  0  -0.330734  0  3.578344  0  0  -0.352212  0  3.58805  0  0  -0.408713  -0.316025  0  3.571398  0
N  N68  1  0.82529337  0.82070952  0.47474921  1  0  -0.391121  0  3.338103  0  0  -0.330696  0  3.578351  0  0  -0.352176  0  3.588057  0  0  -0.408693  -0.315988  0  3.571402  0
N  N69  1  0.82529458  0.67929059  0.02525126  1  0  -0.391189  0  3.338027  0  0  -0.330715  0  3.578279  0  0  -0.352195  0  3.587984  0  0  -0.408702  -0.316007  0  3.571335  0
O  O70  1  0.73434958  0.13491468  0.50997027  1  0  -0.540726  0  2.000034  0  0  -0.500695  0  2.231082  0  0  -0.519566  0  2.224144  0  0  -0.295991  -0.487551  0  2.235503  0
O  O71  1  0.73434841  0.36508615  0.99002960  1  0  -0.5407  0  2.000036  0  0  -0.50067  0  2.231096  0  0  -0.519538  0  2.224157  0  0  -0.295964  -0.487526  0  2.235517  0
O  O72  1  0.26565177  0.86508635  0.49002988  1  0  -0.540681  0  2.000062  0  0  -0.500703  0  2.231092  0  0  -0.51957  0  2.224144  0  0  -0.295984  -0.487558  0  2.235511  0
O  O73  1  0.26565293  0.63491370  0.00997047  1  0  -0.540701  0  2.000063  0  0  -0.500718  0  2.231073  0  0  -0.519588  0  2.224135  0  0  -0.295998  -0.487575  0  2.235495  0
