# generated using pymatgen
data_Cu2H18C10NO6
_symmetry_space_group_name_H-M   'P 1'
_cell_length_a   7.51231361
_cell_length_b   10.21829415
_cell_length_c   11.13045309
_cell_angle_alpha   62.34504030
_cell_angle_beta   73.17974411
_cell_angle_gamma   68.81063944
_symmetry_Int_Tables_number   1
_chemical_formula_structural   Cu2H18C10NO6
_chemical_formula_sum   'Cu4 H36 C20 N2 O12'
_cell_volume   697.94116699
_cell_formula_units_Z   2
loop_
 _symmetry_equiv_pos_site_id
 _symmetry_equiv_pos_as_xyz
  1  'x, y, z'
loop_
 _atom_site_type_symbol
 _atom_site_label
 _atom_site_symmetry_multiplicity
 _atom_site_fract_x
 _atom_site_fract_y
 _atom_site_fract_z
 _atom_site_occupancy
 _atom_site_hle17_ddec_charge
 _atom_site_hle17_ddec_spin_density
 _atom_site_hle17_ddec_sum_bond_order
 _atom_site_hle17_magmom
 _atom_site_hse06_10hf_ddec_charge
 _atom_site_hse06_10hf_ddec_spin_density
 _atom_site_hse06_10hf_ddec_sum_bond_order
 _atom_site_hse06_10hf_magmom
 _atom_site_hse06_ddec_charge
 _atom_site_hse06_ddec_spin_density
 _atom_site_hse06_ddec_sum_bond_order
 _atom_site_hse06_magmom
 _atom_site_pbe_cm5_charge
 _atom_site_pbe_ddec_charge
 _atom_site_pbe_ddec_spin_density
 _atom_site_pbe_ddec_sum_bond_order
 _atom_site_pbe_magmom
Cu  Cu0  1  0.09681924  0.51357768  0.79672844  1  0.826847  0.454313  1.953794  0.349  0.816353  0.716008  2.380377  0.59  0.925987  0.841173  2.290681  0.711  0.668459  0.74048  0.479704  2.447974  0.391
Cu  Cu1  1  0.90316753  0.48642306  0.20327797  1  0.82681  0.454362  1.953926  0.349  0.816409  0.716048  2.380382  0.59  0.925964  0.841198  2.29081  0.711  0.668482  0.740536  0.479741  2.447984  0.391
Cu  Cu2  1  0.24761731  0.55725969  0.97723155  1  0.898283  -0.450838  1.796437  -0.344  0.884947  -0.711476  2.226268  -0.582  1.003392  -0.834929  2.124733  -0.701  0.663  0.801722  -0.478444  2.302425  -0.389
Cu  Cu3  1  0.75234374  0.44274351  0.02276615  1  0.898425  -0.450817  1.796431  -0.344  0.885046  -0.711496  2.226356  -0.582  1.003485  -0.834957  2.124842  -0.701  0.663074  0.801812  -0.478427  2.302505  -0.389
H  H4  1  0.67718153  0.13423255  0.94209829  1  0.101383  0.00026  0.915051  0.0  0.126008  0.000259  0.961728  0.0  0.128759  0.000205  0.961038  0.0  0.105806  0.123783  0.000215  0.962693  0.0
H  H5  1  0.32279343  0.86575006  0.05789999  1  0.101224  0.000262  0.91495  0.0  0.12595  0.000259  0.961632  0.0  0.128684  0.000206  0.96096  0.0  0.105773  0.123723  0.000215  0.962599  0.0
H  H6  1  0.79879004  0.26971711  0.82017262  1  0.102311  0.000338  0.951552  0.0  0.116774  0.000312  1.015222  0.0  0.119002  0.000239  1.015193  0.0  0.100861  0.114898  0.000294  1.01571  0.0
H  H7  1  0.20122967  0.73025139  0.17985088  1  0.10211  0.000326  0.951535  0.0  0.11663  0.000312  1.015267  0.0  0.118866  0.000239  1.015223  0.0  0.100854  0.114754  0.000294  1.01575  0.0
H  H8  1  0.81744382  0.07272608  0.73503761  1  0.088025  -0.000273  0.971515  0.0  0.110943  -0.000252  1.033792  0.0  0.112368  -0.000177  1.033947  0.0  0.084491  0.109907  -0.000237  1.033712  0.0
H  H9  1  0.18254623  0.92726888  0.26497508  1  0.088041  -0.000271  0.971404  0.0  0.110934  -0.000252  1.03372  0.0  0.112364  -0.000177  1.033871  0.0  0.084507  0.109893  -0.000237  1.033643  0.0
H  H10  1  0.56154361  0.12480046  0.75353418  1  0.095046  4.3e-05  0.956997  0.0  0.118319  2.3e-05  1.016064  0.0  0.120108  1.2e-05  1.015417  0.0  0.086237  0.116985  2.1e-05  1.016609  0.0
H  H11  1  0.43846833  0.87518296  0.24648276  1  0.094892  4.6e-05  0.9571  0.0  0.118186  2.3e-05  1.016133  0.0  0.119972  1.2e-05  1.015492  0.0  0.086194  0.116849  2.1e-05  1.016677  0.0
H  H12  1  0.69155335  0.25688472  0.62805109  1  0.095307  5.9e-05  0.959458  0.0  0.11276  6e-05  1.026641  0.0  0.113321  3.9e-05  1.027368  0.0  0.083139  0.112459  5.2e-05  1.026058  0.0
H  H13  1  0.30844807  0.74308521  0.37195014  1  0.095168  6e-05  0.95941  0.0  0.112646  6e-05  1.02658  0.0  0.113208  3.9e-05  1.027306  0.0  0.083062  0.112349  5.2e-05  1.025992  0.0
H  H14  1  0.38790105  0.91108981  0.52226656  1  0.096092  -0.000131  0.93556  0.0  0.117625  -0.000138  0.988165  0.0  0.118876  -0.000101  0.98897  0.0  0.103361  0.116433  -0.000174  0.987738  0.0
H  H15  1  0.61208505  0.08893082  0.47769212  1  0.096161  -0.00014  0.935452  0.0  0.117623  -0.000138  0.988084  0.0  0.118868  -0.000101  0.988896  0.0  0.103399  0.11643  -0.000173  0.987652  0.0
H  H16  1  0.13823447  0.99003500  0.52561120  1  0.097449  -0.000363  0.936056  -0.001  0.114691  -0.000313  0.992697  -0.001  0.117011  -0.00024  0.991393  0.0  0.100394  0.112955  -0.000389  0.993271  0.0
H  H17  1  0.86175662  0.00999440  0.47438151  1  0.097469  -0.000366  0.936054  -0.001  0.114668  -0.000313  0.992689  -0.001  0.11699  -0.00024  0.991378  0.0  0.100354  0.112907  -0.00039  0.993284  0.0
H  H18  1  0.28488701  0.15803767  0.55214438  1  0.082845  0.000246  0.981794  0.0  0.099401  0.000269  1.053787  0.0  0.09941  0.000201  1.055611  0.0  0.081235  0.099418  0.000207  1.052235  0.0
H  H19  1  0.71513883  0.84197104  0.44785035  1  0.082813  0.000247  0.981743  0.0  0.099369  0.000269  1.053757  0.0  0.099375  0.000201  1.055583  0.0  0.081219  0.099385  0.000207  1.052209  0.0
H  H20  1  0.38016971  0.00342088  0.70025165  1  0.094197  -9e-06  0.971428  0.0  0.116337  4e-05  1.035021  0.0  0.118164  3.4e-05  1.034252  0.0  0.087418  0.11471  1.2e-05  1.035898  0.0
H  H21  1  0.61987922  0.99656502  0.29973294  1  0.094109  -9e-06  0.971578  0.0  0.116271  4e-05  1.035137  0.0  0.118095  3.4e-05  1.034373  0.0  0.087418  0.114644  1.2e-05  1.036016  0.0
H  H22  1  0.12766719  0.08368046  0.70395035  1  0.091562  -2.1e-05  0.964995  0.0  0.114915  2.9e-05  1.025882  0.0  0.11596  2.1e-05  1.026261  0.0  0.085675  0.113774  3.1e-05  1.026091  0.0
H  H23  1  0.87236609  0.91630188  0.29605309  1  0.091408  -2.1e-05  0.965133  0.0  0.114806  2.9e-05  1.025959  0.0  0.115852  2.1e-05  1.02634  0.0  0.085616  0.113664  3.1e-05  1.026169  0.0
H  H24  1  0.33074908  0.43899995  0.53475152  1  0.095798  -2.2e-05  0.924927  0.0  0.104054  -3.6e-05  0.984703  0.0  0.108002  -4.4e-05  0.9818  0.0  0.1243  0.101175  -2.3e-05  0.986798  0.0
H  H25  1  0.66926019  0.56099630  0.46523990  1  0.095786  -2.2e-05  0.925024  0.0  0.104064  -3.6e-05  0.984772  0.0  0.108015  -4.4e-05  0.981863  0.0  0.124282  0.101183  -2.3e-05  0.986867  0.0
H  H26  1  0.74781897  0.55087614  0.68002198  1  0.101308  -3.2e-05  0.940648  0.0  0.110034  -4.6e-05  0.999385  0.0  0.114419  -4.1e-05  0.996485  0.0  0.124851  0.106644  -2.7e-05  1.001974  0.0
H  H27  1  0.25218394  0.44912238  0.31997239  1  0.101371  -2.2e-05  0.940715  0.0  0.110112  -4.6e-05  0.999441  0.0  0.114494  -4.1e-05  0.99655  0.0  0.124891  0.106719  -2.7e-05  1.002026  0.0
H  H28  1  0.57175056  0.77596888  0.83304372  1  0.092222  0.002656  0.964314  0.003  0.100989  0.002262  1.035757  0.002  0.095837  0.001762  1.03936  0.002  0.092808  0.105391  0.001985  1.032856  0.002
H  H29  1  0.42825536  0.22404093  0.16696153  1  0.092243  0.002645  0.964231  0.003  0.100994  0.002261  1.035722  0.002  0.095837  0.001761  1.039321  0.002  0.092841  0.105399  0.001984  1.032809  0.002
H  H30  1  0.78308840  0.82917786  0.81804765  1  0.057324  0.000448  0.980509  0.001  0.074102  0.000165  1.048425  0.0  0.072421  2.4e-05  1.049989  0.0  0.081688  0.075325  0.00023  1.047349  0.0
H  H31  1  0.21692627  0.17080548  0.18197689  1  0.057349  0.000443  0.9806  0.001  0.074116  0.000165  1.048539  0.0  0.072433  2.3e-05  1.050108  0.0  0.081724  0.075336  0.00023  1.047461  0.0
H  H32  1  0.74362746  0.80342035  0.68069069  1  0.06528  -0.003077  0.949883  -0.004  0.078916  -0.002394  1.02117  -0.003  0.074561  -0.001807  1.024334  -0.003  0.085169  0.082627  -0.002279  1.017798  -0.003
H  H33  1  0.25639325  0.19658252  0.31931914  1  0.065229  -0.003083  0.949755  -0.004  0.078893  -0.002395  1.021042  -0.003  0.074536  -0.001808  1.024207  -0.003  0.085146  0.0826  -0.00228  1.017672  -0.003
H  H34  1  0.98706420  0.11649342  0.05079032  1  0.077682  0.002162  0.950578  0.002  0.088294  0.002229  1.023047  0.002  0.082592  0.001824  1.027047  0.002  0.09256  0.093577  0.001707  1.01955  0.001
H  H35  1  0.01293371  0.88349465  0.94922375  1  0.077697  0.002167  0.950578  0.002  0.088311  0.002228  1.023044  0.002  0.082609  0.001823  1.027046  0.002  0.092601  0.093595  0.001706  1.019549  0.001
H  H36  1  0.11000017  0.15911518  0.87903433  1  0.057884  -0.001257  0.951262  -0.001  0.070104  -0.001216  1.025629  -0.001  0.067561  -0.001031  1.026659  -0.001  0.081541  0.072183  -0.000934  1.024988  -0.001
H  H37  1  0.88999660  0.84089691  0.12097532  1  0.057921  -0.001253  0.951334  -0.001  0.070132  -0.001215  1.025686  -0.001  0.067589  -0.001031  1.026719  -0.001  0.081532  0.072214  -0.000934  1.025038  -0.001
H  H38  1  0.22264076  0.14464654  0.00751335  1  0.058452  -0.000651  0.957792  -0.001  0.075578  -0.000809  1.021922  -0.001  0.073371  -0.000749  1.023232  -0.001  0.082698  0.077479  -0.000575  1.020887  0.0
H  H39  1  0.77733079  0.85539069  0.99250046  1  0.058448  -0.000649  0.957833  -0.001  0.075563  -0.00081  1.021954  -0.001  0.073356  -0.000749  1.02326  -0.001  0.082681  0.077462  -0.000576  1.020923  0.0
C  C40  1  0.49321199  0.35288203  0.84790963  1  0.6901  4e-05  3.811324  0.0  0.656617  -5.2e-05  4.1027  0.0  0.697601  -4.2e-05  4.095699  0.0  0.218128  0.62835  -1.8e-05  4.106538  0.0
C  C41  1  0.50677465  0.64712332  0.15209308  1  0.690377  1.1e-05  3.811945  0.0  0.657083  -5.4e-05  4.103094  0.0  0.698087  -4.4e-05  4.096047  0.0  0.218234  0.628812  -1.9e-05  4.106928  0.0
C  C42  1  0.67460451  0.22688305  0.83826279  1  -0.223563  7.2e-05  3.698201  0.0  -0.256831  0.000221  3.94299  0.0  -0.264739  0.000174  3.951438  0.0  -0.163977  -0.251424  0.000188  3.937687  0.0
C  C43  1  0.32541395  0.77309833  0.16172951  1  -0.223114  0.000108  3.697931  0.0  -0.256747  0.000221  3.943061  0.0  -0.264656  0.000174  3.951502  0.0  -0.163954  -0.251334  0.000188  3.937748  0.0
C  C44  1  0.68680995  0.16732979  0.73272558  1  -0.262995  -0.000709  3.739489  -0.001  -0.34117  -0.000613  3.987487  -0.001  -0.341819  -0.000475  3.997022  -0.001  -0.249623  -0.340411  -0.000576  3.98088  -0.001
C  C45  1  0.31319047  0.83265957  0.26727310  1  -0.262887  -0.000727  3.738897  -0.001  -0.340997  -0.000613  3.986949  -0.001  -0.341651  -0.000475  3.99648  -0.001  -0.249555  -0.34024  -0.000576  3.980336  -0.001
C  C46  1  0.22393257  0.78756657  0.70175660  1  0.686763  3e-06  3.811241  0.0  0.652876  2.9e-05  4.102803  0.0  0.692888  9.2e-05  4.096899  0.0  0.215309  0.625244  3.5e-05  4.106654  0.0
C  C47  1  0.77606583  0.21244584  0.29822024  1  0.686831  7e-06  3.811356  0.0  0.652958  3.1e-05  4.102777  0.0  0.692974  9.5e-05  4.096874  0.0  0.215351  0.625311  3.7e-05  4.106624  0.0
C  C48  1  0.25326892  0.93949616  0.58916986  1  -0.209762  -0.000503  3.694212  -0.001  -0.242085  -0.000572  3.940164  -0.001  -0.248495  -0.000478  3.948283  -0.001  -0.163423  -0.23787  -0.000326  3.934297  0.0
C  C49  1  0.74674022  0.06051738  0.41080537  1  -0.210055  -0.000487  3.694512  -0.001  -0.242212  -0.000572  3.940276  -0.001  -0.248627  -0.000479  3.948402  -0.001  -0.163462  -0.237965  -0.000326  3.934415  0.0
C  C50  1  0.26262484  0.05204100  0.63939747  1  -0.26428  0.00089  3.740888  0.001  -0.343839  0.000779  3.990791  0.001  -0.344595  0.000591  4.00037  0.001  -0.248902  -0.34273  0.000566  3.984201  0.001
C  C51  1  0.73740747  0.94795293  0.36058962  1  -0.263901  0.00089  3.740952  0.001  -0.343524  0.000779  3.990774  0.001  -0.344285  0.000591  4.00036  0.001  -0.248819  -0.34242  0.000566  3.984175  0.001
C  C52  1  0.18289602  0.46681790  0.51794732  1  0.075578  -0.000139  3.682435  0.0  0.056192  -0.000276  3.93041  0.0  0.058701  -0.000192  3.946627  0.0  0.060549  0.054519  -0.000273  3.919557  0.0
C  C53  1  0.81711053  0.53318633  0.48204578  1  0.075559  -0.000184  3.682781  0.0  0.056141  -0.000276  3.930732  0.0  0.058653  -0.000193  3.946943  0.0  0.060596  0.05447  -0.000273  3.919872  0.0
C  C54  1  0.85920697  0.52802498  0.59845243  1  0.06642  -0.00016  3.680429  0.0  0.049546  -0.000324  3.923941  0.0  0.05266  -0.000237  3.939286  0.0  0.05706  0.047306  -0.000306  3.914215  0.0
C  C55  1  0.14079968  0.47198728  0.40153639  1  0.066367  -0.000233  3.68041  0.0  0.049445  -0.000324  3.923963  0.0  0.05256  -0.000238  3.939304  0.0  0.057044  0.047207  -0.000307  3.914225  0.0
C  C56  1  0.72692014  0.76016405  0.79343885  1  -0.040684  -0.000372  3.739576  0.0  -0.117393  -0.000517  4.017599  -0.001  -0.102013  -0.000525  4.036538  -0.001  -0.173784  -0.129199  -0.000123  4.003277  0.0
C  C57  1  0.27308643  0.23983543  0.20657239  1  -0.040674  -0.000342  3.739331  0.0  -0.117401  -0.000518  4.01735  -0.001  -0.102016  -0.000526  4.036289  -0.001  -0.173845  -0.129206  -0.000123  4.003014  0.0
C  C58  1  0.08347310  0.18408269  0.97027744  1  -0.026143  -0.000356  3.764001  0.0  -0.102259  -0.000393  4.046596  0.0  -0.085479  -0.000475  4.06328  -0.001  -0.167078  -0.115557  -0.00023  4.033859  0.0
C  C59  1  0.91650419  0.81592942  0.02973590  1  -0.026188  -0.000372  3.764002  0.0  -0.102279  -0.00039  4.046602  0.0  -0.085499  -0.000473  4.063284  -0.001  -0.167068  -0.115582  -0.000227  4.033865  0.0
N  N60  1  0.04205269  0.49451153  0.61597526  1  -0.24063  -0.001045  3.203621  -0.001  -0.197977  -0.00103  3.475674  0.0  -0.211279  -0.00101  3.488416  0.0  -0.307944  -0.189489  -0.000845  3.468827  0.0
N  N61  1  0.95795371  0.50549728  0.38401685  1  -0.240624  -0.000998  3.203802  -0.001  -0.197965  -0.00103  3.475864  0.0  -0.211258  -0.00101  3.488607  0.0  -0.307997  -0.189474  -0.000845  3.469005  0.0
O  O62  1  0.36212526  0.38344612  0.78067408  1  -0.591954  0.034508  2.128468  0.049  -0.550364  0.035123  2.40296  0.053  -0.591753  0.030816  2.392295  0.048  -0.315297  -0.521654  0.027612  2.41022  0.04
O  O63  1  0.63786375  0.61656033  0.21933131  1  -0.592165  0.034539  2.12832  0.049  -0.550597  0.035137  2.402658  0.053  -0.59199  0.030827  2.391996  0.048  -0.315385  -0.521876  0.027627  2.409905  0.04
O  O64  1  0.48466350  0.41709667  0.92521352  1  -0.618309  -0.037855  2.13466  -0.054  -0.588425  -0.037523  2.43873  -0.057  -0.63369  -0.032626  2.421843  -0.052  -0.322512  -0.55708  -0.029672  2.451159  -0.044
O  O65  1  0.51533122  0.58290040  0.07481448  1  -0.61832  -0.037823  2.135154  -0.054  -0.588537  -0.037507  2.439185  -0.057  -0.633803  -0.032612  2.422267  -0.052  -0.322512  -0.557195  -0.029659  2.451612  -0.044
O  O66  1  0.27236192  0.74663998  0.81740669  1  -0.594129  -0.039202  2.119249  -0.055  -0.547268  -0.039483  2.393775  -0.059  -0.589789  -0.034858  2.380791  -0.055  -0.316597  -0.519842  -0.029899  2.404103  -0.044
O  O67  1  0.72760137  0.25336103  0.18258163  1  -0.594179  -0.039218  2.118984  -0.055  -0.547351  -0.039496  2.393595  -0.059  -0.589822  -0.034869  2.380492  -0.055  -0.316735  -0.519917  -0.02991  2.403919  -0.044
O  O68  1  0.15553263  0.71235814  0.67009821  1  -0.604955  0.037695  2.094903  0.053  -0.574096  0.037282  2.37114  0.056  -0.615989  0.032328  2.360718  0.05  -0.327265  -0.546067  0.029641  2.378995  0.043
O  O69  1  0.84446537  0.28764751  0.32987076  1  -0.60482  0.03769  2.095168  0.053  -0.574029  0.037269  2.371448  0.056  -0.615911  0.032318  2.361027  0.05  -0.327161  -0.545995  0.029632  2.379298  0.043
O  O70  1  0.82391299  0.60285765  0.84926878  1  -0.551454  0.002123  2.262135  0.003  -0.54454  0.001653  2.640153  0.003  -0.619114  0.000748  2.649926  0.001  -0.405096  -0.491026  0.00228  2.632678  0.004
O  O71  1  0.17607769  0.39713962  0.15074103  1  -0.551387  0.002101  2.261841  0.003  -0.544484  0.00163  2.639815  0.003  -0.619044  0.000731  2.649584  0.001  -0.40508  -0.490988  0.002263  2.632387  0.004
O  O72  1  0.99586719  0.34094330  0.93998268  1  -0.565424  0.001139  2.261673  0.002  -0.560187  0.000725  2.643163  0.002  -0.634293  -0.000231  2.651659  0.0  -0.405258  -0.505031  0.000551  2.635662  0.001
O  O73  1  0.00408847  0.65906327  0.06002273  1  -0.56537  0.001148  2.261405  0.002  -0.560166  0.000716  2.642883  0.002  -0.634232  -0.000239  2.651328  0.0  -0.405285  -0.505024  0.000546  2.635432  0.001
