# generated using pymatgen
data_HoH9C9NO11
_symmetry_space_group_name_H-M   'P 1'
_cell_length_a   7.37611189
_cell_length_b   9.25333094
_cell_length_c   11.46237175
_cell_angle_alpha   72.20391375
_cell_angle_beta   69.72109387
_cell_angle_gamma   80.48918202
_symmetry_Int_Tables_number   1
_chemical_formula_structural   HoH9C9NO11
_chemical_formula_sum   'Ho2 H18 C18 N2 O22'
_cell_volume   697.19866453
_cell_formula_units_Z   2
loop_
 _symmetry_equiv_pos_site_id
 _symmetry_equiv_pos_as_xyz
  1  'x, y, z'
loop_
 _atom_site_type_symbol
 _atom_site_label
 _atom_site_symmetry_multiplicity
 _atom_site_fract_x
 _atom_site_fract_y
 _atom_site_fract_z
 _atom_site_occupancy
 _atom_site_hle17_bader_spin_density
 _atom_site_hle17_ddec_charge
 _atom_site_hle17_ddec_spin_density
 _atom_site_hle17_ddec_sum_bond_order
 _atom_site_hle17_magmom
 _atom_site_hse06_10hf_bader_spin_density
 _atom_site_hse06_10hf_ddec_charge
 _atom_site_hse06_10hf_ddec_spin_density
 _atom_site_hse06_10hf_ddec_sum_bond_order
 _atom_site_hse06_10hf_magmom
 _atom_site_hse06_bader_spin_density
 _atom_site_hse06_ddec_charge
 _atom_site_hse06_ddec_spin_density
 _atom_site_hse06_ddec_sum_bond_order
 _atom_site_hse06_magmom
 _atom_site_pbe_bader_spin_density
 _atom_site_pbe_cm5_charge
 _atom_site_pbe_ddec_charge
 _atom_site_pbe_ddec_spin_density
 _atom_site_pbe_ddec_sum_bond_order
 _atom_site_pbe_magmom
Ho  Ho0  1  0.10793667  0.55459841  0.21961716  1  0  2.259478  0  1.624914  0  0  2.112809  0  2.10452  0  0  2.242207  0  1.907407  0  0  1.518151  2.079152  0  2.13448  0
Ho  Ho1  1  0.89206000  0.44540594  0.78038696  1  0  2.259405  0  1.624943  0  0  2.112716  0  2.104604  0  0  2.242153  0  1.90743  0  0  1.518143  2.079047  0  2.134557  0
H  H2  1  0.18266928  0.15056630  0.61074911  1  0  0.130407  0  0.963489  0  0  0.132762  0  1.036128  0  0  0.137883  0  1.030745  0  0  0.121544  0.128804  0  1.04021  0
H  H3  1  0.81732962  0.84943254  0.38924884  1  0  0.13042  0  0.963503  0  0  0.132754  0  1.036156  0  0  0.137869  0  1.030786  0  0  0.121542  0.1288  0  1.040241  0
H  H4  1  0.36976222  0.68628106  0.59651069  1  0  0.144841  0  0.918363  0  0  0.148669  0  0.98499  0  0  0.153459  0  0.980524  0  0  0.129057  0.144854  0  0.988892  0
H  H5  1  0.63024265  0.31371675  0.40348362  1  0  0.144859  0  0.918296  0  0  0.148691  0  0.984946  0  0  0.153479  0  0.980479  0  0  0.12906  0.144875  0  0.988857  0
H  H6  1  0.22337505  0.01310683  0.27576525  1  0  0.126065  0  0.915587  0  0  0.1344  0  0.97518  0  0  0.139201  0  0.970548  0  0  0.118322  0.130898  0  0.978359  0
H  H7  1  0.77661590  0.98688512  0.72423511  1  0  0.126084  0  0.915504  0  0  0.134386  0  0.975127  0  0  0.139186  0  0.970498  0  0  0.118335  0.13088  0  0.978303  0
H  H8  1  0.81969927  0.61130787  0.45607421  1  0  0.453792  0  0.842056  0  0  0.423902  0  0.903039  0  0  0.435467  0  0.886433  0  0  0.302206  0.416001  0  0.914534  0
H  H9  1  0.18029756  0.38869539  0.54392839  1  0  0.453836  0  0.842  0  0  0.423926  0  0.903015  0  0  0.435492  0  0.886408  0  0  0.302202  0.416024  0  0.914513  0
H  H10  1  0.68352009  0.60867249  0.37114920  1  0  0.453572  0  0.841167  0  0  0.418775  0  0.910114  0  0  0.43073  0  0.892842  0  0  0.297608  0.410525  0  0.922115  0
H  H11  1  0.31647989  0.39132854  0.62885238  1  0  0.453585  0  0.84115  0  0  0.418773  0  0.910113  0  0  0.430729  0  0.892839  0  0  0.297599  0.410523  0  0.922113  0
H  H12  1  0.48093501  0.55537867  0.22752774  1  0  0.436757  0  0.865413  0  0  0.401608  0  0.936322  0  0  0.413483  0  0.919035  0  0  0.299265  0.393213  0  0.948682  0
H  H13  1  0.51906506  0.44461999  0.77247873  1  0  0.436607  0  0.865603  0  0  0.401542  0  0.936396  0  0  0.413416  0  0.91911  0  0  0.299235  0.393148  0  0.948754  0
H  H14  1  0.54887634  0.50509719  0.09533491  1  0  0.464968  0  0.820281  0  0  0.436371  0  0.876962  0  0  0.448484  0  0.859339  0  0  0.310889  0.428356  0  0.888617  0
H  H15  1  0.45111796  0.49490141  0.90467280  1  0  0.465072  0  0.820122  0  0  0.436465  0  0.876831  0  0  0.44858  0  0.8592  0  0  0.310924  0.428452  0  0.888481  0
H  H16  1  0.12052487  0.84762073  0.99667102  1  0  0.443312  0  0.84311  0  0  0.408873  0  0.910382  0  0  0.420942  0  0.892534  0  0  0.308501  0.400743  0  0.9225  0
H  H17  1  0.87949410  0.15237943  0.00332326  1  0  0.443274  0  0.843162  0  0  0.408866  0  0.91042  0  0  0.420941  0  0.892565  0  0  0.30849  0.400739  0  0.922528  0
H  H18  1  0.00602139  0.88587430  0.13086928  1  0  0.449191  0  0.83068  0  0  0.422551  0  0.885036  0  0  0.432734  0  0.870063  0  0  0.317284  0.415558  0  0.895513  0
H  H19  1  0.99400965  0.11413509  0.86912030  1  0  0.449157  0  0.830741  0  0  0.422553  0  0.885025  0  0  0.432737  0  0.870052  0  0  0.317295  0.415561  0  0.895498  0
C  C20  1  0.16043154  0.25971850  0.36372929  1  0  0.6482  0  3.926425  0  0  0.599059  0  4.221775  0  0  0.631238  0  4.22547  0  0  0.199021  0.576683  0  4.2251  0
C  C21  1  0.83955618  0.74027684  0.63627096  1  0  0.648083  0  3.926606  0  0  0.598962  0  4.221944  0  0  0.63114  0  4.225651  0  0  0.198998  0.576596  0  4.225235  0
C  C22  1  0.20971500  0.10043675  0.43225748  1  0  -0.051146  0  3.738216  0  0  -0.025622  0  3.976385  0  0  -0.035331  0  3.999422  0  0  -0.009263  -0.019461  0  3.960195  0
C  C23  1  0.79028139  0.89955867  0.56774093  1  0  -0.051108  0  3.738323  0  0  -0.025562  0  3.976428  0  0  -0.035271  0  3.999463  0  0  -0.009227  -0.019403  0  3.960231  0
C  C24  1  0.21817001  0.06452912  0.55798173  1  0  -0.088619  0  3.666333  0  0  -0.129052  0  3.926686  0  0  -0.124877  0  3.942595  0  0  -0.06598  -0.130893  0  3.915221  0
C  C25  1  0.78183322  0.93546976  0.44201529  1  0  -0.088668  0  3.666525  0  0  -0.129087  0  3.926896  0  0  -0.124916  0  3.942806  0  0  -0.066008  -0.130925  0  3.915417  0
C  C26  1  0.27458344  0.91551597  0.61356423  1  0  0.064786  0  3.715527  0  0  0.058791  0  3.981962  0  0  0.053183  0  4.00501  0  0  0.081784  0.062271  0  3.966169  0
C  C27  1  0.72542408  0.08448415  0.38642899  1  0  0.064736  0  3.715399  0  0  0.058726  0  3.981897  0  0  0.053131  0  4.004916  0  0  0.081787  0.062207  0  3.966113  0
C  C28  1  0.32370728  0.80090553  0.54971547  1  0  -0.075338  0  3.6331  0  0  -0.11711  0  3.895675  0  0  -0.112317  0  3.910347  0  0  -0.055872  -0.11995  0  3.885937  0
C  C29  1  0.67630578  0.19909569  0.45028068  1  0  -0.075301  0  3.632862  0  0  -0.117086  0  3.895466  0  0  -0.112298  0  3.910133  0  0  -0.055866  -0.119933  0  3.885736  0
C  C30  1  0.29905786  0.83580650  0.42849266  1  0  -0.047152  0  3.709988  0  0  -0.022001  0  3.951847  0  0  -0.030694  0  3.972162  0  0  -0.002905  -0.016441  0  3.936955  0
C  C31  1  0.70095109  0.16419240  0.57150490  1  0  -0.04716  0  3.709817  0  0  -0.022057  0  3.951719  0  0  -0.030751  0  3.972033  0  0  -0.002874  -0.01649  0  3.936813  0
C  C32  1  0.24245655  0.98507748  0.37049374  1  0  -0.033802  0  3.63023  0  0  -0.07814  0  3.884964  0  0  -0.073694  0  3.900716  0  0  -0.058579  -0.080217  0  3.873395  0
C  C33  1  0.75754558  0.01491798  0.62950432  1  0  -0.03384  0  3.630117  0  0  -0.078131  0  3.884853  0  0  -0.073685  0  3.900603  0  0  -0.058637  -0.080203  0  3.873264  0
C  C34  1  0.32077127  0.71289242  0.36262398  1  0  0.695608  0  3.864071  0  0  0.641827  0  4.158972  0  0  0.67733  0  4.1518  0  0  0.2319  0.618595  0  4.163365  0
C  C35  1  0.67923806  0.28710188  0.63737719  1  0  0.695689  0  3.863756  0  0  0.641981  0  4.158563  0  0  0.677482  0  4.151389  0  0  0.231972  0.618744  0  4.162952  0
C  C36  1  0.89318304  0.49628510  0.04311966  1  0  0.569968  0  3.910169  0  0  0.524744  0  4.203837  0  0  0.55497  0  4.202343  0  0  0.22426  0.504225  0  4.209443  0
C  C37  1  0.10680711  0.50372598  0.95688602  1  0  0.570008  0  3.91012  0  0  0.524784  0  4.203777  0  0  0.55501  0  4.202283  0  0  0.224203  0.50426  0  4.209384  0
N  N38  1  0.28353533  0.87565725  0.74483641  1  0  0.519866  0  3.857348  0  0  0.540561  0  4.160849  0  0  0.562225  0  4.168706  0  0  0.068423  0.526214  0  4.154803  0
N  N39  1  0.71645883  0.12434613  0.25515974  1  0  0.520031  0  3.857644  0  0  0.540698  0  4.16117  0  0  0.562357  0  4.169038  0  0  0.068514  0.526354  0  4.155129  0
O  O40  1  0.15655503  0.37048995  0.41014164  1  0  -0.701227  0  2.03534  0  0  -0.643127  0  2.273007  0  0  -0.678025  0  2.26471  0  0  -0.362056  -0.625566  0  2.278216  0
O  O41  1  0.84342394  0.62950524  0.58986311  1  0  -0.701163  0  2.035392  0  0  -0.64313  0  2.273127  0  0  -0.678008  0  2.264775  0  0  -0.362101  -0.625581  0  2.278329  0
O  O42  1  0.12458574  0.28485991  0.25813877  1  0  -0.684973  0  1.956283  0  0  -0.645782  0  2.194044  0  0  -0.680553  0  2.18682  0  0  -0.379874  -0.628542  0  2.197992  0
O  O43  1  0.87540443  0.71514002  0.74185902  1  0  -0.684909  0  1.95634  0  0  -0.645706  0  2.194096  0  0  -0.680483  0  2.186873  0  0  -0.379869  -0.628476  0  2.198028  0
O  O44  1  0.18571066  0.71480688  0.31678315  1  0  -0.718004  0  2.015034  0  0  -0.664767  0  2.271315  0  0  -0.70355  0  2.25888  0  0  -0.390292  -0.64569  0  2.276667  0
O  O45  1  0.81429448  0.28518625  0.68321830  1  0  -0.717977  0  2.014978  0  0  -0.664742  0  2.271197  0  0  -0.703529  0  2.258761  0  0  -0.390254  -0.645666  0  2.276545  0
O  O46  1  0.46644022  0.61765616  0.35695038  1  0  -0.619071  0  1.988843  0  0  -0.554643  0  2.201989  0  0  -0.579601  0  2.189948  0  0  -0.291801  -0.53633  0  2.208874  0
O  O47  1  0.53355829  0.38232879  0.64306136  1  0  -0.619166  0  1.988679  0  0  -0.554803  0  2.201836  0  0  -0.57976  0  2.18979  0  0  -0.291916  -0.536497  0  2.208724  0
O  O48  1  0.40170684  0.77377987  0.77553268  1  0  -0.296257  0  1.79693  0  0  -0.272263  0  2.004354  0  0  -0.281442  0  2.000739  0  0  -0.073518  -0.265808  0  2.006784  0
O  O49  1  0.59829104  0.22621438  0.22446742  1  0  -0.296251  0  1.797425  0  0  -0.272275  0  2.004867  0  0  -0.281441  0  2.001249  0  0  -0.073495  -0.265819  0  2.007303  0
O  O50  1  0.16790570  0.94685742  0.82201833  1  0  -0.420404  0  1.784624  0  0  -0.383762  0  1.986499  0  0  -0.400018  0  1.978256  0  0  -0.133257  -0.372648  0  1.991782  0
O  O51  1  0.83208951  0.05313696  0.17797532  1  0  -0.420593  0  1.784526  0  0  -0.383841  0  1.986358  0  0  -0.400095  0  1.97811  0  0  -0.133362  -0.372729  0  1.991644  0
O  O52  1  0.85257210  0.51510983  0.15375827  1  0  -0.640208  0  2.053717  0  0  -0.593129  0  2.300035  0  0  -0.627125  0  2.289347  0  0  -0.360117  -0.576663  0  2.305174  0
O  O53  1  0.14741103  0.48491494  0.84624134  1  0  -0.640162  0  2.053598  0  0  -0.593087  0  2.299934  0  0  -0.627092  0  2.289247  0  0  -0.360146  -0.57662  0  2.305067  0
O  O54  1  0.77469882  0.47086615  0.99419367  1  0  -0.659947  0  2.094026  0  0  -0.601027  0  2.327556  0  0  -0.636764  0  2.316223  0  0  -0.356844  -0.582869  0  2.332717  0
O  O55  1  0.22529661  0.52913589  0.00581213  1  0  -0.660065  0  2.094065  0  0  -0.60113  0  2.327581  0  0  -0.636861  0  2.316247  0  0  -0.356849  -0.582972  0  2.332744  0
O  O56  1  0.82031662  0.60135191  0.37157929  1  0  -0.953304  0  1.840508  0  0  -0.901973  0  2.050568  0  0  -0.934737  0  2.009231  0  0  -0.666971  -0.887642  0  2.07496  0
O  O57  1  0.17968278  0.39865481  0.62842109  1  0  -0.953318  0  1.840413  0  0  -0.901958  0  2.050514  0  0  -0.93473  0  2.009176  0  0  -0.66693  -0.88763  0  2.074904  0
O  O58  1  0.43519921  0.54104056  0.15970918  1  0  -0.955764  0  1.895315  0  0  -0.906451  0  2.101447  0  0  -0.938407  0  2.057762  0  0  -0.68266  -0.892581  0  2.126012  0
O  O59  1  0.56479641  0.45895920  0.84029798  1  0  -0.955682  0  1.895442  0  0  -0.906432  0  2.101449  0  0  -0.938396  0  2.057763  0  0  -0.682661  -0.892565  0  2.126009  0
O  O60  1  0.06453716  0.80333196  0.09032407  1  0  -0.915575  0  1.844422  0  0  -0.866825  0  2.026694  0  0  -0.896389  0  1.984446  0  0  -0.638156  -0.854747  0  2.050052  0
O  O61  1  0.93548285  0.19667158  0.90967095  1  0  -0.915502  0  1.844565  0  0  -0.866821  0  2.026707  0  0  -0.896396  0  1.98444  0  0  -0.638172  -0.854743  0  2.050074  0
