# generated using pymatgen
data_U2NiH30C22(N2O9)2
_symmetry_space_group_name_H-M   'P 1'
_cell_length_a   13.34904222
_cell_length_b   15.50440072
_cell_length_c   17.64424486
_cell_angle_alpha   89.99993756
_cell_angle_beta   99.75664611
_cell_angle_gamma   90.00025255
_symmetry_Int_Tables_number   1
_chemical_formula_structural   U2NiH30C22(N2O9)2
_chemical_formula_sum   'U8 Ni4 H120 C88 N16 O72'
_cell_volume   3598.99165853
_cell_formula_units_Z   4
loop_
 _symmetry_equiv_pos_site_id
 _symmetry_equiv_pos_as_xyz
  1  'x, y, z'
loop_
 _atom_site_type_symbol
 _atom_site_label
 _atom_site_symmetry_multiplicity
 _atom_site_fract_x
 _atom_site_fract_y
 _atom_site_fract_z
 _atom_site_occupancy
 _atom_site_pbe_bader_charge
 _atom_site_pbe_bader_spin_density
 _atom_site_pbe_cm5_charge
 _atom_site_pbe_ddec_charge
 _atom_site_pbe_ddec_spin_density
 _atom_site_pbe_ddec_sum_bond_order
 _atom_site_pbe_magmom
U  U0  1  0.87861012  0.16033835  0.61357643  1  2.904315  0.013236  2.18261  2.447633  0.02371  4.859889  0.013
U  U1  1  0.12138870  0.66034125  0.88641834  1  2.904125  0.013243  2.182794  2.447853  0.023723  4.859437  0.013
U  U2  1  0.12138447  0.83965838  0.38641927  1  2.904492  0.01324  2.182757  2.44779  0.023717  4.85932  0.013
U  U3  1  0.87861264  0.33965805  0.11358063  1  2.904314  0.013244  2.182772  2.447875  0.023726  4.859415  0.013
U  U4  1  0.61177227  0.85401686  0.88859094  1  2.901583  0.013891  2.185785  2.447593  0.02488  4.869065  0.014
U  U5  1  0.38821267  0.35401082  0.61141347  1  2.901577  0.013881  2.186108  2.4482  0.02486  4.868739  0.014
U  U6  1  0.38821887  0.14599276  0.11141559  1  2.901922  0.013892  2.186093  2.44802  0.024881  4.868802  0.014
U  U7  1  0.61178397  0.64598784  0.38858878  1  2.901703  0.013893  2.186065  2.448046  0.024882  4.868656  0.014
Ni  Ni8  1  0.00000104  0.00000005  0.99999627  1  1.123874  1.515206  0.648963  0.684396  1.709548  2.573824  1.502
Ni  Ni9  1  0.99999904  0.49999774  0.50000019  1  1.123911  1.515212  0.648971  0.684251  1.709555  2.573947  1.502
Ni  Ni10  1  0.49999655  0.99999737  0.50000059  1  1.122569  1.51501  0.649863  0.682854  1.709305  2.571642  1.501
Ni  Ni11  1  0.50000287  0.49999898  0.00000005  1  1.122499  1.514993  0.64988  0.682969  1.70929  2.571565  1.501
H  H12  1  0.07821858  0.06058308  0.85544820  1  0.125044  0.000678  0.12953  0.142167  0.000167  0.944567  0.001
H  H13  1  0.92177450  0.56057961  0.64454356  1  0.125366  0.000677  0.129503  0.142199  0.000167  0.944478  0.001
H  H14  1  0.92178449  0.93941364  0.14454536  1  0.125  0.000677  0.129504  0.142175  0.000167  0.944617  0.001
H  H15  1  0.07821625  0.43941389  0.35545271  1  0.125022  0.000677  0.129505  0.142199  0.000167  0.944555  0.001
H  H16  1  0.99450146  0.13537904  0.88588691  1  0.099142  0.00074  0.126026  0.132581  7.6e-05  0.970658  0.0
H  H17  1  0.00549489  0.63537796  0.61410923  1  0.099142  0.000741  0.12604  0.132587  7.6e-05  0.970629  0.0
H  H18  1  0.00549924  0.86462091  0.11410857  1  0.099049  0.00074  0.126014  0.132551  7.6e-05  0.970626  0.0
H  H19  1  0.99450183  0.36461748  0.38589076  1  0.099027  0.00074  0.12603  0.132594  7.6e-05  0.970545  0.0
H  H20  1  0.78750028  0.00964599  0.82460613  1  0.119016  0.00214  0.120742  0.124378  0.001022  0.99214  0.001
H  H21  1  0.21249527  0.50964691  0.67539456  1  0.126763  0.002134  0.120751  0.124447  0.001022  0.992104  0.001
H  H22  1  0.21249585  0.99034815  0.17538924  1  0.119187  0.002139  0.120757  0.12446  0.001022  0.992109  0.001
H  H23  1  0.78750137  0.49034465  0.32460768  1  0.119093  0.00214  0.12076  0.124433  0.001022  0.992069  0.001
H  H24  1  0.82697579  0.09673034  0.88853168  1  0.102178  -0.000226  0.127475  0.135498  -0.000296  0.971209  0.0
H  H25  1  0.17302189  0.59672796  0.61146470  1  0.102169  -0.000226  0.127475  0.135523  -0.000296  0.97122  0.0
H  H26  1  0.17301981  0.90327155  0.11145737  1  0.101769  -0.000226  0.12747  0.135486  -0.000296  0.971278  0.0
H  H27  1  0.82697851  0.40326748  0.38853924  1  0.101866  -0.000226  0.12746  0.135464  -0.000296  0.971398  0.0
H  H28  1  0.98613030  0.92692789  0.79388334  1  0.11066  0.002043  0.124041  0.140022  0.000915  0.964103  0.001
H  H29  1  0.01386148  0.42692420  0.70611122  1  0.110846  0.002042  0.123998  0.139882  0.000915  0.963999  0.001
H  H30  1  0.01386435  0.07307206  0.20611067  1  0.110809  0.002043  0.124017  0.139897  0.000915  0.963947  0.001
H  H31  1  0.98613000  0.57306994  0.29388572  1  0.110791  0.002043  0.124007  0.139922  0.000915  0.963988  0.001
H  H32  1  0.88852631  0.88520404  0.83919602  1  0.129099  0.000179  0.13161  0.150127  1.8e-05  0.964433  0.0
H  H33  1  0.11146904  0.38520206  0.66079969  1  0.129104  0.000179  0.131623  0.150115  1.8e-05  0.964429  0.0
H  H34  1  0.11147288  0.11479591  0.16079923  1  0.129116  0.000179  0.131573  0.149997  1.8e-05  0.964452  0.0
H  H35  1  0.88852542  0.61479208  0.33919940  1  0.128891  0.000179  0.131629  0.150101  1.8e-05  0.964482  0.0
H  H36  1  0.67500793  0.90984452  0.61341319  1  0.067877  -0.000184  0.125932  0.131384  -0.000263  0.978685  0.0
H  H37  1  0.32499021  0.40984695  0.88659312  1  0.067939  -0.000184  0.125885  0.131313  -0.000264  0.978661  0.0
H  H38  1  0.32498489  0.09015156  0.38658906  1  0.06797  -0.000184  0.125916  0.131354  -0.000263  0.978606  0.0
H  H39  1  0.67501124  0.59015623  0.11340304  1  0.067844  -0.000184  0.125913  0.131375  -0.000263  0.978737  0.0
H  H40  1  0.71351401  0.99940106  0.67477440  1  0.111593  0.002176  0.120684  0.123482  0.001032  0.998308  0.001
H  H41  1  0.28648475  0.49939890  0.82522736  1  0.111621  0.002175  0.120681  0.123464  0.001032  0.998313  0.001
H  H42  1  0.28647958  0.00059566  0.32522796  1  0.111632  0.002177  0.120646  0.123443  0.001032  0.99833  0.001
H  H43  1  0.71351973  0.50060878  0.17476925  1  0.111378  0.002177  0.120682  0.123468  0.001032  0.998427  0.001
H  H44  1  0.50839504  0.87023997  0.61512421  1  0.105206  0.000751  0.125943  0.135433  8.9e-05  0.971773  0.0
H  H45  1  0.49160904  0.37024173  0.88488132  1  0.105142  0.000751  0.125972  0.135426  8.9e-05  0.971733  0.0
H  H46  1  0.49160665  0.12975869  0.38488616  1  0.105153  0.000751  0.125956  0.135386  8.9e-05  0.971718  0.0
H  H47  1  0.50839759  0.62975757  0.11511957  1  0.105093  0.00075  0.125966  0.135506  8.9e-05  0.971756  0.0
H  H48  1  0.42277929  0.94481926  0.64281259  1  0.100469  0.00066  0.129727  0.143387  0.000152  0.95125  0.001
H  H49  1  0.57721937  0.44482138  0.85718411  1  0.100368  0.00066  0.129662  0.143333  0.000152  0.951161  0.001
H  H50  1  0.57721981  0.05517618  0.35718492  1  0.100455  0.00066  0.129676  0.143364  0.000152  0.950909  0.001
H  H51  1  0.42278731  0.55518050  0.14281509  1  0.100621  0.000659  0.12969  0.143383  0.000152  0.951088  0.001
H  H52  1  0.61220171  0.11831748  0.66768039  1  0.131579  0.000539  0.129343  0.15169  0.000198  0.975568  0.0
H  H53  1  0.38780055  0.61831694  0.83231891  1  0.131572  0.000539  0.129335  0.15171  0.000198  0.975592  0.0
H  H54  1  0.38779714  0.88168118  0.33232389  1  0.131467  0.000539  0.129346  0.151716  0.000198  0.975669  0.0
H  H55  1  0.61221238  0.38168494  0.16767668  1  0.131441  0.000538  0.129337  0.151712  0.000197  0.975591  0.0
H  H56  1  0.50129641  0.08043704  0.69827756  1  0.102306  0.001464  0.12645  0.138901  0.000636  0.955382  0.001
H  H57  1  0.49870479  0.58043760  0.80172446  1  0.102387  0.001463  0.126458  0.138944  0.000636  0.955385  0.001
H  H58  1  0.49869359  0.91956161  0.30171803  1  0.102488  0.001464  0.126461  0.138945  0.000636  0.955291  0.001
H  H59  1  0.50131690  0.41956557  0.19828207  1  0.102369  0.001463  0.126442  0.138908  0.000636  0.955533  0.001
H  H60  1  0.70196179  0.36846865  0.52258915  1  0.089138  -1e-05  0.115268  0.143083  -2.8e-05  0.950197  0.0
H  H61  1  0.29803501  0.86847082  0.97740623  1  0.089217  -1e-05  0.11527  0.143052  -2.8e-05  0.950274  0.0
H  H62  1  0.29803736  0.63153388  0.47740724  1  0.089277  -1e-05  0.115281  0.14307  -2.8e-05  0.950283  0.0
H  H63  1  0.70196635  0.13152784  0.02259218  1  0.089185  -1e-05  0.115261  0.143067  -2.8e-05  0.95022  0.0
H  H64  1  0.63856165  0.27675327  0.54915535  1  0.085618  -3e-06  0.116509  0.137089  -2.1e-05  0.987618  0.0
H  H65  1  0.36143624  0.77675377  0.95083916  1  0.08553  -3e-06  0.116531  0.137103  -2.1e-05  0.987447  0.0
H  H66  1  0.36143745  0.72325120  0.45084216  1  0.08561  -3e-06  0.116535  0.137077  -2.1e-05  0.987496  0.0
H  H67  1  0.63856658  0.22324553  0.04916117  1  0.085562  -3e-06  0.116523  0.137101  -2.1e-05  0.987358  0.0
H  H68  1  0.54130495  0.39899135  0.44175542  1  0.057419  3.4e-05  0.112104  0.120378  9e-06  0.978975  0.0
H  H69  1  0.45869347  0.89899398  0.05823781  1  0.05726  3.4e-05  0.112065  0.120404  9e-06  0.979068  0.0
H  H70  1  0.45869264  0.60101054  0.55824186  1  0.057366  3.4e-05  0.112095  0.120384  9e-06  0.979043  0.0
H  H71  1  0.54130865  0.10100791  0.94176071  1  0.057297  3.4e-05  0.112062  0.120361  9e-06  0.979066  0.0
H  H72  1  0.50509720  0.28899735  0.44002663  1  0.037756  6.2e-05  0.095763  0.088154  4.7e-05  1.013226  0.0
H  H73  1  0.49490063  0.78900205  0.05996721  1  0.037757  6.2e-05  0.095764  0.08821  4.7e-05  1.013271  0.0
H  H74  1  0.49490034  0.71100131  0.55997178  1  0.037792  6.2e-05  0.095776  0.088194  4.7e-05  1.013258  0.0
H  H75  1  0.50510375  0.21099855  0.94003222  1  0.037791  6.2e-05  0.095805  0.088256  4.7e-05  1.013272  0.0
H  H76  1  0.55400953  0.28771014  0.31569468  1  0.103772  7.7e-05  0.108222  0.101337  3.8e-05  0.999249  0.0
H  H77  1  0.44599517  0.78771515  0.18429961  1  0.104196  7.7e-05  0.10823  0.101376  3.8e-05  0.999178  0.0
H  H78  1  0.44598878  0.71228917  0.68430385  1  0.103779  7.7e-05  0.108249  0.101379  3.8e-05  0.999221  0.0
H  H79  1  0.55400922  0.21228738  0.81569982  1  0.10383  7.7e-05  0.108234  0.101365  3.8e-05  0.999262  0.0
H  H80  1  0.63410964  0.37980026  0.33752699  1  0.077452  0.000111  0.104602  0.087605  5.8e-05  0.996875  0.0
H  H81  1  0.36589470  0.87980370  0.16246884  1  0.077545  0.000111  0.10455  0.087538  5.8e-05  0.996894  0.0
H  H82  1  0.36588945  0.62019905  0.66247108  1  0.077545  0.000111  0.104614  0.087615  5.8e-05  0.996855  0.0
H  H83  1  0.63410747  0.12019496  0.83752856  1  0.077532  0.000111  0.104553  0.08758  5.8e-05  0.996767  0.0
H  H84  1  0.77469383  0.26810968  0.28903037  1  0.078576  7e-06  0.110587  0.126094  -1e-06  1.008877  0.0
H  H85  1  0.22531287  0.76810867  0.21096877  1  0.078628  7e-06  0.110586  0.126098  -1e-06  1.00897  0.0
H  H86  1  0.22530525  0.73189027  0.71096770  1  0.078851  7e-06  0.110575  0.126074  -1e-06  1.008988  0.0
H  H87  1  0.77469377  0.23189063  0.78903156  1  0.078848  7e-06  0.110581  0.126074  -1e-06  1.00895  0.0
H  H88  1  0.69084279  0.17941922  0.28828388  1  0.066319  5e-06  0.114011  0.133495  -1e-06  0.978191  0.0
H  H89  1  0.30916502  0.67942046  0.21171439  1  0.066688  5e-06  0.113982  0.133424  -1e-06  0.978225  0.0
H  H90  1  0.30915775  0.82058073  0.71171611  1  0.066379  5e-06  0.114002  0.133496  -1e-06  0.978124  0.0
H  H91  1  0.69083936  0.32057949  0.78828504  1  0.066776  5e-06  0.114003  0.133476  -1e-06  0.978161  0.0
H  H92  1  0.80893956  0.18054682  0.35516450  1  0.095096  2.5e-05  0.119052  0.140035  6e-06  0.980258  0.0
H  H93  1  0.19106594  0.68054770  0.14483456  1  0.094354  2.5e-05  0.119053  0.140051  6e-06  0.980265  0.0
H  H94  1  0.19106023  0.81945248  0.64483538  1  0.095038  2.5e-05  0.119034  0.140039  6e-06  0.980279  0.0
H  H95  1  0.80893840  0.31945225  0.85516599  1  0.094253  2.5e-05  0.11901  0.140004  6e-06  0.980324  0.0
H  H96  1  0.84697547  0.73617975  0.95918570  1  0.096707  -7e-06  0.116396  0.144166  -2e-05  0.978799  0.0
H  H97  1  0.15300916  0.23617291  0.54081085  1  0.096155  -7e-06  0.116496  0.144293  -2e-05  0.978759  0.0
H  H98  1  0.15305138  0.26385051  0.04082614  1  0.096915  -7e-06  0.116445  0.144188  -2e-05  0.978696  0.0
H  H99  1  0.84697922  0.76382123  0.45918733  1  0.096599  -7e-06  0.116414  0.144214  -2e-05  0.978818  0.0
H  H100  1  0.77575540  0.64602585  0.97895729  1  0.07602  -4e-06  0.113724  0.137311  -2.7e-05  0.953535  0.0
H  H101  1  0.22422801  0.14601801  0.52103918  1  0.07581  -4e-06  0.113756  0.137367  -2.7e-05  0.953403  0.0
H  H102  1  0.22427135  0.35399926  0.02103639  1  0.075396  -4e-06  0.113686  0.137062  -2.7e-05  0.953467  0.0
H  H103  1  0.77576040  0.85397614  0.47895844  1  0.075792  -4e-06  0.113729  0.137318  -2.7e-05  0.953451  0.0
H  H104  1  0.97531002  0.71185517  0.06895185  1  0.042936  4.5e-05  0.098229  0.093369  2.8e-05  0.993306  0.0
H  H105  1  0.02468069  0.21185448  0.43103818  1  0.042709  4.5e-05  0.098238  0.093394  2.8e-05  0.993434  0.0
H  H106  1  0.02470685  0.28815832  0.93106134  1  0.043236  4.5e-05  0.098383  0.09351  2.8e-05  0.993231  0.0
H  H107  1  0.97531554  0.78814225  0.56895437  1  0.052177  4.5e-05  0.098211  0.093338  2.8e-05  0.99326  0.0
H  H108  1  0.92917294  0.60464037  0.06405732  1  0.095023  3.6e-05  0.110376  0.120754  1e-05  0.972769  0.0
H  H109  1  0.07081332  0.10463984  0.43593500  1  0.094751  3.6e-05  0.110438  0.120787  1e-05  0.972782  0.0
H  H110  1  0.07084130  0.39536990  0.93594414  1  0.094794  3.6e-05  0.110341  0.120691  1e-05  0.972828  0.0
H  H111  1  0.92918139  0.89535817  0.56405732  1  0.095254  3.6e-05  0.110395  0.120719  1e-05  0.972762  0.0
H  H112  1  0.83834606  0.62774712  0.16858058  1  0.053217  0.0001  0.103336  0.082031  5.3e-05  0.997285  0.0
H  H113  1  0.16165306  0.12774255  0.33141873  1  0.053127  0.0001  0.103346  0.082042  5.3e-05  0.997369  0.0
H  H114  1  0.16165385  0.37225283  0.83141592  1  0.053069  0.0001  0.103369  0.082124  5.3e-05  0.997395  0.0
H  H115  1  0.83834837  0.87225676  0.66857799  1  0.053151  0.0001  0.103353  0.08202  5.3e-05  0.997456  0.0
H  H116  1  0.92155045  0.71759788  0.19065502  1  0.108468  7.3e-05  0.109222  0.104266  3.8e-05  1.007125  0.0
H  H117  1  0.07844785  0.21759431  0.30933726  1  0.10828  7.3e-05  0.109188  0.104289  3.8e-05  1.007011  0.0
H  H118  1  0.07844978  0.28240271  0.80935343  1  0.108472  7.3e-05  0.109241  0.104384  3.8e-05  1.007112  0.0
H  H119  1  0.92155586  0.78240693  0.69065980  1  0.108333  7.3e-05  0.109246  0.104311  3.8e-05  1.006946  0.0
H  H120  1  0.67041540  0.83121227  0.14934196  1  0.113977  1.5e-05  0.11909  0.141045  -1e-06  0.982159  0.0
H  H121  1  0.32958538  0.33121025  0.35066077  1  0.114025  1.5e-05  0.119053  0.140983  -1e-06  0.982118  0.0
H  H122  1  0.32958338  0.16878316  0.85066457  1  0.113913  1.5e-05  0.119021  0.140889  -1e-06  0.982217  0.0
H  H123  1  0.67041955  0.66878841  0.64934441  1  0.114062  1.5e-05  0.119058  0.141017  -1e-06  0.982126  0.0
H  H124  1  0.78570470  0.82687175  0.21890756  1  0.084478  1e-06  0.115227  0.130885  -3e-06  0.970467  0.0
H  H125  1  0.21429539  0.32686937  0.28109280  1  0.084547  1e-06  0.115196  0.130818  -3e-06  0.970514  0.0
H  H126  1  0.21429094  0.17312369  0.78110134  1  0.08447  1e-06  0.115212  0.130832  -3e-06  0.970473  0.0
H  H127  1  0.78570811  0.67312929  0.71890989  1  0.084448  1e-06  0.115241  0.13097  -3e-06  0.970517  0.0
H  H128  1  0.69712330  0.74094953  0.21357320  1  0.080118  7e-06  0.110709  0.126436  -1e-06  1.008053  0.0
H  H129  1  0.30287555  0.24094683  0.28642821  1  0.080129  7e-06  0.110701  0.126419  -1e-06  1.008038  0.0
H  H130  1  0.30287729  0.25904075  0.78642566  1  0.080124  7e-06  0.110676  0.12633  -1e-06  1.008177  0.0
H  H131  1  0.69712945  0.75905054  0.71357528  1  0.080184  7e-06  0.110678  0.126397  -1e-06  1.008178  0.0
C  C132  1  0.99739992  0.07784830  0.85001900  1  0.248377  -0.001317  -0.061853  -0.22198  -0.001796  3.863577  -0.002
C  C133  1  0.00259534  0.57784524  0.64997817  1  0.247964  -0.001317  -0.061867  -0.222136  -0.001796  3.863439  -0.002
C  C134  1  0.00259103  0.92215165  0.14997163  1  0.248647  -0.001318  -0.061795  -0.221814  -0.001796  3.863205  -0.002
C  C135  1  0.99740588  0.42215020  0.35002419  1  0.24842  -0.001318  -0.061869  -0.222003  -0.001797  3.863188  -0.002
C  C136  1  0.95708915  0.10211171  0.76691474  1  1.549956  0.003377  0.200889  0.591062  0.002115  4.192102  0.003
C  C137  1  0.04290243  0.60210934  0.73308186  1  1.55026  0.003377  0.200971  0.591167  0.002115  4.191677  0.003
C  C138  1  0.04290700  0.89788760  0.23308007  1  1.549996  0.003378  0.200821  0.590821  0.002116  4.191815  0.003
C  C139  1  0.95708817  0.39788545  0.26691835  1  1.549986  0.003378  0.200903  0.591075  0.002116  4.191812  0.003
C  C140  1  0.83484998  0.02698435  0.87971218  1  0.227712  0.000851  -0.063638  -0.246504  -1.7e-05  3.872279  -0.001
C  C141  1  0.16514653  0.52698451  0.62028579  1  0.220038  0.000858  -0.063635  -0.24667  -1.7e-05  3.87222  -0.001
C  C142  1  0.16515008  0.97301366  0.12028036  1  0.228243  0.000851  -0.063656  -0.246598  -1.8e-05  3.872157  -0.001
C  C143  1  0.83484853  0.47300576  0.37971792  1  0.228048  0.000851  -0.063603  -0.246454  -1.8e-05  3.872125  -0.001
C  C144  1  0.79489012  0.98236267  0.94556370  1  1.563829  -0.000986  0.228929  0.620968  -0.001728  4.14277  -0.001
C  C145  1  0.20511020  0.48236181  0.55443492  1  1.563848  -0.000985  0.228961  0.621246  -0.001728  4.142655  -0.001
C  C146  1  0.20511285  0.01763857  0.05443269  1  1.562867  -0.000983  0.228926  0.621123  -0.00173  4.14253  -0.001
C  C147  1  0.79488423  0.51763427  0.44556530  1  1.563877  -0.000986  0.228883  0.620946  -0.00173  4.142692  -0.001
C  C148  1  0.96062730  0.92140293  0.84955235  1  0.208818  0.001051  -0.062969  -0.243299  0.000318  3.825256  -0.001
C  C149  1  0.03936759  0.42139811  0.65043985  1  0.207555  0.00105  -0.063004  -0.243123  0.000317  3.825043  -0.001
C  C150  1  0.03936905  0.07859638  0.15043681  1  0.207646  0.001049  -0.062913  -0.24296  0.000317  3.824988  -0.001
C  C151  1  0.96062611  0.57859668  0.34955912  1  0.20877  0.001049  -0.062952  -0.243135  0.000317  3.825103  -0.001
C  C152  1  0.03469443  0.86602526  0.90423266  1  1.573786  6e-06  0.23976  0.653414  -0.000854  4.106776  0.0
C  C153  1  0.96530247  0.36602270  0.59575990  1  1.575647  6e-06  0.239823  0.653381  -0.000854  4.107163  0.0
C  C154  1  0.96530630  0.13397469  0.09576226  1  1.575423  5e-06  0.239685  0.653218  -0.000854  4.107264  0.0
C  C155  1  0.03469290  0.63397209  0.40423535  1  1.574579  6e-06  0.239687  0.653213  -0.000854  4.107219  0.0
C  C156  1  0.66668401  0.97986785  0.62016281  1  0.228029  0.000784  -0.064199  -0.249193  -7.4e-05  3.870917  -0.001
C  C157  1  0.33331541  0.47987160  0.87983908  1  0.228465  0.000783  -0.064129  -0.249058  -7.5e-05  3.870869  -0.001
C  C158  1  0.33331425  0.02012759  0.37983685  1  0.228012  0.000785  -0.064193  -0.249138  -7.3e-05  3.870897  -0.001
C  C159  1  0.66669039  0.52013544  0.12016340  1  0.228722  0.000784  -0.064215  -0.249196  -7.3e-05  3.871024  -0.001
C  C160  1  0.70630274  0.02177224  0.55273833  1  1.617105  -0.001458  0.227558  0.625135  -0.002257  4.133113  -0.002
C  C161  1  0.29369674  0.52177830  0.94726123  1  1.616403  -0.001458  0.227549  0.625092  -0.002257  4.133192  -0.002
C  C162  1  0.29369089  0.97822320  0.44726290  1  1.617025  -0.001458  0.227528  0.625039  -0.002257  4.133009  -0.002
C  C163  1  0.70630999  0.47822488  0.05273685  1  1.617069  -0.001457  0.227457  0.624909  -0.002256  4.133292  -0.002
C  C164  1  0.50396437  0.92855241  0.64975425  1  0.270146  -0.001531  -0.062625  -0.227061  -0.002006  3.877155  -0.002
C  C165  1  0.49603322  0.42855230  0.85024855  1  0.270335  -0.001531  -0.062645  -0.227006  -0.002005  3.876993  -0.002
C  C166  1  0.49602323  0.07144560  0.35024439  1  0.270046  -0.001531  -0.062618  -0.227016  -0.002006  3.876808  -0.002
C  C167  1  0.50397122  0.57145281  0.14974918  1  0.269808  -0.001531  -0.062708  -0.227135  -0.002006  3.87689  -0.002
C  C168  1  0.54229845  0.90659351  0.73328390  1  1.545813  0.003188  0.200233  0.592461  0.00201  4.191716  0.003
C  C169  1  0.45769140  0.40658819  0.76671891  1  1.545858  0.003188  0.200179  0.592377  0.00201  4.191807  0.003
C  C170  1  0.45769040  0.09341225  0.26672230  1  1.545838  0.003186  0.200215  0.592466  0.002009  4.192047  0.003
C  C171  1  0.54231299  0.59341434  0.23328051  1  1.545918  0.003188  0.200122  0.592316  0.00201  4.191479  0.003
C  C172  1  0.53945459  0.08527061  0.64804552  1  0.214037  0.0011  -0.062281  -0.24214  0.000415  3.822818  -0.001
C  C173  1  0.46054369  0.58527225  0.85195379  1  0.213958  0.001099  -0.062353  -0.242323  0.000415  3.822984  -0.001
C  C174  1  0.46053610  0.91472805  0.35195244  1  0.213821  0.0011  -0.062294  -0.242191  0.000415  3.822906  -0.001
C  C175  1  0.53946281  0.41472769  0.14805048  1  0.214195  0.001099  -0.062272  -0.242137  0.000414  3.823011  -0.001
C  C176  1  0.47772325  0.14442019  0.58875535  1  1.607068  -0.000266  0.240915  0.659995  -0.001221  4.097363  0.0
C  C177  1  0.52227611  0.64442264  0.91124349  1  1.607078  -0.000268  0.240951  0.660063  -0.001223  4.097335  0.0
C  C178  1  0.52227514  0.85557589  0.41124092  1  1.607195  -0.000267  0.240943  0.659884  -0.001223  4.09711  0.0
C  C179  1  0.47772721  0.35558054  0.08876428  1  1.606775  -0.00027  0.240951  0.659863  -0.001225  4.097312  0.0
C  C180  1  0.72671763  0.25604582  0.45911779  1  1.376823  2.9e-05  0.261985  0.498244  4.2e-05  4.030308  0.0
C  C181  1  0.27328304  0.75604906  0.04087764  1  1.377279  2.9e-05  0.26194  0.498258  4.2e-05  4.030518  0.0
C  C182  1  0.27327996  0.74395155  0.54087950  1  1.377293  2.9e-05  0.261921  0.498263  4.2e-05  4.030304  0.0
C  C183  1  0.72672211  0.24395218  0.95912190  1  1.377333  2.9e-05  0.26198  0.498277  4.2e-05  4.030544  0.0
C  C184  1  0.65899892  0.31083979  0.49959042  1  -0.037471  -7e-06  -0.144258  -0.287744  -2.9e-05  3.905344  0.0
C  C185  1  0.34099882  0.81084333  0.00040905  1  -0.037483  -7e-06  -0.144214  -0.287605  -2.9e-05  3.905458  0.0
C  C186  1  0.34099700  0.68915758  0.50041059  1  -0.037564  -7e-06  -0.14425  -0.287653  -2.9e-05  3.905335  0.0
C  C187  1  0.65900485  0.18915533  0.99958914  1  -0.037469  -7e-06  -0.144227  -0.287582  -2.9e-05  3.905201  0.0
C  C188  1  0.56851418  0.33309463  0.43646309  1  0.010144  5e-05  -0.153969  -0.159571  3.2e-05  3.906416  0.0
C  C189  1  0.43149068  0.83309973  0.06353287  1  0.010237  5e-05  -0.153927  -0.159791  3.2e-05  3.906445  0.0
C  C190  1  0.43148862  0.66690274  0.56353781  1  0.010173  5e-05  -0.15399  -0.159695  3.2e-05  3.906418  0.0
C  C191  1  0.56850991  0.16690087  0.93646599  1  0.010215  5e-05  -0.153985  -0.159797  3.2e-05  3.90642  0.0
C  C192  1  0.60881586  0.31910904  0.36078979  1  0.225908  0.000124  -0.058172  -0.073679  8.4e-05  3.849206  0.0
C  C193  1  0.39118659  0.81911132  0.13920753  1  0.225367  0.000124  -0.058131  -0.07355  8.4e-05  3.848969  0.0
C  C194  1  0.39118244  0.68089155  0.63920873  1  0.225792  0.000124  -0.058205  -0.073734  8.4e-05  3.849238  0.0
C  C195  1  0.60881619  0.18089186  0.86079393  1  0.225772  0.000124  -0.058166  -0.073641  8.4e-05  3.849145  0.0
C  C196  1  0.74604342  0.21988072  0.32572906  1  0.266849  2.7e-05  -0.121698  -0.261627  2.1e-05  3.882855  0.0
C  C197  1  0.25396146  0.71988437  0.17427156  1  0.267304  2.7e-05  -0.121672  -0.261553  2.1e-05  3.882901  0.0
C  C198  1  0.25395176  0.78011665  0.67427127  1  0.266571  2.7e-05  -0.121639  -0.261596  2.1e-05  3.882806  0.0
C  C199  1  0.74604436  0.28011622  0.82573035  1  0.267023  2.7e-05  -0.121666  -0.261542  2.1e-05  3.88301  0.0
C  C200  1  0.75381153  0.75595128  0.04618103  1  1.346023  7.1e-05  0.261822  0.495833  9.4e-05  4.036914  0.0
C  C201  1  0.24617982  0.25594817  0.45381868  1  1.345994  7e-05  0.261807  0.495913  9.4e-05  4.037064  0.0
C  C202  1  0.24620173  0.24405834  0.95382652  1  1.345863  7e-05  0.261843  0.495729  9.4e-05  4.036641  0.0
C  C203  1  0.75381393  0.74404726  0.54617917  1  1.34599  7e-05  0.261766  0.495853  9.4e-05  4.037212  0.0
C  C204  1  0.82137526  0.70054845  0.00597624  1  -0.030579  -1.3e-05  -0.146379  -0.290183  -3.1e-05  3.908021  0.0
C  C205  1  0.17861209  0.20054568  0.49402067  1  -0.030923  -1.3e-05  -0.146436  -0.29031  -3.1e-05  3.907981  0.0
C  C206  1  0.17864434  0.29946891  0.99402488  1  -0.030527  -1.3e-05  -0.146443  -0.28987  -3.1e-05  3.907911  0.0
C  C207  1  0.82138166  0.79944846  0.50597718  1  -0.030316  -1.3e-05  -0.146434  -0.290256  -3.1e-05  3.907918  0.0
C  C208  1  0.90760538  0.67202442  0.07021010  1  -0.049891  4.4e-05  -0.151027  -0.148461  2.6e-05  3.890817  0.0
C  C209  1  0.09238114  0.17202076  0.42978445  1  -0.048515  4.4e-05  -0.151107  -0.148534  2.6e-05  3.890765  0.0
C  C210  1  0.09240633  0.32799166  0.92979779  1  -0.049198  4.4e-05  -0.151103  -0.14854  2.6e-05  3.890674  0.0
C  C211  1  0.90760952  0.82797726  0.57021407  1  -0.059448  4.4e-05  -0.151029  -0.148398  2.6e-05  3.890804  0.0
C  C212  1  0.86598139  0.68751022  0.14529696  1  0.243745  9.7e-05  -0.058591  -0.073881  6.6e-05  3.85141  0.0
C  C213  1  0.13401729  0.18750551  0.35470165  1  0.244248  9.7e-05  -0.058587  -0.073943  6.6e-05  3.851534  0.0
C  C214  1  0.13402445  0.31249747  0.85470439  1  0.243581  9.7e-05  -0.058655  -0.074125  6.6e-05  3.851422  0.0
C  C215  1  0.86598494  0.81249830  0.64529406  1  0.24413  9.7e-05  -0.058652  -0.073897  6.6e-05  3.851599  0.0
C  C216  1  0.73018088  0.78900500  0.17919187  1  0.226694  1.9e-05  -0.120662  -0.260208  9e-06  3.883472  0.0
C  C217  1  0.26981747  0.28900084  0.32080884  1  0.226473  1.9e-05  -0.120574  -0.259992  9e-06  3.883329  0.0
C  C218  1  0.26981958  0.21099108  0.82081037  1  0.226671  1.9e-05  -0.120492  -0.259706  9e-06  3.883263  0.0
C  C219  1  0.73018364  0.71099588  0.67919634  1  0.226451  1.9e-05  -0.120641  -0.260222  9e-06  3.883617  0.0
N  N220  1  0.94345358  0.00744494  0.88186710  1  -1.017693  0.075498  -0.336045  -0.037907  0.042513  3.564597  0.066
N  N221  1  0.05654365  0.50744405  0.61812930  1  -1.017677  0.075498  -0.336027  -0.03771  0.042513  3.564252  0.066
N  N222  1  0.05654485  0.99255243  0.11812804  1  -1.017865  0.0755  -0.336049  -0.037992  0.042514  3.564527  0.066
N  N223  1  0.94345234  0.49255138  0.38187001  1  -1.017668  0.075504  -0.336007  -0.037849  0.042516  3.564241  0.066
N  N224  1  0.55766897  0.99864812  0.61743595  1  -1.01472  0.074982  -0.338769  -0.036734  0.042126  3.567063  0.065
N  N225  1  0.44232978  0.49864712  0.88256581  1  -1.014829  0.074975  -0.338698  -0.036681  0.042122  3.567131  0.065
N  N226  1  0.44232151  0.00134732  0.38256765  1  -1.014482  0.074968  -0.338663  -0.036665  0.042118  3.567344  0.065
N  N227  1  0.55768072  0.50135541  0.11743339  1  -1.014656  0.074984  -0.338623  -0.036668  0.042124  3.56724  0.065
N  N228  1  0.69650813  0.26160165  0.38294904  1  -1.221716  -6e-06  -0.265768  -0.039883  -3.4e-05  3.633084  0.0
N  N229  1  0.30349409  0.76160298  0.11704661  1  -1.222188  -6e-06  -0.265782  -0.039956  -3.4e-05  3.632854  0.0
N  N230  1  0.30348872  0.73839895  0.61704757  1  -1.22217  -6e-06  -0.265779  -0.039875  -3.4e-05  3.632955  0.0
N  N231  1  0.69651108  0.23839504  0.88295237  1  -1.222222  -6e-06  -0.265806  -0.040014  -3.4e-05  3.633085  0.0
N  N232  1  0.78053762  0.74713185  0.12248792  1  -1.180224  1.4e-05  -0.266809  -0.042208  -1.4e-05  3.632191  0.0
N  N233  1  0.21945598  0.24712615  0.37751157  1  -1.180333  1.4e-05  -0.266824  -0.042349  -1.4e-05  3.632454  0.0
N  N234  1  0.21946660  0.25287584  0.87751602  1  -1.180019  1.4e-05  -0.266904  -0.042485  -1.4e-05  3.63209  0.0
N  N235  1  0.78054222  0.75286928  0.62248977  1  -1.180179  1.4e-05  -0.26679  -0.042339  -1.4e-05  3.632119  0.0
O  O236  1  0.76065524  0.18429066  0.64829576  1  -0.89454  -0.000405  -0.764271  -0.737284  -0.000648  1.844022  0.0
O  O237  1  0.23933771  0.68428953  0.85169584  1  -0.894518  -0.000405  -0.764356  -0.73726  -0.000648  1.84412  0.0
O  O238  1  0.23933780  0.81571123  0.35170028  1  -0.894658  -0.000405  -0.764302  -0.737279  -0.000648  1.844048  0.0
O  O239  1  0.76066220  0.31570655  0.14830065  1  -0.89451  -0.000405  -0.764319  -0.737308  -0.000649  1.844163  0.0
O  O240  1  0.99609157  0.13359715  0.58120548  1  -0.852649  -0.000521  -0.760107  -0.693298  -0.000714  1.767605  -0.001
O  O241  1  0.00390461  0.63360538  0.91879517  1  -0.852665  -0.000521  -0.760166  -0.693445  -0.000714  1.767405  -0.001
O  O242  1  0.00389785  0.86639571  0.41878549  1  -0.852774  -0.000521  -0.760153  -0.693313  -0.000714  1.767396  -0.001
O  O243  1  0.99609796  0.36639651  0.08121192  1  -0.852691  -0.000521  -0.760139  -0.693354  -0.000714  1.767463  -0.001
O  O244  1  0.49751314  0.89750686  0.91579737  1  -0.850281  -0.000574  -0.755803  -0.684074  -0.00078  1.7919  -0.001
O  O245  1  0.50248254  0.39749484  0.58421199  1  -0.850178  -0.000574  -0.755863  -0.684259  -0.000779  1.791598  -0.001
O  O246  1  0.50250061  0.10251308  0.08421762  1  -0.850421  -0.000574  -0.755807  -0.684313  -0.00078  1.791347  -0.001
O  O247  1  0.49751193  0.60250447  0.41578710  1  -0.850341  -0.000574  -0.755959  -0.684328  -0.00078  1.791603  -0.001
O  O248  1  0.72769461  0.81774224  0.85679867  1  -0.892078  -0.00055  -0.767893  -0.744404  -0.000783  1.829613  -0.001
O  O249  1  0.27229326  0.31774475  0.64320395  1  -0.89225  -0.00055  -0.768196  -0.744714  -0.000782  1.829767  -0.001
O  O250  1  0.27229985  0.18225642  0.14320042  1  -0.892397  -0.00055  -0.76814  -0.744531  -0.000782  1.830001  -0.001
O  O251  1  0.72770857  0.68225713  0.35680247  1  -0.892169  -0.00055  -0.768026  -0.744557  -0.000782  1.829658  -0.001
O  O252  1  0.90599671  0.04916280  0.72033175  1  -1.165095  0.000844  -0.340674  -0.599143  0.000405  2.205332  0.0
O  O253  1  0.09399148  0.54915993  0.77966667  1  -1.165218  0.000844  -0.340641  -0.599191  0.000405  2.205236  0.0
O  O254  1  0.09400320  0.95083586  0.27966474  1  -1.164848  0.000844  -0.340673  -0.599157  0.000405  2.205424  0.0
O  O255  1  0.90599372  0.45083486  0.22033501  1  -1.164956  0.000844  -0.340702  -0.599245  0.000405  2.205363  0.0
O  O256  1  0.97606449  0.17804439  0.74518620  1  -1.155133  0.000934  -0.348657  -0.602054  0.000379  2.221352  0.0
O  O257  1  0.02392444  0.67804193  0.75480992  1  -1.155037  0.000934  -0.348761  -0.602096  0.000379  2.221182  0.0
O  O258  1  0.02392862  0.82195427  0.25480815  1  -1.155163  0.000934  -0.348634  -0.601938  0.000379  2.22128  0.0
O  O259  1  0.97606848  0.32195415  0.24518951  1  -1.155132  0.000934  -0.348646  -0.602025  0.000379  2.221307  0.0
O  O260  1  0.69806728  0.97557732  0.93931163  1  -1.150305  0.005029  -0.385461  -0.61204  0.002535  2.31473  0.004
O  O261  1  0.30193510  0.47557424  0.56069240  1  -1.150278  0.005029  -0.385462  -0.612201  0.002536  2.314701  0.004
O  O262  1  0.30193400  0.02442972  0.06068904  1  -1.150248  0.005027  -0.385434  -0.612079  0.002535  2.314702  0.004
O  O263  1  0.69806386  0.52442184  0.43930906  1  -1.150415  0.005027  -0.385439  -0.612051  0.002534  2.314938  0.004
O  O264  1  0.85635892  0.95595149  0.00296930  1  -1.128604  0.068407  -0.284727  -0.491958  0.037972  2.311906  0.063
O  O265  1  0.14364492  0.45595181  0.49702977  1  -1.128663  0.068399  -0.28474  -0.492056  0.037967  2.311916  0.063
O  O266  1  0.14364487  0.04405104  0.99702550  1  -1.127801  0.068401  -0.284714  -0.49203  0.037969  2.311655  0.063
O  O267  1  0.85635474  0.54404298  0.50297349  1  -1.128593  0.068411  -0.284689  -0.49196  0.037972  2.311647  0.063
O  O268  1  0.07498324  0.80332251  0.87360752  1  -1.173439  0.004964  -0.38893  -0.623898  0.002513  2.336275  0.003
O  O269  1  0.92501407  0.30331783  0.62638573  1  -1.174162  0.004965  -0.388887  -0.623798  0.002514  2.336402  0.003
O  O270  1  0.92501525  0.19667615  0.12638592  1  -1.174188  0.004964  -0.388852  -0.623787  0.002513  2.336455  0.003
O  O271  1  0.07498130  0.69667567  0.37360952  1  -1.174146  0.004964  -0.38891  -0.623803  0.002514  2.336352  0.003
O  O272  1  0.05125755  0.88201039  0.97539157  1  -1.116472  0.066202  -0.29075  -0.509889  0.036761  2.329673  0.061
O  O273  1  0.94874394  0.38200527  0.52460279  1  -1.116654  0.0662  -0.290844  -0.509981  0.036761  2.329892  0.061
O  O274  1  0.94874168  0.11799214  0.02460255  1  -1.116644  0.066203  -0.290821  -0.509944  0.036763  2.329779  0.061
O  O275  1  0.05125749  0.61798887  0.47539393  1  -1.116571  0.066203  -0.290776  -0.509873  0.036763  2.329835  0.061
O  O276  1  0.80231219  0.03481065  0.56010957  1  -1.163095  0.004297  -0.383067  -0.615697  0.002094  2.296617  0.003
O  O277  1  0.19768891  0.53481894  0.93988908  1  -1.162854  0.004295  -0.383072  -0.615673  0.002093  2.296763  0.003
O  O278  1  0.19767999  0.96518350  0.43988918  1  -1.163214  0.004296  -0.383008  -0.61562  0.002094  2.29653  0.003
O  O279  1  0.80231774  0.46518230  0.06011124  1  -1.163184  0.004295  -0.383009  -0.615564  0.002093  2.296773  0.003
O  O280  1  0.64445186  0.03968836  0.49264235  1  -1.136473  0.069499  -0.285386  -0.493261  0.038586  2.30834  0.064
O  O281  1  0.35554984  0.53969776  0.00735743  1  -1.136503  0.069496  -0.285401  -0.493279  0.038585  2.308192  0.064
O  O282  1  0.35554248  0.96030836  0.50736012  1  -1.136386  0.069499  -0.28544  -0.493303  0.038585  2.308312  0.064
O  O283  1  0.64445458  0.46030413  0.99264086  1  -1.136415  0.069503  -0.285369  -0.493243  0.038587  2.308266  0.064
O  O284  1  0.59733803  0.95881424  0.77812392  1  -1.166241  0.000743  -0.340718  -0.596344  0.000334  2.215618  0.0
O  O285  1  0.40266284  0.45881393  0.72187707  1  -1.166219  0.000744  -0.340768  -0.596379  0.000334  2.215709  0.0
O  O286  1  0.40266393  0.04119022  0.22187912  1  -1.16612  0.000743  -0.340779  -0.596364  0.000334  2.215855  0.0
O  O287  1  0.59734688  0.54118989  0.27812258  1  -1.166178  0.000743  -0.340658  -0.596297  0.000334  2.215501  0.0
O  O288  1  0.51727043  0.83326394  0.75731982  1  -1.157946  0.000859  -0.351948  -0.606956  0.000346  2.22944  0.0
O  O289  1  0.48270586  0.33324972  0.74268842  1  -1.157924  0.000859  -0.351846  -0.606938  0.000346  2.229435  0.0
O  O290  1  0.48270144  0.16674890  0.24269122  1  -1.157995  0.000858  -0.351855  -0.606928  0.000346  2.229509  0.0
O  O291  1  0.51729542  0.66675087  0.25731224  1  -1.157983  0.000858  -0.35184  -0.60691  0.000346  2.229391  0.0
O  O292  1  0.45165979  0.21606946  0.61485087  1  -1.177771  0.004063  -0.390628  -0.63399  0.001974  2.359691  0.003
O  O293  1  0.54832983  0.71607397  0.88515268  1  -1.177775  0.00406  -0.390601  -0.633865  0.001972  2.35986  0.003
O  O294  1  0.54834312  0.78393113  0.38514720  1  -1.17788  0.004061  -0.390691  -0.633934  0.001972  2.359701  0.003
O  O295  1  0.45166268  0.28393630  0.11485802  1  -1.177937  0.004059  -0.390736  -0.633922  0.001972  2.359862  0.003
O  O296  1  0.45645176  0.12259607  0.51897236  1  -1.141721  0.066173  -0.291439  -0.510561  0.036918  2.324534  0.061
O  O297  1  0.54355502  0.62259464  0.98102931  1  -1.141652  0.066182  -0.291464  -0.510669  0.036922  2.32431  0.061
O  O298  1  0.54354644  0.87740195  0.48102899  1  -1.141533  0.066185  -0.291445  -0.510516  0.036924  2.324257  0.061
O  O299  1  0.45645146  0.37740531  0.01897553  1  -1.141406  0.066184  -0.291438  -0.51051  0.036924  2.324198  0.061
O  O300  1  0.80296705  0.21208552  0.48993062  1  -1.176208  0.000259  -0.363045  -0.614798  0.000171  2.368601  0.0
O  O301  1  0.19703401  0.71208658  0.01006888  1  -1.176138  0.000259  -0.363046  -0.614882  0.000171  2.368627  0.0
O  O302  1  0.19702815  0.78791056  0.51006915  1  -1.176171  0.000259  -0.363013  -0.614872  0.000171  2.368391  0.0
O  O303  1  0.80296888  0.28791079  0.98992976  1  -1.17624  0.000259  -0.363003  -0.614828  0.000171  2.368727  0.0
O  O304  1  0.68071396  0.80308681  0.01510485  1  -1.176031  0.000287  -0.356602  -0.610675  0.000182  2.370797  0.0
O  O305  1  0.31927594  0.30308394  0.48489913  1  -1.175795  0.000287  -0.35662  -0.610718  0.000182  2.370779  0.0
O  O306  1  0.31929642  0.19692088  0.98489774  1  -1.175991  0.000287  -0.356589  -0.610562  0.000182  2.370646  0.0
O  O307  1  0.68072204  0.69691343  0.51510842  1  -1.175966  0.000287  -0.356504  -0.610566  0.000182  2.371051  0.0
