# generated using pymatgen
data_Cu2H10C9Br2N3
_symmetry_space_group_name_H-M   'P 1'
_cell_length_a   9.82086055
_cell_length_b   9.83711926
_cell_length_c   12.93950000
_cell_angle_alpha   92.93445674
_cell_angle_beta   92.93931907
_cell_angle_gamma   101.02260259
_symmetry_Int_Tables_number   1
_chemical_formula_structural   Cu2H10C9Br2N3
_chemical_formula_sum   'Cu8 H40 C36 Br8 N12'
_cell_volume   1223.02134889
_cell_formula_units_Z   4
loop_
 _symmetry_equiv_pos_site_id
 _symmetry_equiv_pos_as_xyz
  1  'x, y, z'
loop_
 _atom_site_type_symbol
 _atom_site_label
 _atom_site_symmetry_multiplicity
 _atom_site_fract_x
 _atom_site_fract_y
 _atom_site_fract_z
 _atom_site_occupancy
 _atom_site_pbe_bader_charge
 _atom_site_pbe_bader_spin_density
 _atom_site_pbe_cm5_charge
 _atom_site_pbe_ddec_charge
 _atom_site_pbe_ddec_spin_density
 _atom_site_pbe_ddec_sum_bond_order
 _atom_site_pbe_magmom
Cu  Cu0  1  0.99815883  0.86523192  0.47539843  1  0.500771  0  0.295071  0.219053  0  2.588095  0
Cu  Cu1  1  0.13477435  0.00149218  0.02472069  1  0.500334  0  0.295015  0.21935  0  2.586945  0
Cu  Cu2  1  0.00184698  0.13476905  0.52460214  1  0.500196  0  0.295085  0.219069  0  2.588037  0
Cu  Cu3  1  0.86522372  0.99850050  0.97527616  1  0.500887  0  0.294992  0.219367  0  2.586857  0
Cu  Cu4  1  0.08546381  0.12100845  0.32619721  1  0.544821  0  0.320158  0.227623  0  2.601928  0
Cu  Cu5  1  0.87901534  0.91449865  0.17398186  1  0.544579  0  0.320399  0.227471  0  2.601075  0
Cu  Cu6  1  0.91453365  0.87898630  0.67380357  1  0.544749  0  0.320164  0.227589  0  2.601956  0
Cu  Cu7  1  0.12098068  0.08549921  0.82601512  1  0.544555  0  0.320438  0.227577  0  2.600991  0
H  H8  1  0.57615074  0.86183769  0.27338511  1  0.123534  0  0.08916  0.117732  0  1.056956  0
H  H9  1  0.13806546  0.42412882  0.22647315  1  0.120876  0  0.089305  0.117549  0  1.055987  0
H  H10  1  0.42385812  0.13816847  0.72661346  1  0.123641  0  0.089196  0.11779  0  1.056883  0
H  H11  1  0.86192934  0.57586801  0.77352606  1  0.120946  0  0.089289  0.117538  0  1.05595  0
H  H12  1  0.59536556  0.64485055  0.35819074  1  0.075338  0  0.097758  0.097382  0  1.019757  0
H  H13  1  0.35534758  0.40492665  0.14170809  1  0.078089  0  0.097667  0.097251  0  1.01976  0
H  H14  1  0.40464920  0.35515976  0.64181363  1  0.075106  0  0.097775  0.097404  0  1.019678  0
H  H15  1  0.64464477  0.59506810  0.85828785  1  0.07809  0  0.097637  0.097225  0  1.019795  0
H  H16  1  0.40579257  0.52475526  0.45987025  1  0.090749  0  0.095504  0.093507  0  1.033889  0
H  H17  1  0.47571038  0.59421513  0.04004956  1  0.088378  0  0.095481  0.093336  0  1.034703  0
H  H18  1  0.59422403  0.47525402  0.54013416  1  0.091249  0  0.095496  0.093461  0  1.0339  0
H  H19  1  0.52428198  0.40577962  0.95994638  1  0.088328  0  0.095489  0.093329  0  1.034773  0
H  H20  1  0.19590535  0.62630211  0.48983510  1  0.082092  0  0.096239  0.114374  0  1.040869  0
H  H21  1  0.37407381  0.80382856  0.01010148  1  0.080258  0  0.096324  0.114544  0  1.040863  0
H  H22  1  0.80410819  0.37370198  0.51017131  1  0.082032  0  0.096303  0.114484  0  1.040773  0
H  H23  1  0.62591733  0.19616516  0.98989515  1  0.080185  0  0.096319  0.114491  0  1.04086  0
H  H24  1  0.44225951  0.02990060  0.17595799  1  0.082654  0  0.106247  0.099271  0  0.99332  0
H  H25  1  0.97014023  0.55798887  0.32413627  1  0.10217  0  0.106536  0.099754  0  0.993089  0
H  H26  1  0.55773732  0.97010141  0.82403918  1  0.082304  0  0.10625  0.099288  0  0.993273  0
H  H27  1  0.02985681  0.44200899  0.67586539  1  0.102186  0  0.10654  0.099751  0  0.993101  0
H  H28  1  0.32199120  0.13754276  0.20584334  1  0.100411  0  0.101718  0.084475  0  1.034419  0
H  H29  1  0.86208871  0.67783097  0.29419057  1  0.099616  0  0.101965  0.084675  0  1.033871  0
H  H30  1  0.67800380  0.86245511  0.79415669  1  0.100511  0  0.101719  0.084457  0  1.034444  0
H  H31  1  0.13790955  0.32216793  0.70581117  1  0.09923  0  0.101981  0.084693  0  1.033854  0
H  H32  1  0.47631317  0.25609814  0.35372852  1  0.036468  0  0.089104  0.088458  0  0.990165  0
H  H33  1  0.74368785  0.52351212  0.14626362  1  0.035662  0  0.089058  0.088425  0  0.990042  0
H  H34  1  0.52368080  0.74390491  0.64626859  1  0.036671  0  0.089114  0.088478  0  0.990153  0
H  H35  1  0.25630940  0.47648678  0.85373731  1  0.035649  0  0.089062  0.08842  0  0.990014  0
H  H36  1  0.58676472  0.13398768  0.34401165  1  0.051718  0  0.088088  0.094576  0  0.996735  0
H  H37  1  0.86629607  0.41358086  0.15605257  1  0.021867  0  0.08827  0.094624  0  0.996537  0
H  H38  1  0.41322803  0.86601433  0.65598768  1  0.051627  0  0.088053  0.094571  0  0.996827  0
H  H39  1  0.13370097  0.58641701  0.84394832  1  0.021857  0  0.088243  0.094563  0  0.996588  0
H  H40  1  0.54139877  0.32610591  0.17089012  1  0.009849  0  0.084376  0.075344  0  1.001819  0
H  H41  1  0.67366567  0.45830879  0.32911619  1  0.008723  0  0.084232  0.075429  0  1.001621  0
H  H42  1  0.45860009  0.67389611  0.82910790  1  0.009898  0  0.084367  0.075341  0  1.001815  0
H  H43  1  0.32633015  0.54168803  0.67088538  1  0.008763  0  0.08424  0.075424  0  1.001609  0
H  H44  1  0.65714345  0.20933014  0.17276351  1  0.039157  0  0.08453  0.083675  0  1.005816  0
H  H45  1  0.79087216  0.34299822  0.32721231  1  0.039084  0  0.084615  0.083641  0  1.00614  0
H  H46  1  0.34285277  0.79066876  0.82723583  1  0.039214  0  0.084517  0.083638  0  1.005841  0
H  H47  1  0.20912448  0.65699757  0.67278770  1  0.042031  0  0.084607  0.083612  0  1.006163  0
C  C48  1  0.27082739  0.80222327  0.39947178  1  0.373731  0  0.093664  0.117183  0  4.055327  0
C  C49  1  0.19795081  0.72911286  0.10054534  1  0.375018  0  0.094141  0.117744  0  4.05675  0
C  C50  1  0.72918453  0.19778289  0.60053464  1  0.374009  0  0.093615  0.117186  0  4.055443  0
C  C51  1  0.80204420  0.27088501  0.89945469  1  0.375086  0  0.094118  0.117726  0  4.056746  0
C  C52  1  0.37661766  0.86712879  0.33837683  1  0.351654  0  0.106613  0.071495  0  4.011819  0
C  C53  1  0.13291161  0.62350039  0.16162192  1  0.35246  0  0.10636  0.071394  0  4.01158  0
C  C54  1  0.62339038  0.13287322  0.66162233  1  0.351367  0  0.106648  0.071524  0  4.011792  0
C  C55  1  0.86708319  0.37649643  0.83837806  1  0.352454  0  0.106377  0.071426  0  4.011528  0
C  C56  1  0.49520088  0.81210816  0.32093488  1  -0.0279  0  -0.093742  -0.144789  0  3.976784  0
C  C57  1  0.18787362  0.50501038  0.17897479  1  -0.022216  0  -0.093699  -0.14507  0  3.976075  0
C  C58  1  0.50480838  0.18790008  0.67906533  1  -0.028164  0  -0.093716  -0.144746  0  3.976534  0
C  C59  1  0.81212178  0.49498956  0.82102456  1  -0.022209  0  -0.093713  -0.145104  0  3.975939  0
C  C60  1  0.50354188  0.69011600  0.36802292  1  -0.017356  0  -0.087163  -0.0641  0  3.982753  0
C  C61  1  0.31005570  0.49664257  0.13190238  1  -0.019526  0  -0.086856  -0.063649  0  3.983371  0
C  C62  1  0.49647044  0.30989224  0.63197665  1  -0.016845  0  -0.087204  -0.064259  0  3.983042  0
C  C63  1  0.68994032  0.50335529  0.86809847  1  -0.019558  0  -0.086794  -0.063616  0  3.98339  0
C  C64  1  0.39701679  0.62328974  0.42799052  1  -0.029471  0  -0.092288  -0.085688  0  4.011089  0
C  C65  1  0.37703788  0.60299179  0.07194637  1  0.028345  0  -0.092441  -0.085144  0  4.011426  0
C  C66  1  0.60299919  0.37672161  0.57201472  1  -0.029682  0  -0.092292  -0.085457  0  4.011241  0
C  C67  1  0.62295590  0.39700504  0.92805126  1  0.028394  0  -0.092447  -0.085136  0  4.011497  0
C  C68  1  0.27933325  0.67776248  0.44505201  1  0.010526  0  -0.08932  -0.1386  0  3.961682  0
C  C69  1  0.32254662  0.72053751  0.05489811  1  -0.047387  0  -0.089354  -0.13934  0  3.96281  0
C  C70  1  0.72067724  0.32224161  0.55495350  1  0.010294  0  -0.089395  -0.138884  0  3.961817  0
C  C71  1  0.67744695  0.27945827  0.94510102  1  -0.047414  0  -0.089395  -0.139307  0  3.962696  0
C  C72  1  0.40230149  0.08628370  0.23968701  1  0.267061  0  -0.052107  -0.09108  0  3.876178  0
C  C73  1  0.91359165  0.59776294  0.26038360  1  0.248678  0  -0.052167  -0.091993  0  3.877775  0
C  C74  1  0.59769596  0.91371624  0.76031088  1  0.267136  0  -0.05208  -0.091041  0  3.876059  0
C  C75  1  0.08640437  0.40223492  0.73961801  1  0.248901  0  -0.052182  -0.092029  0  3.877749  0
C  C76  1  0.52033968  0.19019956  0.29829170  1  -0.030278  0  -0.16395  -0.164441  0  3.919839  0
C  C77  1  0.80978413  0.47971706  0.20174342  1  0.000393  0  -0.16396  -0.164233  0  3.91964  0
C  C78  1  0.47965389  0.80980141  0.70170685  1  -0.030143  0  -0.163934  -0.164478  0  3.919876  0
C  C79  1  0.19021291  0.52028080  0.79825747  1  0.000425  0  -0.16393  -0.164155  0  3.919472  0
C  C80  1  0.60868627  0.27817986  0.22282879  1  -0.011685  0  -0.164405  -0.131081  0  3.918269  0
C  C81  1  0.72180829  0.39128434  0.27715832  1  -0.027726  0  -0.164603  -0.131479  0  3.918778  0
C  C82  1  0.39130995  0.72181904  0.77717056  1  -0.011782  0  -0.164406  -0.131063  0  3.918227  0
C  C83  1  0.27818875  0.60871353  0.72284179  1  -0.030771  0  -0.164592  -0.131415  0  3.9186  0
Br  Br84  1  0.83875791  0.96806031  0.36085075  1  -0.515745  0  -0.212909  -0.336531  0  2.054736  0
Br  Br85  1  0.03214193  0.16103779  0.13919353  1  -0.515555  0  -0.213263  -0.336902  0  2.051481  0
Br  Br86  1  0.16125095  0.03194067  0.63914995  1  -0.515742  0  -0.212949  -0.336597  0  2.054729  0
Br  Br87  1  0.96787122  0.83895904  0.86079866  1  -0.515671  0  -0.213244  -0.33687  0  2.051509  0
Br  Br88  1  0.90163004  0.66867453  0.56765182  1  -0.541081  0  -0.256697  -0.37728  0  1.783419  0
Br  Br89  1  0.33140521  0.09826988  0.93239330  1  -0.541071  0  -0.256665  -0.377388  0  1.785714  0
Br  Br90  1  0.09837068  0.33132126  0.43234527  1  -0.541054  0  -0.256704  -0.377286  0  1.783414  0
Br  Br91  1  0.66859203  0.90173421  0.06760629  1  -0.541116  0  -0.256644  -0.37736  0  1.785805  0
N  N92  1  0.33190638  0.98196723  0.30520135  1  -0.770228  0  -0.124657  0.140551  0  3.629915  0
N  N93  1  0.01800562  0.66820550  0.19490814  1  -0.771656  0  -0.124342  0.140887  0  3.630845  0
N  N94  1  0.66809636  0.01803375  0.69479756  1  -0.77049  0  -0.124642  0.140589  0  3.629918  0
N  N95  1  0.98199080  0.33179444  0.80509280  1  -0.771483  0  -0.124363  0.140927  0  3.630826  0
N  N96  1  0.20710149  0.98815903  0.34314074  1  -0.159221  0  -0.149243  -0.03381  0  3.537474  0
N  N97  1  0.01185279  0.79286448  0.15704418  1  -0.157656  0  -0.149529  -0.03379  0  3.537179  0
N  N98  1  0.79290187  0.01183987  0.65685811  1  -0.158996  0  -0.149349  -0.033995  0  3.537735  0
N  N99  1  0.98814221  0.20713338  0.84295508  1  -0.157843  0  -0.149598  -0.033932  0  3.536934  0
N  N100  1  0.16912590  0.88055527  0.39973695  1  -0.628582  0  -0.262093  -0.157126  0  3.593504  0
N  N101  1  0.11958300  0.83074065  0.10038179  1  -0.630611  0  -0.262133  -0.157262  0  3.592431  0
N  N102  1  0.83088092  0.11944571  0.60026521  1  -0.628637  0  -0.262043  -0.157021  0  3.593594  0
N  N103  1  0.88041058  0.16925514  0.89961733  1  -0.630482  0  -0.26203  -0.15718  0  3.592163  0
