# generated using pymatgen
data_PrH49C66(N3O4)2
_symmetry_space_group_name_H-M   'P 1'
_cell_length_a   9.29383651
_cell_length_b   13.13744969
_cell_length_c   25.33220170
_cell_angle_alpha   99.67828344
_cell_angle_beta   97.79993111
_cell_angle_gamma   99.61886211
_symmetry_Int_Tables_number   1
_chemical_formula_structural   PrH49C66(N3O4)2
_chemical_formula_sum   'Pr2 H98 C132 N12 O16'
_cell_volume   2963.10376531
_cell_formula_units_Z   2
loop_
 _symmetry_equiv_pos_site_id
 _symmetry_equiv_pos_as_xyz
  1  'x, y, z'
loop_
 _atom_site_type_symbol
 _atom_site_label
 _atom_site_symmetry_multiplicity
 _atom_site_fract_x
 _atom_site_fract_y
 _atom_site_fract_z
 _atom_site_occupancy
 _atom_site_pbe_bader_charge
 _atom_site_pbe_bader_spin_density
 _atom_site_pbe_cm5_charge
 _atom_site_pbe_ddec_charge
 _atom_site_pbe_ddec_spin_density
 _atom_site_pbe_ddec_sum_bond_order
 _atom_site_pbe_magmom
Pr  Pr0  1  0.22616221  0.47226594  0.48815201  1  2.263274  0  1.489406  2.11155  0  2.159029  0
Pr  Pr1  1  0.77383704  0.52772927  0.51184870  1  2.263285  0  1.489406  2.111495  0  2.159073  0
H  H2  1  0.28534223  0.26256645  0.48941813  1  0.625924  0  0.321012  0.409792  0  0.887038  0
H  H3  1  0.71465810  0.73742877  0.51058144  1  0.625998  0  0.321047  0.409845  0  0.886978  0
H  H4  1  0.41831903  0.30216802  0.46039862  1  0.635972  0  0.296857  0.401427  0  0.932082  0
H  H5  1  0.58168108  0.69783035  0.53960201  1  0.635975  0  0.296847  0.40143  0  0.932092  0
H  H6  1  0.94826915  0.36481249  0.41043954  1  0.657066  0  0.295454  0.392492  0  0.953689  0
H  H7  1  0.05173009  0.63518666  0.58956151  1  0.657088  0  0.295439  0.39249  0  0.953707  0
H  H8  1  0.06216525  0.28605427  0.40760829  1  0.630353  0  0.324328  0.410333  0  0.880221  0
H  H9  1  0.93783309  0.71394567  0.59239121  1  0.63035  0  0.324355  0.41035  0  0.880233  0
H  H10  1  0.68051791  0.73870009  0.84534901  1  0.473844  0  0.31403  0.267663  0  0.975941  0
H  H11  1  0.31948243  0.26129907  0.15465248  1  0.473844  0  0.313974  0.267605  0  0.97601  0
H  H12  1  0.35639736  0.86747775  0.27301308  1  0.54333  0  0.298754  0.255989  0  1.03489  0
H  H13  1  0.64360559  0.13252298  0.72698947  1  0.543344  0  0.298775  0.256016  0  1.034893  0
H  H14  1  0.13228008  0.04805637  0.72848963  1  0.525732  0  0.304061  0.262933  0  1.006176  0
H  H15  1  0.86772630  0.95194908  0.27151153  1  0.525749  0  0.30405  0.262925  0  1.006181  0
H  H16  1  0.71924716  0.62032030  0.67150989  1  0.13746  0  0.111826  0.118687  0  1.00043  0
H  H17  1  0.28075513  0.37967413  0.32849010  1  0.137462  0  0.111848  0.118691  0  1.000346  0
H  H18  1  0.69834576  0.69424412  0.76545691  1  0.056228  0  0.094863  0.082958  0  1.071277  0
H  H19  1  0.30165738  0.30575347  0.23454340  1  0.056231  0  0.094877  0.082984  0  1.071206  0
H  H20  1  0.24594746  0.52528888  0.73901085  1  0.074958  0  0.103801  0.106381  0  1.01303  0
H  H21  1  0.75405502  0.47471028  0.26098918  1  0.074946  0  0.103819  0.106367  0  1.013073  0
H  H22  1  0.26856876  0.45298678  0.64322023  1  0.084321  0  0.111229  0.114853  0  0.997134  0
H  H23  1  0.73143157  0.54701238  0.35678087  1  0.084505  0  0.111208  0.114834  0  0.99719  0
H  H24  1  0.16160049  0.52345639  0.89525314  1  0.07574  0  0.096217  0.096836  0  1.059313  0
H  H25  1  0.83839719  0.47654513  0.10474568  1  0.075965  0  0.096212  0.096819  0  1.059367  0
H  H26  1  0.97427961  0.52368310  0.95647994  1  0.053235  0  0.097434  0.093851  0  1.02806  0
H  H27  1  0.02571699  0.47631842  0.04351883  1  0.053213  0  0.097417  0.093835  0  1.027976  0
H  H28  1  0.99475507  0.67792061  0.03164971  1  0.071796  0  0.093563  0.090212  0  1.035099  0
H  H29  1  0.00524111  0.32207934  0.96834969  1  0.071514  0  0.093526  0.090176  0  1.035187  0
H  H30  1  0.20214910  0.83164892  0.04363186  1  0.042434  0  0.093784  0.088915  0  1.022971  0
H  H31  1  0.79785013  0.16835023  0.95636840  1  0.042433  0  0.093779  0.088931  0  1.022972  0
H  H32  1  0.38110693  0.83431335  0.97983859  1  0.054445  0  0.098377  0.100188  0  1.019402  0
H  H33  1  0.61889340  0.16568580  0.02016251  1  0.054407  0  0.098401  0.100207  0  1.019343  0
H  H34  1  0.60078735  0.66478261  0.99521846  1  0.07492  0  0.103424  0.105026  0  0.996397  0
H  H35  1  0.39921620  0.33522048  0.00478157  1  0.074952  0  0.103407  0.105008  0  0.996443  0
H  H36  1  0.77594901  0.76269281  0.07833746  1  0.070296  0  0.09724  0.093994  0  1.041398  0
H  H37  1  0.22405301  0.23731265  0.92166270  1  0.070214  0  0.097244  0.094028  0  1.041423  0
H  H38  1  0.90993542  0.94465409  0.08110823  1  0.07191  0  0.096717  0.08877  0  1.032739  0
H  H39  1  0.09006486  0.05535294  0.91889199  1  0.071607  0  0.096687  0.088734  0  1.032756  0
H  H40  1  0.86613564  0.02934764  0.00130429  1  0.081474  0  0.0965  0.091088  0  1.034874  0
H  H41  1  0.13386355  0.97065545  0.99869434  1  0.081528  0  0.096524  0.091104  0  1.034873  0
H  H42  1  0.68781559  0.93206960  0.91852895  1  0.065986  0  0.097268  0.099057  0  1.030805  0
H  H43  1  0.31218254  0.06793349  0.08147082  1  0.066081  0  0.097283  0.099059  0  1.030738  0
H  H44  1  0.20606121  0.71635702  0.66235049  1  0.113111  0  0.107316  0.10848  0  1.014425  0
H  H45  1  0.79393584  0.28364607  0.33765041  1  0.112741  0  0.107373  0.108548  0  1.014388  0
H  H46  1  0.22035067  0.88873672  0.72181119  1  0.084518  0  0.100139  0.097608  0  1.043887  0
H  H47  1  0.77965071  0.11126637  0.27818913  1  0.084613  0  0.100158  0.09763  0  1.04386  0
H  H48  1  0.49311931  0.04084076  0.62178725  1  0.099197  0  0.105459  0.109208  0  0.99765  0
H  H49  1  0.50688426  0.95915840  0.37821243  1  0.099202  0  0.105443  0.109177  0  0.997623  0
H  H50  1  0.47904516  0.86651126  0.56224413  1  0.086667  0  0.108695  0.111271  0  0.991931  0
H  H51  1  0.52095386  0.13348711  0.43775605  1  0.086655  0  0.108687  0.111253  0  0.991941  0
H  H52  1  0.09697363  0.09177861  0.82709587  1  0.065352  0  0.100334  0.099563  0  1.017552  0
H  H53  1  0.90303360  0.90822607  0.17290368  1  0.065314  0  0.10037  0.099652  0  1.017474  0
H  H54  1  0.90113093  0.16004811  0.87159332  1  0.054006  0  0.094674  0.084662  0  1.034928  0
H  H55  1  0.09887477  0.83995499  0.12840484  1  0.053885  0  0.094638  0.084618  0  1.034993  0
H  H56  1  0.85788904  0.34102798  0.86654967  1  0.078838  0  0.095739  0.09278  0  1.040521  0
H  H57  1  0.14211299  0.65897354  0.13344896  1  0.079693  0  0.095718  0.092776  0  1.040514  0
H  H58  1  0.01770329  0.45369209  0.81897104  1  0.068786  0  0.100438  0.094388  0  1.027688  0
H  H59  1  0.98229786  0.54631022  0.18102762  1  0.068823  0  0.100426  0.094361  0  1.027653  0
H  H60  1  0.21750014  0.38711347  0.77674793  1  0.084383  0  0.101467  0.103096  0  1.033333  0
H  H61  1  0.78250622  0.61289199  0.22325204  1  0.083936  0  0.101501  0.10319  0  1.033234  0
H  H62  1  0.43428810  0.32375509  0.86642400  1  0.044811  0  0.097055  0.095061  0  1.02503  0
H  H63  1  0.56572045  0.67625037  0.13357687  1  0.044745  0  0.097021  0.094991  0  1.025183  0
H  H64  1  0.61420266  0.48008486  0.91968304  1  0.061501  0  0.098566  0.095306  0  0.996833  0
H  H65  1  0.38580979  0.51991903  0.08031669  1  0.061522  0  0.098533  0.095252  0  0.996927  0
H  H66  1  0.80582899  0.57464295  0.87561593  1  0.046408  0  0.093798  0.088697  0  1.029771  0
H  H67  1  0.19418215  0.42536015  0.12438288  1  0.046706  0  0.093818  0.088733  0  1.029716  0
H  H68  1  0.81144822  0.51303047  0.77749115  1  0.066907  0  0.099084  0.091622  0  1.01244  0
H  H69  1  0.18855769  0.48697342  0.22250709  1  0.067032  0  0.099109  0.091659  0  1.012424  0
H  H70  1  0.63063870  0.35771414  0.72430178  1  0.083392  0  0.101766  0.104109  0  1.015164  0
H  H71  1  0.36936701  0.64228896  0.27569717  1  0.083214  0  0.101757  0.104121  0  1.015173  0
H  H72  1  0.88108489  0.81811715  0.42537691  1  0.08808  0  0.106317  0.109805  0  0.994776  0
H  H73  1  0.11889087  0.18186390  0.57461589  1  0.088448  0  0.106328  0.109902  0  0.994748  0
H  H74  1  0.94927101  0.93191532  0.35978612  1  0.081518  0  0.101599  0.102418  0  1.022572  0
H  H75  1  0.05070998  0.06807282  0.64021032  1  0.081173  0  0.101556  0.102413  0  1.022608  0
H  H76  1  0.29297249  0.75952737  0.32503213  1  0.072912  0  0.099472  0.095067  0  1.050463  0
H  H77  1  0.70702176  0.24046942  0.67496808  1  0.072626  0  0.099476  0.095067  0  1.05045  0
H  H78  1  0.22475384  0.64737888  0.39081106  1  0.109526  0  0.112191  0.115648  0  1.016651  0
H  H79  1  0.77523214  0.35261162  0.60918543  1  0.109366  0  0.112165  0.115637  0  1.016695  0
H  H80  1  0.46410556  0.15988028  0.23377288  1  0.065196  0  0.096751  0.098738  0  1.031447  0
H  H81  1  0.53589650  0.84012124  0.76622812  1  0.065253  0  0.096725  0.098695  0  1.03135  0
H  H82  1  0.66120334  0.18024174  0.17691240  1  0.10301  0  0.097785  0.097055  0  1.037521  0
H  H83  1  0.33879610  0.81975821  0.82308715  1  0.103011  0  0.097784  0.097044  0  1.037565  0
H  H84  1  0.69295414  0.02727006  0.11017321  1  0.074953  0  0.09379  0.091305  0  1.030354  0
H  H85  1  0.30704466  0.97272752  0.88982689  1  0.075161  0  0.093842  0.091403  0  1.030291  0
H  H86  1  0.52995774  0.85212350  0.10188290  1  0.067369  0  0.095895  0.092546  0  1.027116  0
H  H87  1  0.47003933  0.14787565  0.89811805  1  0.067388  0  0.095889  0.092538  0  1.027083  0
H  H88  1  0.33785563  0.83085017  0.16017615  1  0.07371  0  0.099657  0.101558  0  1.031823  0
H  H89  1  0.66214318  0.16915134  0.83982588  1  0.073716  0  0.099652  0.101532  0  1.03182  0
H  H90  1  0.03703000  0.18921174  0.29463371  1  0.088408  0  0.104715  0.106729  0  1.009914  0
H  H91  1  0.96296967  0.81078899  0.70536711  1  0.088432  0  0.104741  0.106762  0  1.009903  0
H  H92  1  0.93139553  0.32506905  0.25280570  1  0.062806  0  0.104189  0.103641  0  0.994935  0
H  H93  1  0.06860501  0.67493089  0.74719509  1  0.062727  0  0.104202  0.103642  0  0.994917  0
H  H94  1  0.93616965  0.32970024  0.15543502  1  0.089394  0  0.097121  0.094948  0  1.051916  0
H  H95  1  0.06383306  0.67029971  0.84456548  1  0.087559  0  0.097116  0.094945  0  1.051887  0
H  H96  1  0.04868571  0.19861271  0.09968770  1  0.056494  0  0.098439  0.100943  0  1.009462  0
H  H97  1  0.95131310  0.80138487  0.90031319  1  0.056447  0  0.09852  0.101089  0  1.009457  0
H  H98  1  0.15143635  0.06199699  0.14152657  1  0.063772  0  0.094451  0.089993  0  1.048166  0
H  H99  1  0.84856160  0.93800138  0.85847435  1  0.063974  0  0.094454  0.090001  0  1.048127  0
C  C100  1  0.51242089  0.48818668  0.59508166  1  1.585447  0  0.235852  0.651859  0  4.178652  0
C  C101  1  0.48758812  0.51181248  0.40491907  1  1.58543  0  0.235705  0.651766  0  4.17881  0
C  C102  1  0.49623287  0.53062322  0.65193296  1  -0.026428  0  -0.017174  -0.051091  0  3.955738  0
C  C103  1  0.50376573  0.46936964  0.34806711  1  -0.026144  0  -0.01722  -0.05118  0  3.955769  0
C  C104  1  0.61594417  0.59997888  0.68663527  1  -0.081735  0  -0.07801  -0.077432  0  3.955773  0
C  C105  1  0.38405593  0.40001949  0.31336457  1  -0.081747  0  -0.077999  -0.077334  0  3.955675  0
C  C106  1  0.60277335  0.64119150  0.73947568  1  -0.046778  0  -0.09432  -0.132046  0  4.004278  0
C  C107  1  0.39722830  0.35880451  0.26052561  1  -0.046413  0  -0.094346  -0.132122  0  4.004214  0
C  C108  1  0.47051003  0.61283651  0.75941686  1  0.007484  0  -0.002374  0.026399  0  4.020704  0
C  C109  1  0.52949073  0.38716029  0.24058366  1  0.007236  0  -0.002402  0.026474  0  4.020688  0
C  C110  1  0.34927467  0.54557352  0.72392345  1  0.004538  0  -0.08583  -0.12064  0  3.962305  0
C  C111  1  0.65072434  0.45442485  0.27607634  1  0.004553  0  -0.085776  -0.120566  0  3.962269  0
C  C112  1  0.36198643  0.50515984  0.67080249  1  -0.039326  0  -0.075158  -0.07406  0  3.957176  0
C  C113  1  0.63801476  0.49483853  0.32919819  1  -0.039796  0  -0.075146  -0.074088  0  3.957138  0
C  C114  1  0.46074505  0.64928220  0.81600278  1  0.930887  0  0.210524  0.272814  0  4.054038  0
C  C115  1  0.53925506  0.35071617  0.18399784  1  0.930712  0  0.210473  0.272714  0  4.054152  0
C  C116  1  0.53413719  0.73120111  0.90246768  1  0.377831  0  0.092082  0.071415  0  3.989637  0
C  C117  1  0.46586270  0.26880040  0.09753321  1  0.377831  0  0.092078  0.071377  0  3.989755  0
C  C118  1  0.38682507  0.67826981  0.89413010  1  0.401244  0  0.08195  0.067218  0  4.053595  0
C  C119  1  0.61317350  0.32173092  0.10586987  1  0.401335  0  0.081983  0.067226  0  4.053595  0
C  C120  1  0.28412736  0.67813280  0.93316200  1  -0.002389  0  -0.010297  0.06009  0  4.032034  0
C  C121  1  0.71587142  0.32186871  0.06683766  1  -0.002442  0  -0.01031  0.060153  0  4.032062  0
C  C122  1  0.16853011  0.59115019  0.92749632  1  -0.035976  0  -0.09635  -0.130946  0  3.971977  0
C  C123  1  0.83146846  0.40885054  0.07250326  1  -0.036043  0  -0.096357  -0.131018  0  3.972173  0
C  C124  1  0.06428146  0.59146272  0.96216598  1  -0.028549  0  -0.099672  -0.090309  0  4.037663  0
C  C125  1  0.93571601  0.40853801  0.03783316  1  -0.02869  0  -0.099627  -0.09015  0  4.037502  0
C  C126  1  0.07562349  0.67770072  0.00425460  1  -0.072932  0  -0.099392  -0.096277  0  4.022033  0
C  C127  1  0.92437399  0.32230001  0.99574493  1  -0.072553  0  -0.099363  -0.0963  0  4.022134  0
C  C128  1  0.19169116  0.76396448  0.01083059  1  -0.067781  0  -0.099826  -0.088714  0  4.041555  0
C  C129  1  0.80830698  0.23603467  0.98916922  1  -0.067839  0  -0.099839  -0.088756  0  4.041629  0
C  C130  1  0.29415081  0.76502750  0.97536715  1  -0.038309  0  -0.095362  -0.135504  0  3.976807  0
C  C131  1  0.70584843  0.23497166  0.02463350  1  -0.038275  0  -0.095363  -0.135528  0  3.976757  0
C  C132  1  0.63558631  0.79122295  0.95114400  1  -0.002125  0  -0.009041  0.052763  0  4.048355  0
C  C133  1  0.36441377  0.20877935  0.04885618  1  -0.002111  0  -0.009058  0.052779  0  4.048373  0
C  C134  1  0.65929330  0.74475963  0.99682368  1  -0.072375  0  -0.088863  -0.129285  0  3.974411  0
C  C135  1  0.34070635  0.25524503  0.00317709  1  -0.072516  0  -0.088842  -0.129231  0  3.974406  0
C  C136  1  0.75711729  0.79965330  0.04327698  1  -0.068042  0  -0.093095  -0.080951  0  4.029838  0
C  C137  1  0.24288344  0.20035137  0.95672306  1  -0.067912  0  -0.093119  -0.081071  0  4.029979  0
C  C138  1  0.83291081  0.90169820  0.04476368  1  -0.051645  0  -0.093178  -0.087735  0  4.005124  0
C  C139  1  0.16708882  0.09830646  0.95523551  1  -0.051482  0  -0.093104  -0.087632  0  4.005007  0
C  C140  1  0.80891424  0.94911543  0.99978492  1  -0.038337  0  -0.093321  -0.081749  0  4.020019  0
C  C141  1  0.19108301  0.05088845  0.00021448  1  -0.038254  0  -0.09336  -0.081734  0  4.019881  0
C  C142  1  0.71055906  0.89438859  0.95318714  1  -0.063757  0  -0.092547  -0.129672  0  3.957217  0
C  C143  1  0.28943820  0.10561529  0.04681305  1  -0.063783  0  -0.092543  -0.12969  0  3.957137  0
C  C144  1  0.31370530  0.67782584  0.56916946  1  1.531655  0  0.207849  0.580178  0  4.207261  0
C  C145  1  0.68629416  0.32217410  0.43083167  1  1.531345  0  0.207813  0.580117  0  4.207236  0
C  C146  1  0.33756709  0.78073401  0.60735211  1  0.035871  0  -0.016826  -0.03924  0  3.969505  0
C  C147  1  0.66243258  0.21926671  0.39264910  1  0.036091  0  -0.016891  -0.039268  0  3.969551  0
C  C148  1  0.26607294  0.78774856  0.65286739  1  -0.057663  0  -0.084848  -0.090535  0  3.976643  0
C  C149  1  0.73392585  0.21225296  0.34713306  1  -0.057582  0  -0.084829  -0.090555  0  3.976652  0
C  C150  1  0.27339913  0.88440105  0.68595511  1  -0.060122  0  -0.089154  -0.1211  0  3.980083  0
C  C151  1  0.72660117  0.11560204  0.31404516  1  -0.060235  0  -0.089155  -0.121068  0  3.9801  0
C  C152  1  0.35282882  0.97699498  0.67459619  1  -0.070878  0  -0.00455  0.023466  0  4.023594  0
C  C153  1  0.64717430  0.02300654  0.32540368  1  -0.070378  0  -0.004585  0.023423  0  4.023683  0
C  C154  1  0.43021281  0.96953753  0.63048821  1  -0.008255  0  -0.082902  -0.109796  0  3.953605  0
C  C155  1  0.56978946  0.03046084  0.36951134  1  -0.008627  0  -0.082915  -0.109792  0  3.953558  0
C  C156  1  0.42241416  0.87219470  0.59727222  1  -0.056281  0  -0.077928  -0.078869  0  3.958328  0
C  C157  1  0.57758528  0.12780525  0.40272773  1  -0.05624  0  -0.077884  -0.078824  0  3.958254  0
C  C158  1  0.35351201  0.07684702  0.70961364  1  0.937588  0  0.213122  0.277063  0  4.030174  0
C  C159  1  0.64649350  0.92315529  0.29038602  1  0.937504  0  0.213189  0.277124  0  4.030122  0
C  C160  1  0.27611885  0.19185129  0.76882528  1  0.324963  0  0.093134  0.079656  0  3.971935  0
C  C161  1  0.72388730  0.80815338  0.23117462  1  0.324682  0  0.093172  0.079645  0  3.971847  0
C  C162  1  0.41878445  0.23348097  0.76116789  1  0.452622  0  0.08283  0.073783  0  4.025627  0
C  C163  1  0.58122214  0.76652134  0.23883222  1  0.453446  0  0.082897  0.0739  0  4.025536  0
C  C164  1  0.16903052  0.23465128  0.79853304  1  0.004515  0  -0.009063  0.048799  0  4.05127  0
C  C165  1  0.83097694  0.76535418  0.20146738  1  0.004959  0  -0.009106  0.048769  0  4.05142  0
C  C166  1  0.07928587  0.17126600  0.82553377  1  -0.06853  0  -0.092031  -0.126432  0  3.974195  0
C  C167  1  0.92072115  0.82873789  0.17446571  1  -0.068346  0  -0.092053  -0.126566  0  3.974315  0
C  C168  1  0.96944279  0.20986732  0.85049512  1  -0.090806  0  -0.096908  -0.088431  0  4.038574  0
C  C169  1  0.03056162  0.79013499  0.14950409  1  -0.090855  0  -0.09687  -0.088322  0  4.038499  0
C  C170  1  0.94602342  0.31132994  0.84817068  1  -0.040598  0  -0.094871  -0.089995  0  3.993531  0
C  C171  1  0.05397969  0.68867158  0.15182800  1  -0.041512  0  -0.094873  -0.090099  0  3.993543  0
C  C172  1  0.03592629  0.37487189  0.82160467  1  -0.082414  0  -0.092871  -0.075565  0  4.022817  0
C  C173  1  0.96407617  0.62513121  0.17839491  1  -0.082766  0  -0.092846  -0.075443  0  4.02273  0
C  C174  1  0.14773378  0.33769051  0.79752496  1  0.019159  0  -0.087702  -0.123113  0  3.959788  0
C  C175  1  0.85227128  0.66231416  0.20247489  1  0.0198  0  -0.087704  -0.123167  0  3.959702  0
C  C176  1  0.52008008  0.32937621  0.79153628  1  0.046088  0  -0.007966  0.054847  0  4.029838  0
C  C177  1  0.47992934  0.67062846  0.20846456  1  0.045257  0  -0.008015  0.0548  0  4.029937  0
C  C178  1  0.51636210  0.36588284  0.84683326  1  -0.032281  0  -0.090748  -0.127725  0  3.969548  0
C  C179  1  0.48364754  0.63412262  0.15316806  1  -0.032502  0  -0.090721  -0.127621  0  3.96942  0
C  C180  1  0.61796131  0.45354169  0.87677204  1  -0.088111  0  -0.094896  -0.077498  0  4.026313  0
C  C181  1  0.38205180  0.54646062  0.12322838  1  -0.087931  0  -0.0948  -0.077386  0  4.026051  0
C  C182  1  0.72540584  0.50660453  0.85211925  1  -0.044715  0  -0.10097  -0.101807  0  4.021212  0
C  C183  1  0.27460226  0.49339935  0.14788028  1  -0.045096  0  -0.101078  -0.101983  0  4.021183  0
C  C184  1  0.72933135  0.47147144  0.79725250  1  0.014562  0  -0.091436  -0.074712  0  4.034213  0
C  C185  1  0.27067633  0.52853087  0.20274726  1  0.014738  0  -0.091453  -0.074735  0  4.034113  0
C  C186  1  0.62804898  0.38372790  0.76724916  1  -0.139041  0  -0.089284  -0.119715  0  3.948029  0
C  C187  1  0.37195891  0.61627520  0.23275108  1  -0.13888  0  -0.089229  -0.119685  0  3.948033  0
C  C188  1  0.00275411  0.65839872  0.45113815  1  1.543501  0  0.228753  0.634952  0  4.18419  0
C  C189  1  0.99723623  0.34159571  0.54886127  1  1.543544  0  0.228812  0.635097  0  4.184554  0
C  C190  1  0.04794893  0.72566844  0.41211199  1  -0.032716  0  -0.018896  -0.049204  0  3.97307  0
C  C191  1  0.95203421  0.27431970  0.58788258  1  -0.032585  0  -0.018856  -0.049216  0  3.972993  0
C  C192  1  0.97098982  0.80616271  0.40302251  1  -0.054185  0  -0.082197  -0.082708  0  3.977198  0
C  C193  1  0.02898963  0.19382386  0.59697174  1  -0.054211  0  -0.082311  -0.08283  0  3.977183  0
C  C194  1  0.00815284  0.86882010  0.36613587  1  0.005429  0  -0.092189  -0.116758  0  3.966875  0
C  C195  1  0.99183291  0.13116961  0.63385975  1  0.004864  0  -0.092042  -0.116699  0  3.966859  0
C  C196  1  0.12310168  0.85200233  0.33673823  1  -0.045686  0  -0.001847  0.028637  0  4.019701  0
C  C197  1  0.87688778  0.14799289  0.66326082  1  -0.044512  0  -0.001945  0.028527  0  4.019778  0
C  C198  1  0.20172072  0.77227153  0.34660356  1  -0.045864  0  -0.092828  -0.129198  0  3.969789  0
C  C199  1  0.79827048  0.22772212  0.65339465  1  -0.046033  0  -0.092802  -0.129113  0  3.96978  0
C  C200  1  0.16442680  0.70959338  0.38369721  1  0.002663  0  -0.076851  -0.078086  0  3.956888  0
C  C201  1  0.83556134  0.29039712  0.61629860  1  0.002338  0  -0.076859  -0.078145  0  3.956847  0
C  C202  1  0.15770177  0.91665785  0.29713601  1  0.944597  0  0.211978  0.282706  0  4.030669  0
C  C203  1  0.84229900  0.08334288  0.70286644  1  0.944638  0  0.211952  0.282599  0  4.03071  0
C  C204  1  0.15544922  0.03398034  0.24569687  1  0.410986  0  0.074485  0.059797  0  4.05168  0
C  C205  1  0.84455394  0.96602117  0.75430576  1  0.411156  0  0.074467  0.059747  0  4.051854  0
C  C206  1  0.27200115  0.98258214  0.23507982  1  0.435447  0  0.09306  0.081678  0  3.950504  0
C  C207  1  0.72800113  0.01742016  0.76492245  1  0.434964  0  0.09305  0.081686  0  3.950535  0
C  C208  1  0.38428571  0.99502758  0.19977594  1  -0.035227  0  -0.012493  0.043603  0  4.036225  0
C  C209  1  0.61571592  0.00497236  0.80022569  1  -0.034997  0  -0.012583  0.043504  0  4.036345  0
C  C210  1  0.47687631  0.09312249  0.20403856  1  -0.047133  0  -0.096553  -0.133829  0  3.978343  0
C  C211  1  0.52312488  0.90687981  0.79596286  1  -0.04737  0  -0.09646  -0.133663  0  3.978229  0
C  C212  1  0.58806454  0.10417990  0.17237837  1  -0.046289  0  -0.094993  -0.07732  0  4.01116  0
C  C213  1  0.41193512  0.89582083  0.82762205  1  -0.046325  0  -0.095061  -0.07742  0  4.011288  0
C  C214  1  0.60697690  0.01804185  0.13527354  1  -0.101359  0  -0.095812  -0.086907  0  3.997331  0
C  C215  1  0.39302125  0.98195731  0.86472706  1  -0.101634  0  -0.095837  -0.086959  0  3.997253  0
C  C216  1  0.51553910  0.91991153  0.13064413  1  -0.038071  0  -0.095532  -0.082963  0  4.023492  0
C  C217  1  0.48445819  0.08008840  0.86935729  1  -0.038153  0  -0.095535  -0.083025  0  4.023416  0
C  C218  1  0.40604803  0.90816258  0.16295720  1  -0.069821  0  -0.097354  -0.137744  0  3.976424  0
C  C219  1  0.59395143  0.09183736  0.83704472  1  -0.069749  0  -0.097275  -0.137574  0  3.976309  0
C  C220  1  0.10094314  0.11616593  0.22098093  1  -0.013344  0  -0.009225  0.062612  0  4.029619  0
C  C221  1  0.89905414  0.88383401  0.77901971  1  -0.012922  0  -0.009228  0.062619  0  4.029569  0
C  C222  1  0.03831706  0.19128934  0.25187029  1  -0.039789  0  -0.087308  -0.1204  0  3.945364  0
C  C223  1  0.96168261  0.80871138  0.74813092  1  -0.040075  0  -0.087326  -0.120425  0  3.945448  0
C  C224  1  0.98043624  0.26772416  0.22843282  1  -0.048313  0  -0.088029  -0.07649  0  4.002082  0
C  C225  1  0.01956254  0.73227736  0.77156684  1  -0.048204  0  -0.088065  -0.076521  0  4.002164  0
C  C226  1  0.98443444  0.27125515  0.17379434  1  -0.096924  0  -0.092117  -0.084345  0  3.991278  0
C  C227  1  0.01556413  0.72874559  0.82620563  1  -0.095038  0  -0.092079  -0.084252  0  3.991208  0
C  C228  1  0.04721273  0.19745958  0.14263885  1  -0.030672  0  -0.099549  -0.098824  0  4.030917  0
C  C229  1  0.95278564  0.80254036  0.85736184  1  -0.030691  0  -0.099615  -0.099026  0  4.03109  0
C  C230  1  0.10488087  0.12059847  0.16603321  1  -0.123613  0  -0.099331  -0.157306  0  4.010132  0
C  C231  1  0.89511727  0.87940068  0.83396660  1  -0.123833  0  -0.099345  -0.157284  0  4.010169  0
N  N232  1  0.57714809  0.71214157  0.85264597  1  -1.238516  0  -0.380458  -0.296126  0  3.691765  0
N  N233  1  0.42285157  0.28785916  0.14735446  1  -1.238551  0  -0.380372  -0.296002  0  3.691814  0
N  N234  1  0.34374800  0.62780418  0.84051949  1  -1.162096  0  -0.334609  -0.395893  0  3.220022  0
N  N235  1  0.65625123  0.37219497  0.15948077  1  -1.162103  0  -0.33463  -0.395934  0  3.220005  0
N  N236  1  0.26954821  0.90891815  0.26769039  1  -1.274947  0  -0.368464  -0.281837  0  3.626168  0
N  N237  1  0.73045430  0.09108494  0.73231314  1  -1.274985  0  -0.368437  -0.28186  0  3.626135  0
N  N238  1  0.08529542  0.99155608  0.28391471  1  -1.188154  0  -0.33452  -0.409917  0  3.285285  0
N  N239  1  0.91470340  0.00844543  0.71608771  1  -1.188007  0  -0.334507  -0.409822  0  3.285517  0
N  N240  1  0.46336278  0.16166429  0.72343670  1  -1.167325  0  -0.32682  -0.392887  0  3.304995  0
N  N241  1  0.53664230  0.83833645  0.27656359  1  -1.16721  0  -0.326873  -0.392877  0  3.304799  0
N  N242  1  0.23937804  0.09267288  0.73691574  1  -1.26372  0  -0.37037  -0.284147  0  3.632655  0
N  N243  1  0.76062681  0.90733100  0.26308442  1  -1.263923  0  -0.370451  -0.284304  0  3.632817  0
O  O244  1  0.64273391  0.50030642  0.58353053  1  -1.209965  0  -0.419894  -0.673704  0  2.298179  0
O  O245  1  0.35727015  0.49968644  0.41647138  1  -1.209829  0  -0.419884  -0.673741  0  2.298093  0
O  O246  1  0.39735080  0.44321101  0.56070752  1  -1.222057  0  -0.419073  -0.698418  0  2.339245  0
O  O247  1  0.60265255  0.55678736  0.43929169  1  -1.222118  0  -0.418964  -0.698318  0  2.339507  0
O  O248  1  0.20356262  0.60624771  0.57164464  1  -1.190885  0  -0.354168  -0.639078  0  2.322644  0
O  O249  1  0.79643553  0.39375144  0.42835636  1  -1.19089  0  -0.354132  -0.63902  0  2.322699  0
O  O250  1  0.39603782  0.66066110  0.53341754  1  -1.20215  0  -0.337606  -0.62694  0  2.231217  0
O  O251  1  0.60396230  0.33933726  0.46658388  1  -1.201841  0  -0.337631  -0.626967  0  2.23118  0
O  O252  1  0.06271000  0.57864653  0.45573865  1  -1.224258  0  -0.41966  -0.719873  0  2.332111  0
O  O253  1  0.93728794  0.42134790  0.54426113  1  -1.224183  0  -0.419668  -0.719915  0  2.332336  0
O  O254  1  0.90206819  0.68055878  0.47802956  1  -1.202135  0  -0.388807  -0.658902  0  2.254348  0
O  O255  1  0.09792931  0.31943802  0.52197041  1  -1.202077  0  -0.388872  -0.658989  0  2.254497  0
O  O256  1  0.30831277  0.29250777  0.45811625  1  -1.254628  0  -0.620965  -0.826966  0  1.979412  0
O  O257  1  0.69168603  0.70748981  0.54188385  1  -1.254694  0  -0.620978  -0.827023  0  1.979348  0
O  O258  1  0.05253019  0.35810217  0.40577098  1  -1.276774  0  -0.631347  -0.825817  0  2.020369  0
O  O259  1  0.94746948  0.64189856  0.59422984  1  -1.276792  0  -0.631347  -0.825812  0  2.020379  0
