# generated using pymatgen
data_GaH4C8O5
_symmetry_space_group_name_H-M   'P 1'
_cell_length_a   12.02491757
_cell_length_b   12.26160178
_cell_length_c   12.26142399
_cell_angle_alpha   76.08409972
_cell_angle_beta   60.63885090
_cell_angle_gamma   60.63179921
_symmetry_Int_Tables_number   1
_chemical_formula_structural   GaH4C8O5
_chemical_formula_sum   'Ga4 H16 C32 O20'
_cell_volume   1373.16035951
_cell_formula_units_Z   4
loop_
 _symmetry_equiv_pos_site_id
 _symmetry_equiv_pos_as_xyz
  1  'x, y, z'
loop_
 _atom_site_type_symbol
 _atom_site_label
 _atom_site_symmetry_multiplicity
 _atom_site_fract_x
 _atom_site_fract_y
 _atom_site_fract_z
 _atom_site_occupancy
 _atom_site_hle17_bader_spin_density
 _atom_site_hle17_ddec_charge
 _atom_site_hle17_ddec_spin_density
 _atom_site_hle17_ddec_sum_bond_order
 _atom_site_hle17_magmom
 _atom_site_hse06_10hf_bader_spin_density
 _atom_site_hse06_10hf_ddec_charge
 _atom_site_hse06_10hf_ddec_spin_density
 _atom_site_hse06_10hf_ddec_sum_bond_order
 _atom_site_hse06_10hf_magmom
 _atom_site_hse06_bader_spin_density
 _atom_site_hse06_ddec_charge
 _atom_site_hse06_ddec_spin_density
 _atom_site_hse06_ddec_sum_bond_order
 _atom_site_hse06_magmom
 _atom_site_pbe_bader_spin_density
 _atom_site_pbe_cm5_charge
 _atom_site_pbe_ddec_charge
 _atom_site_pbe_ddec_spin_density
 _atom_site_pbe_ddec_sum_bond_order
 _atom_site_pbe_magmom
Ga  Ga0  1  0.80896621  0.38215038  0.99998962  1  0  1.659636  0  2.287708  0  0  1.507859  0  2.728659  0  0  1.565143  0  2.671261  0  0  0.587383  1.467637  0  2.76827  0
Ga  Ga1  1  0.19109003  0.61785392  0.99999179  1  0  1.660482  0  2.289659  0  0  1.506899  0  2.731584  0  0  1.564235  0  2.674072  0  0  0.586518  1.466648  0  2.771266  0
Ga  Ga2  1  0.55894460  0.50001893  0.88211144  1  0  1.658996  0  2.290155  0  0  1.506999  0  2.731586  0  0  1.564329  0  2.674064  0  0  0.586408  1.466738  0  2.771281  0
Ga  Ga3  1  0.94107968  0.50003269  0.11785414  1  0  1.660451  0  2.287353  0  0  1.507542  0  2.728384  0  0  1.564861  0  2.670978  0  0  0.587185  1.467302  0  2.767992  0
H  H4  1  0.87501391  0.56589563  0.93411309  1  0  0.431806  0  0.829498  0  0  0.415994  0  0.873571  0  0  0.424828  0  0.861008  0  0  0.328771  0.409736  0  0.882556  0
H  H5  1  0.37504915  0.43411450  0.06585418  1  0  0.431572  0  0.829754  0  0  0.415738  0  0.873909  0  0  0.424562  0  0.861371  0  0  0.328676  0.409492  0  0.88287  0
H  H6  1  0.55916881  0.56585644  0.06585950  1  0  0.430998  0  0.831177  0  0  0.415129  0  0.875026  0  0  0.423985  0  0.86243  0  0  0.328351  0.408862  0  0.884024  0
H  H7  1  0.19090772  0.43413828  0.93411395  1  0  0.431038  0  0.831074  0  0  0.415164  0  0.874938  0  0  0.424023  0  0.862335  0  0  0.328467  0.408894  0  0.883943  0
H  H8  1  0.63687967  0.49998475  0.50001530  1  0  0.124055  0  0.923815  0  0  0.132282  0  0.985136  0  0  0.136297  0  0.981533  0  0  0.118854  0.128958  0  0.988691  0
H  H9  1  0.88692052  0.00004690  0.00003699  1  0  0.124323  0  0.923573  0  0  0.132836  0  0.98458  0  0  0.136849  0  0.98096  0  0  0.119017  0.12952  0  0.988129  0
H  H10  1  0.11298551  0.00003659  0.99999865  1  0  0.123951  0  0.923551  0  0  0.132444  0  0.984547  0  0  0.136437  0  0.98094  0  0  0.119013  0.129133  0  0.988094  0
H  H11  1  0.86305812  0.50002292  0.50002795  1  0  0.124279  0  0.923738  0  0  0.132837  0  0.984577  0  0  0.136865  0  0.980941  0  0  0.11898  0.129468  0  0.988199  0
H  H12  1  0.45510271  0.44030750  0.30646156  1  0  0.106009  0  0.945422  0  0  0.112679  0  1.011861  0  0  0.116931  0  1.007981  0  0  0.107514  0.109535  0  1.014785  0
H  H13  1  0.20193823  0.55962029  0.69343078  1  0  0.105706  0  0.945836  0  0  0.112848  0  1.011695  0  0  0.11709  0  1.007808  0  0  0.107842  0.109727  0  1.014597  0
H  H14  1  0.51153234  0.19351628  0.94041099  1  0  0.105698  0  0.946192  0  0  0.112691  0  1.011974  0  0  0.116869  0  1.008149  0  0  0.107554  0.109594  0  1.014857  0
H  H15  1  0.64555713  0.80645737  0.05956688  1  0  0.106462  0  0.944992  0  0  0.11334  0  1.01109  0  0  0.117653  0  1.007121  0  0  0.107834  0.110137  0  1.014082  0
H  H16  1  0.54797896  0.80647006  0.94040587  1  0  0.105958  0  0.945583  0  0  0.11296  0  1.011567  0  0  0.1172  0  1.00769  0  0  0.108121  0.109838  0  1.01447  0
H  H17  1  0.29493163  0.19346259  0.05960190  1  0  0.105965  0  0.945224  0  0  0.112601  0  1.011782  0  0  0.116848  0  1.00789  0  0  0.107403  0.10946  0  1.014699  0
H  H18  1  0.10464860  0.44033992  0.69345386  1  0  0.106312  0  0.945026  0  0  0.113171  0  1.011173  0  0  0.117502  0  1.007176  0  0  0.10772  0.109968  0  1.014173  0
H  H19  1  0.23841419  0.55962164  0.30650115  1  0  0.105451  0  0.946192  0  0  0.112632  0  1.012055  0  0  0.117101  0  1.008259  0  0  0.107474  0.109509  0  1.014961  0
C  C20  1  0.54640189  0.49995397  0.49999415  1  0  -0.043367  0  3.656247  0  0  -0.084914  0  3.905034  0  0  -0.08109  0  3.922939  0  0  -0.06328  -0.087523  0  3.893579  0
C  C21  1  0.79642892  0.00002967  0.00003549  1  0  -0.045148  0  3.658139  0  0  -0.087182  0  3.9071  0  0  -0.083376  0  3.925003  0  0  -0.063824  -0.089774  0  3.895654  0
C  C22  1  0.20345749  0.00003776  0.00004853  1  0  -0.043547  0  3.656639  0  0  -0.085191  0  3.905312  0  0  -0.081341  0  3.923195  0  0  -0.063369  -0.087809  0  3.893867  0
C  C23  1  0.95356685  0.50002807  0.50000980  1  0  -0.044938  0  3.659811  0  0  -0.087054  0  3.907953  0  0  -0.083226  0  3.925805  0  0  -0.063611  -0.089611  0  3.896517  0
C  C24  1  0.68631708  0.45172536  0.26950804  1  0  0.692925  0  3.825357  0  0  0.6385  0  4.121969  0  0  0.675242  0  4.111761  0  0  0.252965  0.613595  0  4.128132  0
C  C25  1  0.40754777  0.54823697  0.73046532  1  0  0.694227  0  3.828763  0  0  0.64036  0  4.124314  0  0  0.677086  0  4.114077  0  0  0.2527  0.615459  0  4.130505  0
C  C26  1  0.70578623  0.23050177  0.95185666  1  0  0.696708  0  3.829234  0  0  0.641639  0  4.126163  0  0  0.678397  0  4.115841  0  0  0.25378  0.616719  0  4.132409  0
C  C27  1  0.88809625  0.76954636  0.04824526  1  0  0.690876  0  3.831343  0  0  0.635997  0  4.12849  0  0  0.672785  0  4.118262  0  0  0.251335  0.611065  0  4.134666  0
C  C28  1  0.34229354  0.76956787  0.95185379  1  0  0.695232  0  3.828129  0  0  0.640917  0  4.124243  0  0  0.677637  0  4.114004  0  0  0.253032  0.616014  0  4.130441  0
C  C29  1  0.06369625  0.23051721  0.04824047  1  0  0.690681  0  3.827834  0  0  0.637871  0  4.123134  0  0  0.674578  0  4.113002  0  0  0.252634  0.612967  0  4.129288  0
C  C30  1  0.86196885  0.45179569  0.73048428  1  0  0.688546  0  3.833666  0  0  0.635614  0  4.129259  0  0  0.672366  0  4.119086  0  0  0.251555  0.610688  0  4.13541  0
C  C31  1  0.04414709  0.54827826  0.26951864  1  0  0.696543  0  3.828644  0  0  0.641286  0  4.125612  0  0  0.678051  0  4.115282  0  0  0.254029  0.616365  0  4.131847  0
C  C32  1  0.55584399  0.47283753  0.39050830  1  0  -0.062343  0  3.765194  0  0  -0.037961  0  4.004783  0  0  -0.047979  0  4.028721  0  0  -0.012314  -0.031457  0  3.988476  0
C  C33  1  0.41923266  0.52707129  0.60944689  1  0  -0.063451  0  3.769417  0  0  -0.039225  0  4.008949  0  0  -0.04925  0  4.032908  0  0  -0.013296  -0.032718  0  3.992638  0
C  C34  1  0.69626381  0.10951120  0.97303921  1  0  -0.062518  0  3.767786  0  0  -0.037854  0  4.006972  0  0  -0.047837  0  4.030836  0  0  -0.011992  -0.031387  0  3.990732  0
C  C35  1  0.77878329  0.89053845  0.02705765  1  0  -0.059923  0  3.765774  0  0  -0.035438  0  4.005363  0  0  -0.045474  0  4.029366  0  0  -0.012172  -0.028934  0  3.989021  0
C  C36  1  0.33059366  0.89055630  0.97304846  1  0  -0.063995  0  3.770283  0  0  -0.039807  0  4.010111  0  0  -0.049845  0  4.034084  0  0  -0.013725  -0.033297  0  3.993801  0
C  C37  1  0.19414148  0.10948784  0.02708081  1  0  -0.062219  0  3.76663  0  0  -0.037554  0  4.005329  0  0  -0.047563  0  4.029281  0  0  -0.012192  -0.031055  0  3.989029  0
C  C38  1  0.97128887  0.47293656  0.60946332  1  0  -0.060587  0  3.768055  0  0  -0.035349  0  4.005967  0  0  -0.045385  0  4.029978  0  0  -0.011968  -0.028838  0  3.989596  0
C  C39  1  0.05360703  0.52711010  0.39053158  1  0  -0.062537  0  3.767791  0  0  -0.037148  0  4.006285  0  0  -0.047106  0  4.030184  0  0  -0.012134  -0.030686  0  3.990034  0
C  C40  1  0.31143897  0.49994798  0.49994852  1  0  0.047366  0  3.802308  0  0  0.066903  0  4.034228  0  0  0.064124  0  4.060737  0  0  -0.004759  0.06866  0  4.016065  0
C  C41  1  0.56144372  0.99997565  0.99995714  1  0  0.047701  0  3.798844  0  0  0.066191  0  4.032171  0  0  0.06343  0  4.058675  0  0  -0.005287  0.067937  0  4.014002  0
C  C42  1  0.43859044  0.99997339  0.99999220  1  0  0.047765  0  3.801129  0  0  0.067319  0  4.033316  0  0  0.064547  0  4.059822  0  0  -0.004514  0.069074  0  4.015151  0
C  C43  1  0.18863324  0.49993457  0.49995270  1  0  0.047623  0  3.799813  0  0  0.066517  0  4.032748  0  0  0.06377  0  4.059282  0  0  -0.005292  0.068264  0  4.01458  0
C  C44  1  0.44095309  0.46883291  0.39177323  1  0  -0.091579  0  3.678869  0  0  -0.126868  0  3.924685  0  0  -0.125941  0  3.944044  0  0  -0.072914  -0.127052  0  3.911282  0
C  C45  1  0.30163777  0.53107258  0.60812516  1  0  -0.09188  0  3.683083  0  0  -0.127568  0  3.929034  0  0  -0.1266  0  3.948375  0  0  -0.072647  -0.127765  0  3.915617  0
C  C46  1  0.58270012  0.10819959  0.96895896  1  0  -0.092382  0  3.680076  0  0  -0.127336  0  3.925552  0  0  -0.126338  0  3.944888  0  0  -0.072986  -0.12755  0  3.912159  0
C  C47  1  0.65992086  0.89178388  0.03100904  1  0  -0.093065  0  3.678257  0  0  -0.128413  0  3.924473  0  0  -0.127524  0  3.943826  0  0  -0.072734  -0.128532  0  3.911072  0
C  C48  1  0.44827910  0.89179307  0.96897349  1  0  -0.092089  0  3.681722  0  0  -0.127617  0  3.927774  0  0  -0.126674  0  3.947138  0  0  -0.072944  -0.127816  0  3.914363  0
C  C49  1  0.30906207  0.10815001  0.03108906  1  0  -0.091617  0  3.679407  0  0  -0.126879  0  3.925337  0  0  -0.125929  0  3.944674  0  0  -0.072774  -0.127056  0  3.911916  0
C  C50  1  0.09024117  0.46884508  0.60815012  1  0  -0.092689  0  3.678798  0  0  -0.128216  0  3.924759  0  0  -0.127303  0  3.944036  0  0  -0.072739  -0.128342  0  3.911371  0
C  C51  1  0.16725768  0.53107213  0.39179790  1  0  -0.092008  0  3.679573  0  0  -0.127906  0  3.92549  0  0  -0.127377  0  3.945197  0  0  -0.072908  -0.128079  0  3.912104  0
O  O52  1  0.70845925  0.38700953  0.18736275  1  0  -0.643767  0  2.082177  0  0  -0.58435  0  2.330795  0  0  -0.611358  0  2.317334  0  0  -0.264439  -0.565646  0  2.339462  0
O  O53  1  0.28283860  0.61294087  0.81259474  1  0  -0.644775  0  2.084206  0  0  -0.585653  0  2.333161  0  0  -0.612649  0  2.319643  0  0  -0.264967  -0.566957  0  2.341872  0
O  O54  1  0.64571860  0.31264648  0.88715418  1  0  -0.646526  0  2.085236  0  0  -0.586783  0  2.333939  0  0  -0.613839  0  2.32041  0  0  -0.265655  -0.568055  0  2.34266  0
O  O55  1  0.84544905  0.68744772  0.11305072  1  0  -0.642582  0  2.08381  0  0  -0.583421  0  2.332883  0  0  -0.61049  0  2.319456  0  0  -0.263709  -0.564694  0  2.341532  0
O  O56  1  0.46707446  0.68743490  0.88716285  1  0  -0.64557  0  2.084052  0  0  -0.586173  0  2.332575  0  0  -0.61319  0  2.319067  0  0  -0.265257  -0.567462  0  2.341283  0
O  O57  1  0.04165605  0.31261606  0.11294541  1  0  -0.643381  0  2.082953  0  0  -0.583827  0  2.330738  0  0  -0.610821  0  2.317299  0  0  -0.2642  -0.565121  0  2.339396  0
O  O58  1  0.90458644  0.38713553  0.81261596  1  0  -0.642639  0  2.087026  0  0  -0.583124  0  2.33462  0  0  -0.610157  0  2.321206  0  0  -0.263783  -0.564404  0  2.343259  0
O  O59  1  0.10412935  0.61302360  0.18741780  1  0  -0.645867  0  2.08425  0  0  -0.586468  0  2.333619  0  0  -0.613532  0  2.320168  0  0  -0.265752  -0.567759  0  2.342339  0
O  O60  1  0.87512965  0.50170863  0.99820081  1  0  -1.000207  0  1.919047  0  0  -0.936234  0  2.166693  0  0  -0.963627  0  2.135431  0  0  -0.486761  -0.916622  0  2.188499  0
O  O61  1  0.37503714  0.49822408  0.00168692  1  0  -0.999911  0  1.918463  0  0  -0.936175  0  2.166874  0  0  -0.96356  0  2.135559  0  0  -0.487329  -0.916572  0  2.188719  0
O  O62  1  0.62331624  0.50174590  0.00170386  1  0  -0.999926  0  1.920057  0  0  -0.936114  0  2.167268  0  0  -0.963517  0  2.135992  0  0  -0.486416  -0.916487  0  2.189072  0
O  O63  1  0.12678808  0.49824114  0.99827895  1  0  -0.999612  0  1.919391  0  0  -0.935922  0  2.167085  0  0  -0.963325  0  2.135815  0  0  -0.486539  -0.916294  0  2.188885  0
O  O64  1  0.76063217  0.50335230  0.25899595  1  0  -0.61048  0  2.083576  0  0  -0.551777  0  2.332413  0  0  -0.578587  0  2.318957  0  0  -0.250321  -0.533223  0  2.341087  0
O  O65  1  0.52300796  0.49667581  0.74095913  1  0  -0.61074  0  2.087282  0  0  -0.551726  0  2.335435  0  0  -0.578541  0  2.321948  0  0  -0.249156  -0.533173  0  2.34414  0
O  O66  1  0.76973097  0.24098887  0.00332502  1  0  -0.61189  0  2.087771  0  0  -0.552468  0  2.336473  0  0  -0.579226  0  2.322905  0  0  -0.250181  -0.533938  0  2.345214  0
O  O67  1  0.01403022  0.75900624  0.99658009  1  0  -0.610991  0  2.088221  0  0  -0.551222  0  2.336736  0  0  -0.578029  0  2.323234  0  0  -0.250317  -0.532662  0  2.345432  0
O  O68  1  0.22689149  0.75905144  0.00336434  1  0  -0.610585  0  2.087384  0  0  -0.551472  0  2.336201  0  0  -0.578243  0  2.32268  0  0  -0.248945  -0.532928  0  2.344912  0
O  O69  1  0.98933557  0.24103677  0.99666471  1  0  -0.60617  0  2.081683  0  0  -0.55151  0  2.333482  0  0  -0.578339  0  2.320073  0  0  -0.250198  -0.532954  0  2.342152  0
O  O70  1  0.73601997  0.50330670  0.74098070  1  0  -0.606022  0  2.084094  0  0  -0.551327  0  2.336114  0  0  -0.5781  0  2.322596  0  0  -0.250546  -0.53277  0  2.344809  0
O  O71  1  0.98037714  0.49660978  0.25899352  1  0  -0.611818  0  2.086792  0  0  -0.552533  0  2.335891  0  0  -0.579333  0  2.322359  0  0  -0.250265  -0.533963  0  2.344597  0
