# generated using pymatgen
data_NiH18(C5O3)2
_symmetry_space_group_name_H-M   'P 1'
_cell_length_a   7.16705740
_cell_length_b   11.98554305
_cell_length_c   14.18240000
_cell_angle_alpha   90.00000000
_cell_angle_beta   90.00000000
_cell_angle_gamma   90.00000000
_symmetry_Int_Tables_number   1
_chemical_formula_structural   NiH18(C5O3)2
_chemical_formula_sum   'Ni4 H72 C40 O24'
_cell_volume   1218.28340669
_cell_formula_units_Z   4
loop_
 _symmetry_equiv_pos_site_id
 _symmetry_equiv_pos_as_xyz
  1  'x, y, z'
loop_
 _atom_site_type_symbol
 _atom_site_label
 _atom_site_symmetry_multiplicity
 _atom_site_fract_x
 _atom_site_fract_y
 _atom_site_fract_z
 _atom_site_occupancy
 _atom_site_hle17_ddec_charge
 _atom_site_hle17_ddec_spin_density
 _atom_site_hle17_ddec_sum_bond_order
 _atom_site_hle17_magmom
 _atom_site_hse06_10hf_ddec_charge
 _atom_site_hse06_10hf_ddec_spin_density
 _atom_site_hse06_10hf_ddec_sum_bond_order
 _atom_site_hse06_10hf_magmom
 _atom_site_hse06_ddec_charge
 _atom_site_hse06_ddec_spin_density
 _atom_site_hse06_ddec_sum_bond_order
 _atom_site_hse06_magmom
 _atom_site_pbe_bader_charge
 _atom_site_pbe_bader_spin_density
 _atom_site_pbe_cm5_charge
 _atom_site_pbe_ddec_charge
 _atom_site_pbe_ddec_spin_density
 _atom_site_pbe_ddec_sum_bond_order
 _atom_site_pbe_magmom
Ni  Ni0  1  0.37991882  0.25271195  0.48574994  1  1.036737  1.764918  1.776459  1.543  1.055677  1.834123  2.1647  1.672  1.139022  1.881036  2.099035  1.75  1.22645  1.612332  0.620101  0.98202  1.790558  2.226687  1.602
Ni  Ni1  1  0.12008415  0.74728612  0.98575065  1  1.036799  1.764945  1.776585  1.543  1.055746  1.834128  2.164856  1.672  1.139088  1.881037  2.099182  1.75  1.226466  1.612345  0.620101  0.982099  1.790575  2.226841  1.602
Ni  Ni2  1  0.87991900  0.24728208  0.51425147  1  1.036767  1.764917  1.77641  1.543  1.055732  1.834121  2.164656  1.672  1.139077  1.881038  2.098988  1.75  1.226485  1.612313  0.620102  0.982068  1.790549  2.226646  1.602
Ni  Ni3  1  0.62008294  0.75271683  0.01425006  1  1.036736  1.764944  1.776703  1.543  1.055685  1.834124  2.16498  1.672  1.139024  1.881033  2.099308  1.75  1.226473  1.612343  0.620102  0.98205  1.790572  2.226934  1.602
H  H4  1  0.57848288  0.06971065  0.52043801  1  0.428468  -0.000228  0.877213  -0.001  0.397656  0.000142  0.941878  0.0  0.409616  -6.8e-05  0.924718  0.0  0.655741  0.000422  0.293542  0.388967  0.000376  0.954216  0.0
H  H5  1  0.92151487  0.93029076  0.02043730  1  0.428471  -0.000228  0.87721  -0.001  0.397639  0.000142  0.941908  0.0  0.4096  -6.8e-05  0.924746  0.0  0.655747  0.000423  0.293513  0.38895  0.000376  0.954245  0.0
H  H6  1  0.07847293  0.43028839  0.47956129  1  0.428481  -0.000228  0.877196  -0.001  0.397679  0.000142  0.941834  0.0  0.409638  -6.8e-05  0.924676  0.0  0.655777  0.000423  0.293562  0.388992  0.000376  0.954169  0.0
H  H7  1  0.42152027  0.56970719  0.97956411  1  0.428485  -0.000228  0.877194  -0.001  0.397668  0.000142  0.941863  0.0  0.409629  -6.8e-05  0.924703  0.0  0.655748  0.000423  0.293545  0.388981  0.000376  0.954199  0.0
H  H8  1  0.35849301  0.03765703  0.52929194  1  0.426673  -0.000365  0.839613  0.0  0.40591  0.000237  0.901658  0.0  0.416226  8.4e-05  0.886633  0.0  0.619476  0.000529  0.311368  0.398113  0.000389  0.912491  0.0
H  H9  1  0.14150717  0.96234605  0.02928912  1  0.42672  -0.000364  0.839545  0.0  0.405955  0.000237  0.901598  0.0  0.416273  8.4e-05  0.886569  0.0  0.619435  0.000529  0.311362  0.398157  0.000389  0.912432  0.0
H  H10  1  0.85849180  0.46234451  0.47070877  1  0.426657  -0.000364  0.839605  0.0  0.405896  0.000237  0.901667  0.0  0.416213  8.4e-05  0.88664  0.0  0.619449  0.000529  0.311364  0.398098  0.000389  0.912489  0.0
H  H11  1  0.64150456  0.53765273  0.97071370  1  0.4267  -0.000364  0.839618  0.0  0.405925  0.000237  0.901657  0.0  0.416243  8.4e-05  0.886627  0.0  0.619449  0.000529  0.311356  0.398127  0.000389  0.912527  0.0
H  H12  1  0.11007167  0.10913231  0.46238577  1  0.417496  -0.001219  0.89674  -0.002  0.384253  -0.00041  0.969864  -0.001  0.398212  -0.000555  0.950468  -0.001  0.661114  -0.000287  0.294018  0.374395  -0.000235  0.983437  0.0
H  H13  1  0.38992851  0.89087077  0.96238295  1  0.417627  -0.001219  0.896596  -0.002  0.384324  -0.000409  0.969793  -0.001  0.398283  -0.000555  0.950399  -0.001  0.661539  -0.000285  0.294028  0.374465  -0.000234  0.983369  0.0
H  H14  1  0.61006488  0.39086339  0.53760929  1  0.417621  -0.001219  0.896616  -0.002  0.384299  -0.000409  0.969839  -0.001  0.398259  -0.000555  0.950442  -0.001  0.661123  -0.000287  0.294046  0.374443  -0.000234  0.983408  0.0
H  H15  1  0.88992729  0.60913719  0.03761211  1  0.4176  -0.001219  0.896672  -0.002  0.384293  -0.000409  0.969848  -0.001  0.39825  -0.000554  0.950456  -0.001  0.661114  -0.000286  0.294008  0.374437  -0.000234  0.983418  0.0
H  H16  1  0.07465686  0.20467742  0.37748759  1  0.44445  -0.001141  0.799571  -0.001  0.427436  -4.2e-05  0.853904  0.0  0.439117  -0.000226  0.841115  0.0  0.628831  -3.7e-05  0.32741  0.418444  0.000198  0.863367  0.001
H  H17  1  0.42535030  0.79532483  0.87748265  1  0.444449  -0.001142  0.799375  -0.001  0.427431  -4.2e-05  0.85374  0.0  0.439112  -0.000227  0.840949  0.0  0.628675  -3.7e-05  0.327385  0.418437  0.000198  0.863209  0.001
H  H18  1  0.57466123  0.29532663  0.62251241  1  0.444415  -0.001141  0.799562  -0.001  0.427404  -4.2e-05  0.853893  0.0  0.439084  -0.000227  0.841106  0.0  0.628844  -3.8e-05  0.327379  0.418414  0.000198  0.863353  0.001
H  H19  1  0.92533653  0.70466978  0.12252017  1  0.444512  -0.001142  0.79931  -0.001  0.427488  -4.3e-05  0.853689  0.0  0.439173  -0.000227  0.840885  0.0  0.62868  -3.7e-05  0.327388  0.418495  0.000198  0.863155  0.001
H  H20  1  0.79175451  0.12474862  0.05111053  1  0.079708  -0.000291  0.930832  0.0  0.09401  7.3e-05  0.985391  0.0  0.095607  4.7e-05  0.985466  0.0  0.025622  0.000223  0.103453  0.092736  0.000112  0.985618  0.0
H  H21  1  0.70824325  0.87525613  0.55111476  1  0.079728  -0.000289  0.930881  0.0  0.094038  7.3e-05  0.985401  0.0  0.095631  4.7e-05  0.98548  0.0  0.025701  0.000223  0.103454  0.092766  0.000112  0.98563  0.0
H  H22  1  0.29175293  0.37525459  0.94888665  1  0.079719  -0.000292  0.930834  0.0  0.094031  7.3e-05  0.985368  0.0  0.095631  4.7e-05  0.98544  0.0  0.025645  0.000223  0.10347  0.092757  0.000112  0.985596  0.0
H  H23  1  0.20823888  0.62474850  0.44888030  1  0.079743  -0.000297  0.930838  0.0  0.094068  7.3e-05  0.985329  0.0  0.095663  4.7e-05  0.985404  0.0  0.02532  0.000223  0.10343  0.092797  0.000111  0.985556  0.0
H  H24  1  0.38644033  0.18665571  0.04266485  1  0.07016  3.3e-05  0.963904  0.0  0.084099  3.6e-05  1.03203  0.0  0.08579  2e-05  1.030998  0.0  0.030804  0.000167  0.087557  0.082852  5.8e-05  1.032816  0.0
H  H25  1  0.11355567  0.81335071  0.54266767  1  0.070158  2.9e-05  0.963835  0.0  0.084081  3.6e-05  1.031981  0.0  0.085771  2e-05  1.03095  0.0  0.030854  0.000167  0.087577  0.082836  5.8e-05  1.032763  0.0
H  H26  1  0.88644051  0.31334917  0.95733444  1  0.070215  3.2e-05  0.963954  0.0  0.084144  3.6e-05  1.032063  0.0  0.085835  2e-05  1.03103  0.0  0.030778  0.000166  0.087607  0.082898  5.8e-05  1.032846  0.0
H  H27  1  0.61355725  0.68664223  0.45733233  1  0.070201  3.1e-05  0.963823  0.0  0.084092  3.6e-05  1.032018  0.0  0.085783  2e-05  1.030986  0.0  0.030788  0.000166  0.087602  0.082848  5.8e-05  1.032797  0.0
H  H28  1  0.58246638  0.26271484  0.00342819  1  0.062528  -2e-05  0.947368  0.0  0.080923  1e-05  1.009151  0.0  0.081829  -3e-06  1.0088  0.0  8.9e-05  0.000112  0.086194  0.080231  3.1e-05  1.009457  0.0
H  H29  1  0.91752997  0.73729242  0.50342890  1  0.062432  -2.3e-05  0.947368  0.0  0.08087  1e-05  1.00911  0.0  0.081774  -3e-06  1.008765  0.0  -9e-05  0.000112  0.086176  0.080179  3.1e-05  1.009414  0.0
H  H30  1  0.08246481  0.23729421  0.99657604  1  0.062524  -2.1e-05  0.947339  0.0  0.080933  1e-05  1.009084  0.0  0.081836  -3e-06  1.008739  0.0  0.000111  0.000112  0.086194  0.080242  3.1e-05  1.009388  0.0
H  H31  1  0.41753677  0.76270220  0.49657322  1  0.062406  -2.2e-05  0.947404  0.0  0.080895  1e-05  1.009103  0.0  0.081798  -3e-06  1.008756  0.0  0.000209  0.000112  0.086184  0.080203  3.1e-05  1.009408  0.0
H  H32  1  0.54864916  0.37104451  0.14175104  1  0.079509  8e-05  0.950744  0.0  0.097868  0.000114  1.009167  0.0  0.098676  7.6e-05  1.009446  0.0  0.059382  0.000301  0.090689  0.097255  0.000156  1.009077  0.0
H  H33  1  0.95134581  0.62895940  0.64175034  1  0.079532  8.1e-05  0.950697  0.0  0.097878  0.000114  1.009116  0.0  0.098684  7.6e-05  1.009386  0.0  0.059413  0.000301  0.090683  0.097267  0.000156  1.009028  0.0
H  H34  1  0.04864898  0.12895452  0.85825671  1  0.079455  8e-05  0.95077  0.0  0.097796  0.000114  1.009198  0.0  0.098603  7.6e-05  1.009479  0.0  0.059253  0.000301  0.090648  0.097179  0.000156  1.009105  0.0
H  H35  1  0.45135121  0.87104105  0.35825530  1  0.079528  8.1e-05  0.95065  0.0  0.097864  0.000114  1.009081  0.0  0.098672  7.6e-05  1.009359  0.0  0.059242  0.000301  0.090686  0.097253  0.000156  1.008992  0.0
H  H36  1  0.38998013  0.27489451  0.19096274  1  0.078696  0.000133  0.949533  0.0  0.092976  0.000114  1.012153  0.0  0.094766  7e-05  1.011363  0.0  0.041536  0.000266  0.088523  0.091633  0.000163  1.012795  0.0
H  H37  1  0.11001726  0.72510690  0.69096274  1  0.078694  0.000136  0.94959  0.0  0.092953  0.000114  1.012211  0.0  0.094736  6.9e-05  1.011418  0.0  0.041571  0.000266  0.088507  0.091612  0.000163  1.012853  0.0
H  H38  1  0.88998031  0.22510286  0.80904219  1  0.078658  0.000134  0.949529  0.0  0.092922  0.000114  1.012149  0.0  0.094712  6.9e-05  1.011361  0.0  0.041623  0.000266  0.088502  0.091574  0.000163  1.012787  0.0
H  H39  1  0.61002721  0.77489605  0.30904149  1  0.078709  0.000134  0.949584  0.0  0.092995  0.000114  1.012154  0.0  0.094784  6.9e-05  1.011362  0.0  0.041558  0.000266  0.088527  0.091652  0.000163  1.012797  0.0
H  H40  1  0.86696250  0.37452871  0.21035086  1  0.107904  1.9e-05  0.944141  0.0  0.132156  1.2e-05  1.000106  0.0  0.132891  3e-06  1.001008  0.0  0.030151  0.000136  0.090556  0.131649  2.1e-05  0.999471  0.0
H  H41  1  0.63303246  0.62547687  0.71035368  1  0.107896  2e-05  0.944257  0.0  0.13216  1.2e-05  1.000193  0.0  0.132897  3e-06  1.001094  0.0  0.030233  0.000136  0.090561  0.131651  2.1e-05  0.999559  0.0
H  H42  1  0.36697069  0.12547366  0.78965408  1  0.107909  2e-05  0.944269  0.0  0.132144  1.2e-05  1.000223  0.0  0.132875  3e-06  1.001136  0.0  0.030214  0.000136  0.090556  0.131637  2.1e-05  0.999589  0.0
H  H43  1  0.13303926  0.87452608  0.28965055  1  0.107867  1.9e-05  0.944284  0.0  0.132164  1.2e-05  1.00018  0.0  0.132902  3e-06  1.001079  0.0  0.030196  0.000136  0.09054  0.131655  2.1e-05  0.999547  0.0
H  H44  1  0.88908455  0.28347151  0.11337080  1  0.099817  0.000372  0.985203  0.001  0.119079  0.000174  1.052353  0.0  0.119794  9.4e-05  1.053375  0.0  0.023994  0.000717  0.08687  0.118581  0.000272  1.051608  0.0
H  H45  1  0.61091878  0.71653574  0.61337362  1  0.099852  0.000374  0.985107  0.001  0.119105  0.000174  1.052275  0.0  0.119819  9.4e-05  1.053299  0.0  0.024063  0.000717  0.086888  0.118612  0.000271  1.051525  0.0
H  H46  1  0.38908576  0.21653587  0.88663132  1  0.09984  0.000373  0.985154  0.001  0.119094  0.000174  1.052305  0.0  0.119809  9.4e-05  1.053327  0.0  0.023988  0.000717  0.086856  0.1186  0.000272  1.051557  0.0
H  H47  1  0.11092418  0.78346387  0.38662638  1  0.09984  0.000372  0.985011  0.001  0.119091  0.000174  1.05219  0.0  0.119805  9.4e-05  1.053213  0.0  0.024074  0.000717  0.086865  0.118599  0.000271  1.051439  0.0
H  H48  1  0.98692108  0.24641770  0.22409254  1  0.091343  -8.1e-05  0.970495  0.0  0.11008  -4.8e-05  1.037392  0.0  0.111929  -4.9e-05  1.035811  0.0  -0.002055  -6e-06  0.082312  0.108677  -4e-05  1.038699  0.0
H  H49  1  0.51308226  0.75359039  0.72409395  1  0.091368  -7.6e-05  0.970557  0.0  0.110116  -4.7e-05  1.03744  0.0  0.111962  -4.9e-05  1.035862  0.0  -0.00211  -6e-06  0.082325  0.108717  -4e-05  1.038741  0.0
H  H50  1  0.48691671  0.25358801  0.77590817  1  0.091384  -7.7e-05  0.970454  0.0  0.110121  -4.8e-05  1.037333  0.0  0.111969  -4.9e-05  1.035753  0.0  -0.002053  -6e-06  0.082325  0.10872  -4e-05  1.038638  0.0
H  H51  1  0.01309045  0.74641257  0.27590535  1  0.091424  -7.9e-05  0.970456  0.0  0.110171  -4.8e-05  1.037331  0.0  0.112018  -4.8e-05  1.03575  0.0  -0.002431  -6e-06  0.082351  0.108769  -4e-05  1.038637  0.0
H  H52  1  0.82886597  0.94961988  0.20247419  1  0.112557  -9e-06  0.952753  0.0  0.134038  -3.9e-05  1.012722  0.0  0.135639  -4.4e-05  1.012716  0.0  0.055459  3.6e-05  0.090237  0.132914  -2.8e-05  1.012682  0.0
H  H53  1  0.67113178  0.05038236  0.70247772  1  0.112591  -1.2e-05  0.952748  0.0  0.134087  -3.9e-05  1.012676  0.0  0.135689  -4.4e-05  1.012674  0.0  0.055546  3.6e-05  0.09025  0.132963  -2.8e-05  1.012637  0.0
H  H54  1  0.32886440  0.55037723  0.79752581  1  0.112589  -1.2e-05  0.952752  0.0  0.134077  -3.9e-05  1.012709  0.0  0.135678  -4.4e-05  1.012703  0.0  0.055505  3.6e-05  0.090259  0.132954  -2.8e-05  1.012669  0.0
H  H55  1  0.17113439  0.44962085  0.29752228  1  0.112593  -1.2e-05  0.952774  0.0  0.134095  -3.9e-05  1.012693  0.0  0.135697  -4.4e-05  1.012688  0.0  0.055579  3.6e-05  0.090258  0.13297  -2.8e-05  1.012654  0.0
H  H56  1  0.86525608  0.04346320  0.29752158  1  0.1082  1.3e-05  0.948394  0.0  0.130429  2.1e-05  1.006564  0.0  0.131935  6e-06  1.006682  0.0  0.044791  0.000116  0.087535  0.129273  4.1e-05  1.006649  0.0
H  H57  1  0.63473330  0.95654239  0.79752510  1  0.108194  1.1e-05  0.94842  0.0  0.130419  2.1e-05  1.006588  0.0  0.131924  6e-06  1.006709  0.0  0.044749  0.000116  0.087543  0.129262  4.2e-05  1.006672  0.0
H  H58  1  0.36526846  0.45653751  0.70247983  1  0.108187  1.1e-05  0.948361  0.0  0.130421  2.1e-05  1.006538  0.0  0.131922  6e-06  1.006662  0.0  0.044808  0.000116  0.087556  0.129265  4.1e-05  1.006623  0.0
H  H59  1  0.13472754  0.54345973  0.20247490  1  0.108249  9e-06  0.948336  0.0  0.130439  2.1e-05  1.006538  0.0  0.13194  6e-06  1.006664  0.0  0.044754  0.000116  0.087564  0.129282  4.2e-05  1.006623  0.0
H  H60  1  0.97302276  0.06846582  0.18631966  1  0.089572  1.1e-05  0.963013  0.0  0.10949  3.3e-05  1.029782  0.0  0.110834  2.4e-05  1.029352  0.0  0.02431  9.1e-05  0.081591  0.108446  4.4e-05  1.030246  0.0
H  H61  1  0.52697638  0.93153977  0.68632248  1  0.089547  9e-06  0.963035  0.0  0.109477  3.3e-05  1.029789  0.0  0.110823  2.4e-05  1.029361  0.0  0.024339  9.1e-05  0.081572  0.108433  4.3e-05  1.030253  0.0
H  H62  1  0.47301840  0.43153489  0.81368386  1  0.089547  8e-06  0.963055  0.0  0.109476  3.3e-05  1.029819  0.0  0.110818  2.4e-05  1.029393  0.0  0.024273  9.1e-05  0.081608  0.108432  4.3e-05  1.030283  0.0
H  H63  1  0.02698039  0.56846319  0.31368104  1  0.089567  6e-06  0.96299  0.0  0.109493  3.3e-05  1.029752  0.0  0.110838  2.4e-05  1.029322  0.0  0.024338  9.1e-05  0.081582  0.108449  4.3e-05  1.030216  0.0
H  H64  1  0.49062255  0.96145998  0.20838363  1  0.105556  -0.000145  0.976773  0.0  0.126016  -9.1e-05  1.040019  0.0  0.127011  -7.5e-05  1.041109  0.0  0.050978  -6.9e-05  0.08724  0.12522  -0.000107  1.039365  0.0
H  H65  1  0.00938042  0.03854143  0.70838786  1  0.10559  -0.000145  0.976803  0.0  0.126028  -9.1e-05  1.040088  0.0  0.127021  -7.5e-05  1.04118  0.0  0.051016  -6.9e-05  0.087233  0.125231  -0.000107  1.039441  0.0
H  H66  1  0.99061715  0.53853880  0.79161284  1  0.105556  -0.000141  0.976863  0.0  0.126029  -9.1e-05  1.040101  0.0  0.127024  -7.5e-05  1.041192  0.0  0.051024  -6.9e-05  0.08725  0.125233  -0.000107  1.039454  0.0
H  H67  1  0.50938339  0.46146011  0.29161143  1  0.105527  -0.000141  0.976879  0.0  0.126005  -9.1e-05  1.040095  0.0  0.127  -7.5e-05  1.041185  0.0  0.051003  -6.9e-05  0.087243  0.125208  -0.000107  1.039449  0.0
H  H68  1  0.36970403  0.09093288  0.21344060  1  0.10213  2.9e-05  0.952161  0.0  0.124255  2.2e-05  1.012664  0.0  0.125794  1.1e-05  1.012259  0.0  0.013858  6.8e-05  0.085726  0.1231  3.4e-05  1.013031  0.0
H  H69  1  0.13029197  0.90906436  0.71344342  1  0.102098  2.8e-05  0.952183  0.0  0.124255  2.2e-05  1.012652  0.0  0.125793  1.1e-05  1.012246  0.0  0.01388  6.8e-05  0.085727  0.1231  3.4e-05  1.013021  0.0
H  H70  1  0.86970002  0.40906282  0.78655517  1  0.102103  3e-05  0.952115  0.0  0.124215  2.2e-05  1.012634  0.0  0.125754  1.1e-05  1.012229  0.0  0.013823  6.8e-05  0.085717  0.123061  3.4e-05  1.013003  0.0
H  H71  1  0.63029773  0.59093693  0.28655376  1  0.10212  3.1e-05  0.952168  0.0  0.124219  2.2e-05  1.012702  0.0  0.125757  1.1e-05  1.012301  0.0  0.013859  6.8e-05  0.085709  0.123065  3.4e-05  1.013069  0.0
H  H72  1  0.50618124  0.04672713  0.31039951  1  0.115742  -5.1e-05  0.961582  0.0  0.136701  -1.6e-05  1.021419  0.0  0.138563  -2.4e-05  1.020729  0.0  0.074797  6.1e-05  0.089185  0.135287  -7e-06  1.02205  0.0
H  H73  1  0.99381930  0.95327345  0.81040374  1  0.115669  -4.9e-05  0.96169  0.0  0.136686  -1.5e-05  1.02145  0.0  0.138544  -2.4e-05  1.020766  0.0  0.074714  6.1e-05  0.089167  0.135278  -6e-06  1.022075  0.0
H  H74  1  0.00618245  0.45327191  0.68959556  1  0.115665  -4.9e-05  0.961681  0.0  0.136676  -1.6e-05  1.021458  0.0  0.138536  -2.4e-05  1.020771  0.0  0.074689  6.1e-05  0.089164  0.135275  -6e-06  1.022077  0.0
H  H75  1  0.49382052  0.54672617  0.18959414  1  0.115712  -5e-05  0.961685  0.0  0.1367  -1.6e-05  1.021465  0.0  0.138558  -2.4e-05  1.020782  0.0  0.074673  6.1e-05  0.089185  0.135298  -6e-06  1.022084  0.0
C  C76  1  0.68066568  0.23226565  0.21679970  1  -0.016707  0.012963  3.512167  0.018  0.009584  0.006524  3.733607  0.009  0.002148  0.004359  3.752029  0.006  0.043728  0.014571  -0.011592  0.01494  0.008646  3.721235  0.012
C  C77  1  0.81933626  0.76773576  0.71680040  1  -0.01665  0.012967  3.512065  0.018  0.00968  0.006523  3.733478  0.009  0.002233  0.004358  3.751895  0.006  0.044111  0.014566  -0.011504  0.01504  0.008644  3.721107  0.012
C  C78  1  0.18065992  0.26773088  0.78320101  1  -0.016558  0.012967  3.511839  0.018  0.009657  0.006524  3.733319  0.009  0.002224  0.004359  3.751736  0.006  0.044113  0.014567  -0.011616  0.015007  0.008645  3.720942  0.012
C  C79  1  0.31934166  0.73226553  0.28319960  1  -0.016658  0.012962  3.511961  0.018  0.00964  0.006522  3.733405  0.009  0.002201  0.004359  3.751827  0.006  0.04413  0.014565  -0.01154  0.015  0.008644  3.721033  0.012
C  C80  1  0.67282704  0.10379672  0.19055872  1  0.176079  -0.001023  3.473904  -0.001  0.205981  -0.000423  3.699251  0.0  0.20706  -0.000393  3.719651  0.0  0.045234  -9.7e-05  -0.001862  0.205005  -0.000379  3.685671  0.0
C  C81  1  0.82716792  0.89620804  0.69056225  1  0.176238  -0.001039  3.473645  -0.001  0.205918  -0.000424  3.69935  0.0  0.206997  -0.000393  3.719755  0.0  0.045224  -9.8e-05  -0.001895  0.204941  -0.000379  3.68577  0.0
C  C82  1  0.17283244  0.39620316  0.80943987  1  0.176002  -0.001041  3.473812  -0.001  0.205934  -0.000423  3.699138  0.0  0.207015  -0.000394  3.719534  0.0  0.045256  -9.8e-05  -0.001878  0.204961  -0.000379  3.685552  0.0
C  C83  1  0.32716914  0.60379492  0.30943493  1  0.176263  -0.001045  3.473711  -0.001  0.205963  -0.000423  3.699375  0.0  0.20704  -0.000392  3.719782  0.0  0.045461  -9.8e-05  -0.001861  0.204989  -0.00038  3.685792  0.0
C  C84  1  0.65143053  0.11129241  0.08062881  1  -0.179015  0.004889  3.579169  0.006  -0.181869  0.002783  3.807588  0.004  -0.189707  0.00184  3.822013  0.002  -0.009273  0.006114  -0.085493  -0.176362  0.003763  3.79781  0.005
C  C85  1  0.84856164  0.88870984  0.58063515  1  -0.179213  0.004886  3.579176  0.006  -0.181973  0.002784  3.80759  0.004  -0.189813  0.001841  3.822018  0.002  -0.009255  0.006117  -0.085537  -0.176474  0.003765  3.797814  0.005
C  C86  1  0.15143035  0.38870996  0.91936908  1  -0.178949  0.004891  3.579134  0.006  -0.18181  0.002782  3.807592  0.004  -0.189652  0.00184  3.822016  0.002  -0.009282  0.006113  -0.085486  -0.176307  0.003762  3.797821  0.005
C  C87  1  0.34856286  0.61128811  0.41936344  1  -0.179292  0.0049  3.579172  0.006  -0.182065  0.002783  3.807602  0.004  -0.189902  0.001839  3.822023  0.002  -0.009521  0.006115  -0.085549  -0.176567  0.003763  3.797827  0.005
C  C88  1  0.52706847  0.21383929  0.06264807  1  -0.114972  0.001422  3.6544  0.002  -0.164724  0.000899  3.92032  0.001  -0.164885  0.000558  3.933273  0.001  -0.005507  0.002251  -0.169477  -0.164318  0.001291  3.911136  0.002
C  C89  1  0.97292928  0.78616379  0.56265019  1  -0.114787  0.001436  3.654218  0.002  -0.164582  0.000899  3.92013  0.001  -0.164754  0.000558  3.933081  0.001  -0.005419  0.002252  -0.169453  -0.164174  0.001291  3.91095  0.002
C  C90  1  0.02706829  0.28616476  0.93735404  1  -0.115041  0.001425  3.654429  0.002  -0.164785  0.000899  3.920308  0.001  -0.16495  0.000558  3.933271  0.001  -0.005589  0.002251  -0.169513  -0.164386  0.001291  3.911121  0.002
C  C91  1  0.47293328  0.71383165  0.43735122  1  -0.114777  0.001428  3.65412  0.002  -0.164622  0.000899  3.920089  0.001  -0.164789  0.000558  3.933049  0.001  -0.00555  0.002251  -0.169509  -0.164212  0.001291  3.910908  0.002
C  C92  1  0.52461279  0.28209986  0.15480314  1  -0.150599  0.001086  3.634465  0.001  -0.195059  0.000873  3.886067  0.001  -0.195704  0.000556  3.899405  0.001  -0.056204  0.001988  -0.169518  -0.194543  0.001238  3.876903  0.001
C  C93  1  0.97538636  0.71790239  0.65480173  1  -0.150604  0.001075  3.634554  0.001  -0.194997  0.000873  3.886058  0.001  -0.195612  0.000556  3.899357  0.001  -0.056238  0.001988  -0.169478  -0.194495  0.001238  3.876909  0.001
C  C94  1  0.02461122  0.21789918  0.84520321  1  -0.150474  0.001083  3.634272  0.001  -0.194846  0.000873  3.885762  0.001  -0.195495  0.000557  3.899106  0.001  -0.056164  0.001988  -0.16941  -0.194307  0.001238  3.876571  0.001
C  C95  1  0.47539315  0.78209723  0.34520180  1  -0.150661  0.001079  3.634426  0.001  -0.195021  0.000873  3.885894  0.001  -0.195662  0.000557  3.899227  0.001  -0.056071  0.001988  -0.169477  -0.194516  0.001238  3.876744  0.001
C  C96  1  0.86735318  0.28629324  0.18974997  1  -0.314429  0.000197  3.692805  0.0  -0.399941  0.000276  3.936287  0.0  -0.401089  0.000125  3.947237  0.0  -0.035224  0.000772  -0.247448  -0.399027  0.00047  3.928731  0.0
C  C97  1  0.63264597  0.71371151  0.68975279  1  -0.314554  0.000179  3.692818  0.0  -0.400077  0.000275  3.936312  0.0  -0.401228  0.000125  3.947266  0.0  -0.035262  0.000772  -0.247556  -0.399168  0.000471  3.928747  0.0
C  C98  1  0.36735299  0.21370913  0.81025144  1  -0.314571  0.000188  3.692703  0.0  -0.40003  0.000276  3.936185  0.0  -0.40118  0.000125  3.947136  0.0  -0.035285  0.000772  -0.247457  -0.399118  0.00047  3.928627  0.0
C  C99  1  0.13265277  0.78629061  0.31024721  1  -0.314565  0.000193  3.692636  0.0  -0.400106  0.000276  3.936115  0.0  -0.401254  0.000123  3.947062  0.0  -0.034858  0.000771  -0.247506  -0.399198  0.00047  3.928554  0.0
C  C100  1  0.84546972  0.03800495  0.22079972  1  -0.345194  -1.8e-05  3.685745  0.0  -0.428612  5.7e-05  3.928101  0.0  -0.431468  1.9e-05  3.938711  0.0  -0.104726  0.000159  -0.249316  -0.426485  0.000112  3.920945  0.0
C  C101  1  0.65452664  0.96199896  0.72080395  1  -0.345216  -1e-06  3.685749  0.0  -0.42863  5.7e-05  3.928235  0.0  -0.431457  1.7e-05  3.938772  0.0  -0.1049  0.000159  -0.249292  -0.426503  0.000112  3.92108  0.0
C  C102  1  0.34547093  0.46199492  0.77920028  1  -0.345168  2e-06  3.685817  0.0  -0.428626  5.7e-05  3.928241  0.0  -0.43147  1.8e-05  3.93883  0.0  -0.104779  0.000159  -0.249362  -0.4265  0.000112  3.921083  0.0
C  C103  1  0.15452925  0.53800399  0.27919605  1  -0.345277  6e-06  3.685689  0.0  -0.428653  5.7e-05  3.928153  0.0  -0.431492  1.8e-05  3.938726  0.0  -0.104881  0.000159  -0.24932  -0.426524  0.000112  3.920995  0.0
C  C104  1  0.49916999  0.04798865  0.23315377  1  -0.351741  -7.3e-05  3.648941  0.0  -0.433535  -4e-06  3.884351  0.0  -0.436654  -3.8e-05  3.894768  0.0  -0.115593  0.000177  -0.252283  -0.43117  4.5e-05  3.877383  0.0
C  C105  1  0.00082879  0.95201277  0.73315729  1  -0.351722  -7.4e-05  3.648945  0.0  -0.433521  -5e-06  3.884422  0.0  -0.43664  -3.8e-05  3.894847  0.0  -0.11559  0.000177  -0.25225  -0.431163  4.5e-05  3.87745  0.0
C  C106  1  0.99917017  0.45200956  0.76684271  1  -0.351682  -8.4e-05  3.648933  0.0  -0.433517  -5e-06  3.884335  0.0  -0.436634  -3.8e-05  3.894757  0.0  -0.115479  0.000177  -0.252253  -0.431167  4.5e-05  3.877359  0.0
C  C107  1  0.50083037  0.54798852  0.26684130  1  -0.351711  -8.4e-05  3.649053  0.0  -0.433465  -5e-06  3.884519  0.0  -0.436582  -3.8e-05  3.894943  0.0  -0.115555  0.000178  -0.252249  -0.431113  4.6e-05  3.877542  0.0
C  C108  1  0.64834000  0.24647277  0.32341705  1  0.668516  -0.011527  3.771965  -0.009  0.634647  -0.001963  4.069223  -0.001  0.673439  -0.00165  4.06093  0.0  1.535119  -0.000854  0.225671  0.606397  -0.002106  4.073527  -0.001
C  C109  1  0.85167589  0.75352364  0.82341705  1  0.668335  -0.011536  3.771785  -0.009  0.634511  -0.001964  4.069013  -0.001  0.673306  -0.001649  4.060724  0.0  1.535035  -0.000852  0.225612  0.606259  -0.002108  4.073315  -0.001
C  C110  1  0.14832587  0.25351626  0.67658577  1  0.668621  -0.011533  3.771899  -0.009  0.634833  -0.001963  4.069054  -0.001  0.673618  -0.001649  4.060761  0.0  1.534933  -0.000851  0.225881  0.606583  -0.002106  4.073359  -0.001
C  C111  1  0.35169245  0.74648099  0.17658436  1  0.668754  -0.011544  3.771565  -0.009  0.634949  -0.001964  4.068745  -0.001  0.673743  -0.001649  4.060451  0.0  1.53459  -0.000852  0.225875  0.606696  -0.002108  4.073052  -0.001
C  C112  1  0.58229337  0.00318717  0.03756980  1  0.698676  -0.004588  3.761674  -0.004  0.650793  -0.000837  4.061842  -0.001  0.687112  -0.00085  4.053466  0.0  1.540826  0.000134  0.232036  0.625186  -0.000741  4.066685  -0.001
C  C113  1  0.91771276  0.99681758  0.53757263  1  0.698717  -0.004589  3.761777  -0.004  0.65082  -0.000838  4.061978  -0.001  0.687135  -0.00085  4.053606  0.0  1.540782  0.000134  0.232112  0.625226  -0.000742  4.066808  -0.001
C  C114  1  0.08229598  0.49681270  0.96242244  1  0.698712  -0.004595  3.761594  -0.004  0.650762  -0.000837  4.061867  -0.001  0.68708  -0.000849  4.053491  0.0  1.5408  0.000134  0.23204  0.625152  -0.000741  4.066714  -0.001
C  C115  1  0.41769025  0.50318287  0.46242173  1  0.698704  -0.0046  3.761732  -0.004  0.65084  -0.000836  4.061877  -0.001  0.687158  -0.000851  4.0535  0.0  1.541686  0.000132  0.232066  0.625244  -0.000742  4.06671  -0.001
O  O116  1  0.48163142  0.25794326  0.35244881  1  -0.601751  0.052654  2.080962  0.092  -0.587161  0.029391  2.361885  0.053  -0.625142  0.020566  2.351957  0.04  -1.138211  0.069372  -0.309783  -0.557022  0.037264  2.367749  0.064
O  O117  1  0.01838970  0.74205899  0.85244810  1  -0.601725  0.052641  2.081029  0.092  -0.587193  0.029385  2.361981  0.053  -0.625167  0.020563  2.352038  0.04  -1.138704  0.069357  -0.309808  -0.557065  0.037256  2.367865  0.064
O  O118  1  0.98161485  0.24204744  0.64755613  1  -0.601835  0.052648  2.081113  0.092  -0.587314  0.029388  2.362061  0.053  -0.625289  0.020563  2.352126  0.04  -1.138698  0.06937  -0.309874  -0.557176  0.037263  2.367932  0.064
O  O119  1  0.51840243  0.75795147  0.14755190  1  -0.60187  0.052637  2.081037  0.092  -0.587369  0.029384  2.362029  0.053  -0.625339  0.020563  2.352083  0.04  -1.138581  0.069351  -0.309902  -0.557245  0.037254  2.367911  0.064
O  O120  1  0.45011081  0.08097088  0.49382333  1  -0.809616  0.03421  1.910513  0.058  -0.780084  0.025568  2.114825  0.044  -0.807344  0.019145  2.080043  0.035  -1.226755  0.057497  -0.569094  -0.75814  0.031174  2.139877  0.05
O  O121  1  0.04989216  0.91902386  0.99382545  1  -0.809682  0.034206  1.910492  0.058  -0.780134  0.025566  2.114823  0.043  -0.807392  0.019143  2.080041  0.035  -1.226718  0.057491  -0.569071  -0.758193  0.031171  2.139871  0.05
O  O122  1  0.95010262  0.41902649  0.50617103  1  -0.809636  0.034199  1.910523  0.058  -0.780116  0.025563  2.114872  0.043  -0.80737  0.019141  2.080089  0.035  -1.226788  0.057482  -0.569138  -0.758174  0.031168  2.139909  0.05
O  O123  1  0.54988955  0.58097326  0.00617596  1  -0.80967  0.034205  1.91054  0.058  -0.78014  0.025566  2.114848  0.043  -0.807396  0.019143  2.080063  0.035  -1.226754  0.05749  -0.569116  -0.758201  0.03117  2.139929  0.05
O  O124  1  0.79448227  0.24343161  0.37467636  1  -0.651673  0.040041  2.100849  0.072  -0.626592  0.025073  2.376985  0.046  -0.663857  0.017888  2.365763  0.035  -1.183075  0.058757  -0.321167  -0.597002  0.031629  2.383718  0.055
O  O125  1  0.70552246  0.75655396  0.87468412  1  -0.651546  0.040051  2.100633  0.072  -0.626465  0.025077  2.376739  0.046  -0.663736  0.01789  2.365522  0.035  -1.182916  0.05876  -0.321136  -0.596877  0.031632  2.383468  0.055
O  O126  1  0.29446813  0.25655241  0.62532435  1  -0.651729  0.040041  2.100578  0.072  -0.626674  0.025071  2.376675  0.046  -0.663931  0.017885  2.365444  0.035  -1.182816  0.058753  -0.321304  -0.59709  0.031626  2.383412  0.055
O  O127  1  0.20553903  0.74344316  0.12531588  1  -0.651791  0.040054  2.100453  0.072  -0.626731  0.025076  2.376604  0.046  -0.664  0.017888  2.365383  0.035  -1.182673  0.058761  -0.321293  -0.597141  0.031631  2.383339  0.055
O  O128  1  0.12232914  0.19475964  0.44170451  1  -0.823977  0.066321  2.087729  0.113  -0.804046  0.050522  2.348028  0.085  -0.841453  0.038643  2.31061  0.069  -1.211187  0.109115  -0.545803  -0.77224  0.061041  2.374124  0.098
O  O129  1  0.37767522  0.80524094  0.94170874  1  -0.824083  0.066333  2.087565  0.113  -0.804127  0.050528  2.347876  0.085  -0.841538  0.038647  2.310471  0.069  -1.21149  0.109121  -0.545798  -0.772326  0.061046  2.373965  0.098
O  O130  1  0.62232514  0.30524191  0.55829408  1  -0.824018  0.066323  2.087635  0.113  -0.804041  0.050521  2.347944  0.085  -0.841445  0.038642  2.310525  0.069  -1.21124  0.109116  -0.545806  -0.772235  0.061041  2.37404  0.098
O  O131  1  0.87767261  0.69475617  0.05829267  1  -0.824092  0.066322  2.087548  0.113  -0.804146  0.050522  2.347847  0.085  -0.841549  0.038643  2.31043  0.069  -1.211064  0.10911  -0.54579  -0.772347  0.061039  2.373941  0.098
O  O132  1  0.41592942  0.99602829  0.00644743  1  -0.603731  7.8e-05  1.994207  0.002  -0.546082  -0.000201  2.211544  0.001  -0.572268  -0.000711  2.199557  0.0  -1.180485  0.001938  -0.30694  -0.527796  0.000467  2.219564  0.002
O  O133  1  0.08405542  0.00397479  0.50645448  1  -0.603564  7.6e-05  1.994511  0.002  -0.545905  -0.000201  2.21179  0.001  -0.572089  -0.000711  2.199805  0.0  -1.180392  0.001935  -0.306954  -0.527626  0.000466  2.219804  0.002
O  O134  1  0.91592820  0.50397883  0.99354552  1  -0.60377  8e-05  1.994197  0.002  -0.546027  -0.000201  2.211469  0.001  -0.572214  -0.000711  2.199483  0.0  -1.180376  0.001938  -0.30692  -0.527741  0.000467  2.219491  0.002
O  O135  1  0.58405420  0.49602008  0.49354693  1  -0.603692  8e-05  1.994094  0.002  -0.54601  -0.0002  2.211361  0.001  -0.572198  -0.00071  2.199373  0.0  -1.180924  0.001938  -0.306979  -0.527728  0.000468  2.219375  0.002
O  O136  1  0.69767126  0.92134749  0.03517529  1  -0.637171  0.041318  2.113855  0.073  -0.596369  0.026999  2.375049  0.049  -0.633467  0.019521  2.364197  0.038  -1.163967  0.062769  -0.302006  -0.567226  0.033879  2.381555  0.058
O  O137  1  0.80232649  0.07865309  0.53518234  1  -0.637245  0.041332  2.113734  0.073  -0.596535  0.027004  2.375044  0.049  -0.633627  0.019523  2.364166  0.038  -1.163961  0.062786  -0.30207  -0.567391  0.033888  2.381554  0.058
O  O138  1  0.19767387  0.57865463  0.96482048  1  -0.637232  0.04132  2.113813  0.073  -0.596448  0.026998  2.375081  0.049  -0.63354  0.01952  2.364212  0.038  -1.164006  0.062768  -0.302061  -0.567304  0.033878  2.381596  0.058
O  O139  1  0.30231933  0.42134678  0.46481343  1  -0.637207  0.041318  2.114064  0.073  -0.596473  0.026996  2.375306  0.049  -0.633565  0.019519  2.364437  0.038  -1.164097  0.062765  -0.301985  -0.567334  0.033877  2.381817  0.058
