# generated using pymatgen
data_ZnH18C18S2(NO2)2
_symmetry_space_group_name_H-M   'P 1'
_cell_length_a   10.15983953
_cell_length_b   10.51553257
_cell_length_c   22.42770336
_cell_angle_alpha   96.51728763
_cell_angle_beta   94.32116681
_cell_angle_gamma   114.47392652
_symmetry_Int_Tables_number   1
_chemical_formula_structural   ZnH18C18S2(NO2)2
_chemical_formula_sum   'Zn4 H72 C72 S8 N8 O16'
_cell_volume   2146.77633320
_cell_formula_units_Z   4
loop_
 _symmetry_equiv_pos_site_id
 _symmetry_equiv_pos_as_xyz
  1  'x, y, z'
loop_
 _atom_site_type_symbol
 _atom_site_label
 _atom_site_symmetry_multiplicity
 _atom_site_fract_x
 _atom_site_fract_y
 _atom_site_fract_z
 _atom_site_occupancy
 _atom_site_pbe_bader_charge
 _atom_site_pbe_bader_spin_density
 _atom_site_pbe_cm5_charge
 _atom_site_pbe_ddec_charge
 _atom_site_pbe_ddec_spin_density
 _atom_site_pbe_ddec_sum_bond_order
 _atom_site_pbe_magmom
Zn  Zn0  1  0.76006578  0.11479600  0.18076310  1  1.260569  0  0.670797  0.740368  0  2.367212  0
Zn  Zn1  1  0.23992915  0.88521409  0.81924009  1  1.260542  0  0.670801  0.74037  0  2.367256  0
Zn  Zn2  1  0.87505421  0.69202657  0.31342263  1  1.257834  0  0.669243  0.743187  0  2.323551  0
Zn  Zn3  1  0.12493689  0.30797110  0.68657212  1  1.258006  0  0.669198  0.743123  0  2.323581  0
H  H4  1  0.84724815  0.51572015  0.11504133  1  0.060692  0  0.088121  0.070559  0  1.053638  0
H  H5  1  0.15274436  0.48428801  0.88495672  1  0.060545  0  0.088134  0.070583  0  1.053651  0
H  H6  1  0.67229723  0.61809674  0.11888931  1  0.020034  0  0.095725  0.076724  0  0.976704  0
H  H7  1  0.32768091  0.38188679  0.88111430  1  0.019805  0  0.095721  0.076741  0  0.976637  0
H  H8  1  0.46598326  0.34284770  0.15688645  1  0.075162  0  0.090822  0.098634  0  0.991046  0
H  H9  1  0.53400730  0.65713393  0.84311235  1  0.075288  0  0.090799  0.098594  0  0.991051  0
H  H10  1  0.43648002  0.49649291  0.15916998  1  0.025262  0  0.085435  0.07954  0  1.028967  0
H  H11  1  0.56350248  0.50349167  0.84083436  1  0.025067  0  0.085402  0.079549  0  1.029055  0
H  H12  1  0.44488998  0.49037163  0.04809299  1  0.013456  0  0.083218  0.075881  0  1.026146  0
H  H13  1  0.55509190  0.50961610  0.95191193  1  0.014236  0  0.083153  0.075829  0  1.026125  0
H  H14  1  0.30835153  0.33015381  0.06201108  1  -0.007331  0  0.077366  0.065494  0  1.019673  0
H  H15  1  0.69163612  0.66983726  0.93798984  1  -0.007188  0  0.07738  0.065516  0  1.01951  0
H  H16  1  0.46300456  0.29260439  0.98424527  1  -0.026768  0  0.079167  0.068424  0  1.015296  0
H  H17  1  0.53698241  0.70739196  0.01575634  1  -0.026398  0  0.079171  0.068408  0  1.015325  0
H  H18  1  0.47100316  0.21000127  0.04740573  1  0.001758  0  0.080567  0.07114  0  1.011555  0
H  H19  1  0.52899182  0.78999728  0.95259462  1  0.001884  0  0.080567  0.071186  0  1.011526  0
H  H20  1  0.72008736  0.33330551  0.02289898  1  0.02495  0  0.075411  0.071225  0  1.052792  0
H  H21  1  0.27990301  0.66669742  0.97709690  1  0.024888  0  0.075375  0.071159  0  1.0528  0
H  H22  1  0.69971907  0.49188648  0.02181517  1  -0.017273  0  0.076127  0.062066  0  1.053954  0
H  H23  1  0.30026578  0.50810252  0.97818461  1  -0.017422  0  0.076099  0.062081  0  1.05386  0
H  H24  1  0.96408885  0.30188833  0.37180724  1  0.022876  0  0.096578  0.076531  0  0.967595  0
H  H25  1  0.03593394  0.69811673  0.62819129  1  0.022613  0  0.096612  0.07662  0  0.967461  0
H  H26  1  0.79489152  0.06269307  0.37671880  1  0.021804  0  0.099082  0.087363  0  0.981837  0
H  H27  1  0.20512015  0.93731828  0.62328040  1  0.021775  0  0.099034  0.087332  0  0.981839  0
H  H28  1  0.95349967  0.20816693  0.46856480  1  -0.024211  0  0.082071  0.073385  0  1.012917  0
H  H29  1  0.04651815  0.79184238  0.53143281  1  -0.023567  0  0.082104  0.073357  0  1.012948  0
H  H30  1  0.92103618  0.02885696  0.46903117  1  0.053027  0  0.087434  0.087639  0  1.025805  0
H  H31  1  0.07897059  0.97115012  0.53096845  1  0.053312  0  0.087396  0.087617  0  1.025792  0
H  H32  1  0.16680776  0.08367762  0.43365607  1  0.006338  0  0.079375  0.070396  0  1.026563  0
H  H33  1  0.83320306  0.91632096  0.56634464  1  0.00629  0  0.079391  0.070396  0  1.026622  0
H  H34  1  0.18392855  0.18997351  0.50306940  1  -0.01484  0  0.077387  0.067781  0  1.049629  0
H  H35  1  0.81608099  0.81003049  0.49692796  1  -0.014457  0  0.077354  0.06776  0  1.049644  0
H  H36  1  0.19485919  0.38760712  0.44737801  1  -0.005031  0  0.076623  0.065372  0  1.006423  0
H  H37  1  0.80514553  0.61239264  0.55261888  1  -0.00505  0  0.076685  0.065445  0  1.006416  0
H  H38  1  0.33435927  0.33555945  0.42996001  1  -0.004013  0  0.07321  0.063378  0  1.038124  0
H  H39  1  0.66565877  0.66444869  0.57004068  1  -0.003777  0  0.07317  0.063259  0  1.038208  0
H  H40  1  0.20368039  0.36517460  0.33602555  1  0.038434  0  0.084264  0.080203  0  1.013944  0
H  H41  1  0.79633901  0.63483154  0.66397198  1  0.038267  0  0.08429  0.080311  0  1.013993  0
H  H42  1  0.18261906  0.18931891  0.33309010  1  0.054536  0  0.090669  0.100073  0  0.986185  0
H  H43  1  0.81739562  0.81068089  0.66690641  1  0.054192  0  0.090651  0.100124  0  0.986115  0
H  H44  1  0.93346464  0.94183018  0.21108798  1  0.174815  0  0.126065  0.117614  0  1.021466  0
H  H45  1  0.06654241  0.05818180  0.78892262  1  0.175119  0  0.126078  0.117552  0  1.021639  0
H  H46  1  0.01892963  0.78175791  0.15295631  1  0.111604  0  0.108336  0.124035  0  1.02587  0
H  H47  1  0.98107977  0.21824994  0.84705151  1  0.11112  0  0.108331  0.12402  0  1.026  0
H  H48  1  0.85731276  0.88091780  0.98810896  1  0.09284  0  0.108204  0.122681  0  0.999339  0
H  H49  1  0.14269386  0.11909011  0.01189693  1  0.092692  0  0.1082  0.122637  0  0.999335  0
H  H50  1  0.77892186  0.03859695  0.05396222  1  0.122717  0  0.115387  0.088786  0  1.020696  0
H  H51  1  0.22107377  0.96139807  0.94604735  1  0.122829  0  0.11533  0.088767  0  1.020578  0
H  H52  1  0.25148978  0.92647057  0.06015811  1  0.080203  0  0.100014  0.107324  0  1.045059  0
H  H53  1  0.74850845  0.07353538  0.93984280  1  0.080296  0  0.100022  0.107355  0  1.045087  0
H  H54  1  0.50063129  0.09909526  0.10846257  1  0.097323  0  0.115922  0.081366  0  1.052251  0
H  H55  1  0.49936941  0.90090749  0.89153918  1  0.097336  0  0.115943  0.081382  0  1.052292  0
H  H56  1  0.56707742  0.79672436  0.19441421  1  0.135138  0  0.12522  0.110197  0  0.995665  0
H  H57  1  0.43292197  0.20326706  0.80557841  1  0.135124  0  0.12524  0.110329  0  0.995677  0
H  H58  1  0.31967719  0.61283967  0.15145622  1  0.091519  0  0.117449  0.134105  0  0.988609  0
H  H59  1  0.68032190  0.38716233  0.84853693  1  0.091552  0  0.117445  0.134032  0  0.988589  0
H  H60  1  0.04319321  0.82611454  0.42955678  1  0.120242  0  0.120121  0.094376  0  1.026278  0
H  H61  1  0.95679234  0.17388165  0.57044922  1  0.119951  0  0.120174  0.094504  0  1.026153  0
H  H62  1  0.26962960  0.86382148  0.49550264  1  0.119933  0  0.098062  0.101395  0  1.069218  0
H  H63  1  0.73036153  0.13617068  0.50449808  1  0.119543  0  0.098049  0.101311  0  1.069328  0
H  H64  1  0.36745942  0.63207474  0.34624766  1  0.112083  0  0.123054  0.1434  0  0.962124  0
H  H65  1  0.63253542  0.36793355  0.65374695  1  0.111916  0  0.12319  0.143606  0  0.962315  0
H  H66  1  0.13098770  0.59492500  0.28877690  1  0.153234  0  0.132217  0.110765  0  0.959878  0
H  H67  1  0.86900711  0.40510038  0.71121414  1  0.153287  0  0.132181  0.110668  0  0.960084  0
H  H68  1  0.39375840  0.54450144  0.51607208  1  0.09985  0  0.097541  0.098225  0  1.075811  0
H  H69  1  0.60627567  0.45549825  0.48392898  1  0.100204  0  0.097608  0.098269  0  1.075896  0
H  H70  1  0.25924721  0.34988688  0.57369595  1  0.141452  0  0.114768  0.090966  0  1.03843  0
H  H71  1  0.74077772  0.65011270  0.42630732  1  0.141608  0  0.114685  0.09089  0  1.038474  0
H  H72  1  0.26138542  0.63439987  0.71814995  1  0.196181  0  0.125456  0.114531  0  1.027257  0
H  H73  1  0.73861831  0.36559436  0.28185330  1  0.196152  0  0.12539  0.114407  0  1.027319  0
H  H74  1  0.39169149  0.83979401  0.66779794  1  0.132026  0  0.11685  0.139982  0  0.983311  0
H  H75  1  0.60830796  0.16019405  0.33219986  1  0.132164  0  0.116858  0.140073  0  0.983046  0
C  C76  1  0.72710204  0.32096862  0.14125403  1  1.535304  0  0.197429  0.58792  0  4.117691  0
C  C77  1  0.27288389  0.67902468  0.85874380  1  1.534822  0  0.197445  0.587979  0  4.117641  0
C  C78  1  0.73036408  0.44506932  0.11140156  1  -0.001638  0  -0.094638  -0.12073  0  3.855203  0
C  C79  1  0.26962423  0.55492200  0.88859272  1  -0.001773  0  -0.094725  -0.120951  0  3.855284  0
C  C80  1  0.65361914  0.52675134  0.14285588  1  -0.005314  0  -0.086854  -0.106805  0  3.857652  0
C  C81  1  0.34636168  0.47323033  0.85714108  1  -0.005139  0  -0.08683  -0.106712  0  3.857368  0
C  C82  1  0.48815893  0.43682996  0.13505144  1  -0.02317  0  -0.170655  -0.166194  0  3.923566  0
C  C83  1  0.51182195  0.56315475  0.86494925  1  -0.02311  0  -0.170616  -0.166255  0  3.923587  0
C  C84  1  0.42725595  0.39407957  0.06778204  1  -0.022953  0  -0.172425  -0.144683  0  3.951256  0
C  C85  1  0.57272750  0.60591140  0.93222134  1  -0.023774  0  -0.172348  -0.144493  0  3.95074  0
C  C86  1  0.50195690  0.31448548  0.03315671  1  0.013101  0  -0.172396  -0.137148  0  3.940539  0
C  C87  1  0.49803088  0.68551722  0.96684528  1  0.012486  0  -0.172445  -0.137289  0  3.94057  0
C  C88  1  0.66835630  0.39705509  0.04381437  1  0.023101  0  -0.176204  -0.172358  0  3.934931  0
C  C89  1  0.33162761  0.60293820  0.95618381  1  0.023265  0  -0.176155  -0.172227  0  3.934532  0
C  C90  1  0.71911349  0.59571575  0.20816628  1  1.541537  0  0.196033  0.580014  0  4.152486  0
C  C91  1  0.28088054  0.40427978  0.79182941  1  1.542175  0  0.196192  0.580053  0  4.152388  0
C  C92  1  0.92279850  0.19518930  0.28317647  1  1.549508  0  0.192307  0.574748  0  4.169947  0
C  C93  1  0.07721835  0.80482303  0.71682527  1  1.549033  0  0.192496  0.57517  0  4.169847  0
C  C94  1  0.98856725  0.21668303  0.34876680  1  0.012854  0  -0.086865  -0.111324  0  3.864302  0
C  C95  1  0.01144185  0.78331439  0.65123644  1  0.013198  0  -0.086876  -0.111534  0  3.864518  0
C  C96  1  0.91182593  0.08723513  0.37978099  1  0.040851  0  -0.090631  -0.123087  0  3.857386  0
C  C97  1  0.08818451  0.91276242  0.62021876  1  0.041327  0  -0.090561  -0.122994  0  3.8576  0
C  C98  1  0.97632975  0.12131254  0.44693817  1  -0.011487  0  -0.170105  -0.162273  0  3.916167  0
C  C99  1  0.02369516  0.87869559  0.55306331  1  -0.012938  0  -0.170129  -0.16225  0  3.916322  0
C  C100  1  0.14148636  0.16946594  0.45466580  1  0.008973  0  -0.177688  -0.15899  0  3.95955  0
C  C101  1  0.85853999  0.83054023  0.54533164  1  0.011786  0  -0.177615  -0.158933  0  3.959537  0
C  C102  1  0.21528612  0.30003749  0.42447995  1  -0.017213  0  -0.174881  -0.138589  0  3.949723  0
C  C103  1  0.78472853  0.69996658  0.57551589  1  -0.02054  0  -0.174922  -0.138515  0  3.949697  0
C  C104  1  0.15511879  0.27012197  0.35725428  1  -0.03371  0  -0.171336  -0.164312  0  3.916526  0
C  C105  1  0.84488997  0.72987782  0.64274193  1  -0.033063  0  -0.17134  -0.164492  0  3.916611  0
C  C106  1  0.91638683  0.95154346  0.34954739  1  1.537902  0  0.202508  0.596258  0  4.111846  0
C  C107  1  0.08360775  0.04845316  0.65044748  1  1.537929  0  0.202513  0.596215  0  4.111918  0
C  C108  1  0.91907364  0.92611856  0.16157684  1  0.485156  0  0.062773  0.122633  0  3.862877  0
C  C109  1  0.08091013  0.07387342  0.83842795  1  0.483308  0  0.062782  0.122808  0  3.862833  0
C  C110  1  0.96811918  0.83758691  0.12881812  1  0.068201  0  -0.086266  -0.174127  0  3.955692  0
C  C111  1  0.03189128  0.16242310  0.87118853  1  0.069917  0  -0.086137  -0.174001  0  3.955652  0
C  C112  1  0.94591740  0.81916103  0.06560388  1  -0.250692  0  0.003048  0.084757  0  4.036625  0
C  C113  1  0.05407853  0.18083411  0.93440259  1  -0.250749  0  0.003035  0.084671  0  4.036881  0
C  C114  1  0.87625631  0.89165580  0.03728428  1  -0.003027  0  -0.093647  -0.188701  0  3.991934  0
C  C115  1  0.12374455  0.10834789  0.96272065  1  -0.003186  0  -0.093642  -0.188641  0  3.991868  0
C  C116  1  0.83181355  0.97835101  0.07342576  1  0.439246  0  0.044039  0.090086  0  3.96426  0
C  C117  1  0.16819006  0.02165173  0.92657659  1  0.439172  0  0.044141  0.090207  0  3.963991  0
C  C118  1  0.26604710  0.75527886  0.10176050  1  -0.142244  0  0.00966  0.099077  0  4.029372  0
C  C119  1  0.73395009  0.24471763  0.89823807  1  -0.142038  0  0.009619  0.098982  0  4.029216  0
C  C120  1  0.31789428  0.89379883  0.08959927  1  -0.053915  0  -0.092983  -0.182959  0  3.988148  0
C  C121  1  0.68210628  0.10619568  0.91039580  1  -0.054133  0  -0.092978  -0.18298  0  3.988079  0
C  C122  1  0.45668651  0.98974439  0.11610837  1  0.511076  0  0.05153  0.111194  0  3.948122  0
C  C123  1  0.54329753  0.01025411  0.88389231  1  0.510698  0  0.051534  0.111212  0  3.948046  0
C  C124  1  0.49458054  0.82256363  0.16454846  1  0.52139  0  0.057425  0.107351  0  3.903497  0
C  C125  1  0.50540947  0.17742974  0.83544824  1  0.521226  0  0.057392  0.107171  0  3.903499  0
C  C126  1  0.35617844  0.71941823  0.14034647  1  -0.011618  0  -0.080971  -0.168231  0  3.920782  0
C  C127  1  0.64381657  0.28057730  0.85964926  1  -0.011721  0  -0.080872  -0.167941  0  3.920391  0
C  C128  1  0.11776161  0.78374975  0.41334207  1  0.464678  0  0.047873  0.103165  0  3.935101  0
C  C129  1  0.88222453  0.21625396  0.58666122  1  0.46487  0  0.047752  0.102888  0  3.935071  0
C  C130  1  0.24416123  0.80526207  0.44964700  1  0.009939  0  -0.098595  -0.200782  0  4.028703  0
C  C131  1  0.75582707  0.19473957  0.55035496  1  0.010193  0  -0.098533  -0.200587  0  4.028419  0
C  C132  1  0.33802299  0.75220055  0.42599062  1  -0.229455  0  0.004171  0.092171  0  4.027844  0
C  C133  1  0.66196708  0.24780529  0.57401254  1  -0.229301  0  0.004119  0.092061  0  4.027793  0
C  C134  1  0.29863138  0.67650227  0.36679099  1  -0.00599  0  -0.077879  -0.164715  0  3.912601  0
C  C135  1  0.70135070  0.32350051  0.63320848  1  -0.006162  0  -0.078074  -0.165064  0  3.913265  0
C  C136  1  0.16764435  0.65734424  0.33412201  1  0.521462  0  0.063767  0.116401  0  3.90271  0
C  C137  1  0.83234147  0.34267556  0.66587587  1  0.521467  0  0.06401  0.116739  0  3.902674  0
C  C138  1  0.40403635  0.70814524  0.58714761  1  -0.209104  0  0.005423  0.098232  0  4.02208  0
C  C139  1  0.59598753  0.29185647  0.41285571  1  -0.208813  0  0.005403  0.098202  0  4.021941  0
C  C140  1  0.36585862  0.56861853  0.56056442  1  -0.011909  0  -0.097907  -0.197751  0  4.020769  0
C  C141  1  0.63416336  0.43137893  0.43943904  1  -0.012353  0  -0.098006  -0.1978  0  4.02092  0
C  C142  1  0.29047735  0.46036382  0.59209655  1  0.471527  0  0.046701  0.102953  0  3.935257  0
C  C143  1  0.70955255  0.53964221  0.40790508  1  0.471114  0  0.046807  0.103027  0  3.935136  0
C  C144  1  0.29039684  0.61834714  0.67292166  1  0.509288  0  0.061216  0.118782  0  3.871515  0
C  C145  1  0.70961249  0.38164396  0.32708082  1  0.509537  0  0.061144  0.118817  0  3.871686  0
C  C146  1  0.36636149  0.73371116  0.64469274  1  -0.047547  0  -0.079304  -0.160158  0  3.899757  0
C  C147  1  0.63364797  0.26627998  0.35530840  1  -0.048426  0  -0.079252  -0.160284  0  3.899507  0
S  S148  1  0.50716038  0.77891214  0.46631409  1  0.087505  0  0.076635  0.044314  0  2.754807  0
S  S149  1  0.49282148  0.22108237  0.53367958  1  0.087453  0  0.076654  0.044334  0  2.754848  0
S  S150  1  0.50226626  0.85773709  0.55301840  1  0.08607  0  0.06884  0.030403  0  2.802751  0
S  S151  1  0.49773203  0.14226033  0.44698385  1  0.08591  0  0.068878  0.030475  0  2.802884  0
S  S152  1  0.00279705  0.71326932  0.01687891  1  0.107445  0  0.078048  0.035543  0  2.841234  0
S  S153  1  0.99720054  0.28674191  0.98312224  1  0.107323  0  0.077957  0.035492  0  2.841522  0
S  S154  1  0.09061125  0.62180342  0.07310580  1  0.106697  0  0.092303  0.060383  0  2.853609  0
S  S155  1  0.90938918  0.37819620  0.92689444  1  0.106702  0  0.092344  0.060423  0  2.853849  0
N  N156  1  0.85222646  0.99526751  0.13434127  1  -1.229751  0  -0.325615  -0.224958  0  3.545924  0
N  N157  1  0.14777321  0.00473522  0.86566088  1  -1.228893  0  -0.325699  -0.225154  0  3.546167  0
N  N158  1  0.54447637  0.95618235  0.15256609  1  -1.232841  0  -0.322739  -0.229563  0  3.530662  0
N  N159  1  0.45551681  0.04380807  0.84742437  1  -1.232344  0  -0.322839  -0.229662  0  3.530673  0
N  N160  1  0.07883588  0.71136182  0.35651369  1  -1.246847  0  -0.319356  -0.231427  0  3.519043  0
N  N161  1  0.92115194  0.28866012  0.64348350  1  -1.246453  0  -0.319466  -0.231394  0  3.518925  0
N  N162  1  0.25213513  0.48381763  0.64697354  1  -1.248896  0  -0.324203  -0.228477  0  3.537317  0
N  N163  1  0.74787611  0.51617042  0.35302530  1  -1.248227  0  -0.324091  -0.228361  0  3.537307  0
O  O164  1  0.78555551  0.24490350  0.11542111  1  -1.182498  0  -0.344682  -0.573722  0  2.243461  0
O  O165  1  0.21445126  0.75511000  0.88457706  1  -1.182097  0  -0.344713  -0.573724  0  2.243435  0
O  O166  1  0.66957875  0.29221801  0.18890437  1  -1.182133  0  -0.314234  -0.54413  0  2.191997  0
O  O167  1  0.33041122  0.70776892  0.81109422  1  -1.182087  0  -0.314228  -0.544197  0  2.192116  0
O  O168  1  0.85100192  0.61244752  0.22605090  1  -1.159544  0  -0.341398  -0.552322  0  2.246206  0
O  O169  1  0.14899167  0.38755425  0.77394776  1  -1.159778  0  -0.341443  -0.552274  0  2.246206  0
O  O170  1  0.64879160  0.64029541  0.24180557  1  -1.188304  0  -0.337291  -0.562252  0  2.101433  0
O  O171  1  0.35121211  0.35968813  0.75820024  1  -1.188441  0  -0.337322  -0.562287  0  2.101338  0
O  O172  1  0.78717920  0.10338260  0.26869799  1  -1.173543  0  -0.34373  -0.562951  0  2.262348  0
O  O173  1  0.21283630  0.89663425  0.73129633  1  -1.173624  0  -0.343852  -0.563157  0  2.262039  0
O  O174  1  0.99422070  0.26672053  0.24585402  1  -1.183715  0  -0.340624  -0.556016  0  2.081092  0
O  O175  1  0.00578366  0.73329708  0.75414736  1  -1.183289  0  -0.340664  -0.55613  0  2.081234  0
O  O176  1  0.84825953  0.83898223  0.37337167  1  -1.179063  0  -0.344054  -0.579127  0  2.268895  0
O  O177  1  0.15173822  0.16102479  0.62662882  1  -1.178938  0  -0.344063  -0.57916  0  2.269063  0
O  O178  1  0.98255751  0.94777914  0.30467751  1  -1.183102  0  -0.314955  -0.542663  0  2.157353  0
O  O179  1  0.01744918  0.05221634  0.69532059  1  -1.183276  0  -0.314968  -0.542621  0  2.157277  0
