# generated using pymatgen
data_ZnH9C17NO5
_symmetry_space_group_name_H-M   'P 1'
_cell_length_a   9.35935467
_cell_length_b   11.07370670
_cell_length_c   13.80730446
_cell_angle_alpha   90.92864388
_cell_angle_beta   86.65699092
_cell_angle_gamma   92.69669801
_symmetry_Int_Tables_number   1
_chemical_formula_structural   ZnH9C17NO5
_chemical_formula_sum   'Zn2 H18 C34 N2 O10'
_cell_volume   1426.87973031
_cell_formula_units_Z   2
loop_
 _symmetry_equiv_pos_site_id
 _symmetry_equiv_pos_as_xyz
  1  'x, y, z'
loop_
 _atom_site_type_symbol
 _atom_site_label
 _atom_site_symmetry_multiplicity
 _atom_site_fract_x
 _atom_site_fract_y
 _atom_site_fract_z
 _atom_site_occupancy
 _atom_site_pbe_bader_charge
 _atom_site_pbe_bader_spin_density
 _atom_site_pbe_cm5_charge
 _atom_site_pbe_ddec_charge
 _atom_site_pbe_ddec_spin_density
 _atom_site_pbe_ddec_sum_bond_order
 _atom_site_pbe_magmom
Zn  Zn0  1  0.13680763  0.50987832  0.53069918  1  1.288455  0  0.675334  0.83229  0  2.404541  0
Zn  Zn1  1  0.86113409  0.50018773  0.46812898  1  1.286508  0  0.674356  0.830626  0  2.391264  0
H  H2  1  0.80402355  0.43034321  0.13312349  1  0.062463  0  0.106107  0.111976  0  0.993813  0
H  H3  1  0.22183241  0.66292291  0.87974800  1  0.078812  0  0.105405  0.109576  0  0.98876  0
H  H4  1  0.36224368  0.49237716  0.23793966  1  0.060687  0  0.097396  0.100443  0  1.036487  0
H  H5  1  0.64584582  0.54995450  0.76469906  1  0.058173  0  0.097022  0.099041  0  1.032469  0
H  H6  1  0.95397759  0.62837576  0.18446908  1  0.118416  0  0.106873  0.119209  0  1.009752  0
H  H7  1  0.06017663  0.43073828  0.82392018  1  0.123124  0  0.107111  0.119845  0  1.006661  0
H  H8  1  0.98246243  0.40742563  0.99916161  1  0.061383  0  0.104042  0.106437  0  0.99707  0
H  H9  1  0.03948616  0.67610834  0.01410712  1  0.082353  0  0.10461  0.107274  0  0.992749  0
H  H10  1  0.56403747  0.47947708  0.19435741  1  0.025297  0  0.097157  0.097044  0  1.026682  0
H  H11  1  0.45923018  0.60763293  0.81664422  1  0.046106  0  0.099515  0.099831  0  1.015403  0
H  H12  1  0.76600232  0.10987602  0.51453691  1  0.063923  0  0.100054  0.098852  0  1.011321  0
H  H13  1  0.22463984  0.90024228  0.48168143  1  0.073328  0  0.099901  0.099057  0  1.011182  0
H  H14  1  0.76579859  0.88351853  0.51878162  1  0.095366  0  0.09946  0.096922  0  1.016091  0
H  H15  1  0.22520980  0.12665952  0.47909473  1  0.119371  0  0.099987  0.098741  0  1.011366  0
H  H16  1  0.36164153  0.67974206  0.46809885  1  0.170702  0  0.136939  0.120579  0  0.990456  0
H  H17  1  0.63585310  0.33050731  0.53337056  1  0.176587  0  0.13692  0.120271  0  0.989843  0
H  H18  1  0.58604022  0.77455345  0.38213998  1  0.061437  0  0.114291  0.0524  0  0.944812  0
H  H19  1  0.41562333  0.23754982  0.62252779  1  0.059968  0  0.114048  0.050905  0  0.943991  0
C  C20  1  0.99641501  0.26708911  0.49648634  1  1.587846  0  0.219858  0.600251  0  4.149357  0
C  C21  1  0.99490454  0.74321678  0.50072432  1  1.556167  0  0.218771  0.598997  0  4.152731  0
C  C22  1  0.59194815  0.48759664  0.11704974  1  -0.035401  0  -0.090656  -0.11907  0  4.016987  0
C  C23  1  0.42946084  0.59420160  0.89325219  1  -0.047393  0  -0.090816  -0.122195  0  4.018476  0
C  C24  1  0.72696261  0.45997146  0.08317624  1  0.008775  0  -0.087378  -0.125446  0  4.001967  0
C  C25  1  0.29614979  0.62566518  0.92820474  1  -0.004557  0  -0.087493  -0.128419  0  4.007245  0
C  C26  1  0.86604657  0.06320684  0.50731541  1  0.014832  0  -0.085447  -0.09662  0  3.987534  0
C  C27  1  0.12469872  0.94704693  0.48919593  1  -0.004241  0  -0.084681  -0.093024  0  3.985786  0
C  C28  1  0.86577230  0.93765162  0.50927263  1  -0.10935  0  -0.084839  -0.093035  0  3.984861  0
C  C29  1  0.12505745  0.07261712  0.48784853  1  -0.110525  0  -0.084582  -0.095675  0  3.982932  0
C  C30  1  0.99514891  0.87848324  0.50003412  1  -0.004977  0  -0.012394  -0.021014  0  3.952451  0
C  C31  1  0.99566799  0.13175746  0.49683343  1  -0.00512  0  -0.010702  -0.015821  0  3.949111  0
C  C32  1  0.56354946  0.59040508  0.44242607  1  0.45739  0  0.139269  0.139171  0  3.913197  0
C  C33  1  0.43443562  0.42037137  0.55976811  1  0.519173  0  0.139865  0.138826  0  3.908921  0
C  C34  1  0.42491214  0.60289092  0.48368919  1  0.573096  0  0.084748  0.053742  0  3.839745  0
C  C35  1  0.57282080  0.40758967  0.51813828  1  0.509835  0  0.085132  0.05528  0  3.835969  0
C  C36  1  0.90157824  0.50096782  0.68091903  1  1.560637  0  0.21598  0.599402  0  4.158212  0
C  C37  1  0.10358803  0.52505411  0.32063502  1  1.55147  0  0.215884  0.598302  0  4.156497  0
C  C38  1  0.85504852  0.49222135  0.78577933  1  -0.058075  0  -0.023677  -0.033668  0  4.002783  0
C  C39  1  0.15525220  0.55600563  0.21942338  1  -0.020011  0  -0.024219  -0.038344  0  4.004467  0
C  C40  1  0.90930577  0.44010301  0.94791531  1  -0.089746  0  -0.086994  -0.125874  0  4.001815  0
C  C41  1  0.11030173  0.63559945  0.06312879  1  -0.075593  0  -0.086875  -0.129452  0  3.998967  0
C  C42  1  0.95281873  0.45252238  0.85145152  1  -0.009406  0  -0.087865  -0.102802  0  3.989627  0
C  C43  1  0.06229309  0.60939143  0.15705460  1  0.009967  0  -0.087883  -0.103357  0  3.989758  0
C  C44  1  0.71751081  0.52107454  0.81831726  1  0.057863  0  -0.086036  -0.143958  0  3.955239  0
C  C45  1  0.29463696  0.53280679  0.18701602  1  -0.005417  0  -0.087146  -0.143427  0  3.956968  0
C  C46  1  0.67157143  0.51362330  0.91744020  1  -0.098935  0  -0.003841  0.032083  0  3.949005  0
C  C47  1  0.34598905  0.55668215  0.09078849  1  -0.041059  0  -0.004512  0.034259  0  3.949754  0
C  C48  1  0.77019342  0.47066872  0.98305360  1  -0.014624  0  -0.005917  0.075087  0  4.015328  0
C  C49  1  0.25001313  0.60744723  0.02724983  1  -0.070843  0  -0.00517  0.077327  0  4.011224  0
C  C50  1  0.52993102  0.54576956  0.95445114  1  0.043805  0  -0.004407  0.029635  0  3.958753  0
C  C51  1  0.48954657  0.52962352  0.05433521  1  -0.020141  0  -0.004153  0.02915  0  3.958903  0
C  C52  1  0.62593568  0.68173167  0.37108870  1  1.012798  0  0.12054  0.244813  0  3.946681  0
C  C53  1  0.37290851  0.32965689  0.63194792  1  0.993948  0  0.12123  0.247479  0  3.946173  0
N  N54  1  0.36067205  0.51815985  0.54151510  1  -1.186347  0  -0.282761  -0.167718  0  3.427879  0
N  N55  1  0.63699399  0.49226624  0.46020691  1  -1.175155  0  -0.282588  -0.16813  0  3.428061  0
O  O56  1  0.11245400  0.32388783  0.51726343  1  -1.166553  0  -0.313508  -0.548058  0  2.335449  0
O  O57  1  0.87533951  0.68594528  0.48974388  1  -1.161158  0  -0.313965  -0.548708  0  2.334522  0
O  O58  1  0.88092525  0.31543145  0.47602063  1  -1.171089  0  -0.317979  -0.553117  0  2.312755  0
O  O59  1  0.11388824  0.69491578  0.51157339  1  -1.172372  0  -0.317534  -0.556203  0  2.316472  0
O  O60  1  0.03628482  0.51520560  0.66111277  1  -1.154412  0  -0.315299  -0.535429  0  2.359003  0
O  O61  1  0.96813094  0.51661297  0.33875646  1  -1.163884  0  -0.313083  -0.533658  0  2.349281  0
O  O62  1  0.80610330  0.49262931  0.61868963  1  -1.174841  0  -0.320495  -0.565574  0  2.337555  0
O  O63  1  0.19737811  0.51009864  0.38228524  1  -1.178736  0  -0.322105  -0.565138  0  2.345415  0
O  O64  1  0.70747763  0.65497741  0.30315594  1  -1.021457  0  -0.20851  -0.27611  0  2.174619  0
O  O65  1  0.28938704  0.35612351  0.69876193  1  -1.018644  0  -0.212296  -0.276074  0  2.144679  0
