# generated using pymatgen
data_CaH6C8O5
_symmetry_space_group_name_H-M   'P 1'
_cell_length_a   6.65964821
_cell_length_b   11.13454080
_cell_length_c   11.95517545
_cell_angle_alpha   98.83610393
_cell_angle_beta   90.00004144
_cell_angle_gamma   89.99968392
_symmetry_Int_Tables_number   1
_chemical_formula_structural   CaH6C8O5
_chemical_formula_sum   'Ca4 H24 C32 O20'
_cell_volume   875.98046754
_cell_formula_units_Z   4
loop_
 _symmetry_equiv_pos_site_id
 _symmetry_equiv_pos_as_xyz
  1  'x, y, z'
loop_
 _atom_site_type_symbol
 _atom_site_label
 _atom_site_symmetry_multiplicity
 _atom_site_fract_x
 _atom_site_fract_y
 _atom_site_fract_z
 _atom_site_occupancy
 _atom_site_hle17_bader_spin_density
 _atom_site_hle17_ddec_charge
 _atom_site_hle17_ddec_spin_density
 _atom_site_hle17_ddec_sum_bond_order
 _atom_site_hle17_magmom
 _atom_site_hse06_10hf_bader_spin_density
 _atom_site_hse06_10hf_ddec_charge
 _atom_site_hse06_10hf_ddec_spin_density
 _atom_site_hse06_10hf_ddec_sum_bond_order
 _atom_site_hse06_10hf_magmom
 _atom_site_hse06_bader_spin_density
 _atom_site_hse06_ddec_charge
 _atom_site_hse06_ddec_spin_density
 _atom_site_hse06_ddec_sum_bond_order
 _atom_site_hse06_magmom
 _atom_site_pbe_bader_spin_density
 _atom_site_pbe_cm5_charge
 _atom_site_pbe_ddec_charge
 _atom_site_pbe_ddec_spin_density
 _atom_site_pbe_ddec_sum_bond_order
 _atom_site_pbe_magmom
Ca  Ca0  1  0.88193334  0.55965475  0.69639297  1  0  1.559768  0  1.112059  0  0  1.429624  0  1.460754  0  0  1.474493  0  1.413828  0  0  0.926008  1.395828  0  1.494329  0
Ca  Ca1  1  0.38193157  0.44034528  0.80360684  1  0  1.559792  0  1.112023  0  0  1.429654  0  1.460697  0  0  1.474508  0  1.413784  0  0  0.926015  1.395849  0  1.494278  0
Ca  Ca2  1  0.11806296  0.44034620  0.30360818  1  0  1.559772  0  1.11209  0  0  1.429625  0  1.460787  0  0  1.474486  0  1.413868  0  0  0.926011  1.395831  0  1.494348  0
Ca  Ca3  1  0.61806623  0.55965385  0.19639321  1  0  1.559815  0  1.112036  0  0  1.429677  0  1.46072  0  0  1.474544  0  1.413796  0  0  0.926029  1.395856  0  1.494335  0
H  H4  1  0.09879180  0.14734801  0.74155641  1  0  0.094362  0  0.967995  0  0  0.103386  0  1.033243  0  0  0.106411  0  1.031464  0  0  0.107882  0.101097  0  1.034783  0
H  H5  1  0.59879995  0.85265388  0.75844271  1  0  0.094361  0  0.96793  0  0  0.103397  0  1.033172  0  0  0.106422  0  1.031395  0  0  0.10791  0.101109  0  1.034709  0
H  H6  1  0.90120600  0.85265295  0.25844307  1  0  0.094361  0  0.967972  0  0  0.103383  0  1.033222  0  0  0.106408  0  1.031444  0  0  0.107886  0.101094  0  1.034763  0
H  H7  1  0.40119784  0.14734799  0.24155606  1  0  0.094334  0  0.967909  0  0  0.103363  0  1.033146  0  0  0.106388  0  1.031368  0  0  0.10789  0.101075  0  1.034685  0
H  H8  1  0.05328427  0.93999172  0.79376347  1  0  0.094297  0  0.958833  0  0  0.10352  0  1.020459  0  0  0.105725  0  1.021369  0  0  0.103652  0.101877  0  1.020084  0
H  H9  1  0.55328615  0.06000941  0.70623218  1  0  0.094282  0  0.958874  0  0  0.103521  0  1.020489  0  0  0.105735  0  1.021373  0  0  0.103642  0.101878  0  1.020114  0
H  H10  1  0.94671653  0.06000832  0.20623337  1  0  0.094256  0  0.958883  0  0  0.103528  0  1.020464  0  0  0.105738  0  1.021362  0  0  0.103644  0.101885  0  1.020089  0
H  H11  1  0.44671164  0.93999064  0.29376550  1  0  0.094304  0  0.958848  0  0  0.103523  0  1.020481  0  0  0.105727  0  1.021393  0  0  0.103645  0.101879  0  1.020105  0
H  H12  1  0.79803106  0.90770692  0.93742360  1  0  0.096198  0  0.950414  0  0  0.106146  0  1.011375  0  0  0.10962  0  1.009145  0  0  0.105458  0.103612  0  1.013078  0
H  H13  1  0.29802769  0.09229249  0.56257274  1  0  0.096152  0  0.950461  0  0  0.106096  0  1.011434  0  0  0.109571  0  1.009195  0  0  0.105429  0.103563  0  1.013133  0
H  H14  1  0.20197275  0.09228949  0.06257355  1  0  0.0962  0  0.950475  0  0  0.106124  0  1.011463  0  0  0.109598  0  1.009224  0  0  0.105451  0.103591  0  1.013159  0
H  H15  1  0.70197161  0.90771029  0.43742533  1  0  0.096238  0  0.950437  0  0  0.106165  0  1.01142  0  0  0.109641  0  1.009178  0  0  0.105459  0.10363  0  1.013125  0
H  H16  1  0.58414461  0.08056226  0.02603644  1  0  0.0922  0  0.967103  0  0  0.102829  0  1.029949  0  0  0.105161  0  1.029789  0  0  0.102267  0.101093  0  1.030238  0
H  H17  1  0.08414315  0.91943609  0.47396302  1  0  0.092219  0  0.967137  0  0  0.102861  0  1.02995  0  0  0.105187  0  1.029808  0  0  0.102281  0.101125  0  1.03024  0
H  H18  1  0.41585919  0.91943233  0.97396380  1  0  0.092243  0  0.967055  0  0  0.102906  0  1.029839  0  0  0.105232  0  1.029697  0  0  0.102276  0.10117  0  1.03013  0
H  H19  1  0.91585465  0.08056668  0.52603337  1  0  0.092212  0  0.967028  0  0  0.102846  0  1.029851  0  0  0.105169  0  1.029714  0  0  0.102251  0.101111  0  1.030141  0
H  H20  1  0.81570277  0.66669994  0.93716044  1  0  0.439411  0  0.845273  0  0  0.410488  0  0.904859  0  0  0.420926  0  0.889595  0  0  0.310072  0.403014  0  0.91579  0
H  H21  1  0.31570469  0.33329759  0.56283815  1  0  0.439433  0  0.845239  0  0  0.410512  0  0.90482  0  0  0.420952  0  0.889554  0  0  0.310083  0.403039  0  0.915751  0
H  H22  1  0.18429953  0.33329737  0.06284103  1  0  0.439406  0  0.845284  0  0  0.410482  0  0.90487  0  0  0.42092  0  0.889607  0  0  0.310075  0.403007  0  0.915802  0
H  H23  1  0.68429611  0.66670155  0.43716107  1  0  0.439421  0  0.845257  0  0  0.410501  0  0.904837  0  0  0.42094  0  0.889571  0  0  0.310084  0.403028  0  0.915766  0
H  H24  1  0.05291324  0.66152169  0.91288125  1  0  0.421552  0  0.880551  0  0  0.387999  0  0.949068  0  0  0.399034  0  0.933129  0  0  0.299441  0.380173  0  0.960331  0
H  H25  1  0.55291541  0.33847762  0.58711999  1  0  0.421571  0  0.880525  0  0  0.388021  0  0.949039  0  0  0.399052  0  0.933105  0  0  0.29944  0.380194  0  0.960303  0
H  H26  1  0.94708756  0.33847472  0.08712092  1  0  0.421578  0  0.880517  0  0  0.388019  0  0.949045  0  0  0.399054  0  0.933105  0  0  0.299454  0.380192  0  0.960309  0
H  H27  1  0.44708539  0.66152242  0.41288019  1  0  0.421582  0  0.880511  0  0  0.388033  0  0.949023  0  0  0.399065  0  0.933089  0  0  0.29945  0.380206  0  0.960287  0
C  C28  1  0.86027316  0.22694011  0.84898451  1  0  -0.101517  0  3.760523  0  0  -0.087396  0  3.993302  0  0  -0.094526  0  4.013389  0  0  -0.011912  -0.082823  0  3.979972  0
C  C29  1  0.36027864  0.77306181  0.65101724  1  0  -0.101554  0  3.760627  0  0  -0.087461  0  3.993376  0  0  -0.094584  0  4.013469  0  0  -0.011951  -0.082889  0  3.980049  0
C  C30  1  0.13972613  0.77305993  0.15101818  1  0  -0.101559  0  3.760697  0  0  -0.087456  0  3.993444  0  0  -0.094584  0  4.013534  0  0  -0.011937  -0.082884  0  3.980116  0
C  C31  1  0.63972065  0.22694278  0.34898109  1  0  -0.101497  0  3.760582  0  0  -0.087432  0  3.993341  0  0  -0.09455  0  4.013439  0  0  -0.011971  -0.082859  0  3.980014  0
C  C32  1  0.98355637  0.13048021  0.80180555  1  0  -0.060888  0  3.736605  0  0  -0.086023  0  3.98732  0  0  -0.084831  0  4.006176  0  0  -0.076432  -0.086582  0  3.974577  0
C  C33  1  0.48355951  0.86952040  0.69819355  1  0  -0.060938  0  3.736595  0  0  -0.086094  0  3.987352  0  0  -0.084904  0  4.006211  0  0  -0.076476  -0.086653  0  3.974609  0
C  C34  1  0.01644593  0.86951893  0.19819534  1  0  -0.060822  0  3.736654  0  0  -0.085958  0  3.987376  0  0  -0.084767  0  4.006235  0  0  -0.07641  -0.086517  0  3.974632  0
C  C35  1  0.51643978  0.13048237  0.30180369  1  0  -0.060819  0  3.736445  0  0  -0.08595  0  3.98717  0  0  -0.084759  0  4.006027  0  0  -0.076398  -0.086509  0  3.974426  0
C  C36  1  0.95828831  0.01520033  0.83137057  1  0  -0.072919  0  3.755336  0  0  -0.086257  0  4.006267  0  0  -0.089514  0  4.027931  0  0  -0.085827  -0.084174  0  3.991622  0
C  C37  1  0.45828886  0.98480036  0.66862602  1  0  -0.0729  0  3.755441  0  0  -0.086242  0  4.006346  0  0  -0.089496  0  4.028015  0  0  -0.085821  -0.084156  0  3.991699  0
C  C38  1  0.04171399  0.98479790  0.16862768  1  0  -0.072987  0  3.755591  0  0  -0.086368  0  4.006506  0  0  -0.089624  0  4.028173  0  0  -0.085873  -0.084283  0  3.991858  0
C  C39  1  0.54170893  0.01520150  0.33137191  1  0  -0.072953  0  3.755384  0  0  -0.086284  0  4.006298  0  0  -0.08954  0  4.02796  0  0  -0.085836  -0.084199  0  3.991652  0
C  C40  1  0.81332723  0.99705302  0.91163748  1  0  -0.049007  0  3.758826  0  0  -0.063745  0  4.011032  0  0  -0.063809  0  4.030496  0  0  -0.080042  -0.063402  0  3.997633  0
C  C41  1  0.31332472  0.00294724  0.58835816  1  0  -0.048893  0  3.75905  0  0  -0.063636  0  4.011254  0  0  -0.063695  0  4.030707  0  0  -0.079997  -0.063293  0  3.997857  0
C  C42  1  0.18667807  0.00294339  0.08836051  1  0  -0.048859  0  3.759174  0  0  -0.063582  0  4.01137  0  0  -0.063641  0  4.030827  0  0  -0.079979  -0.063238  0  3.997971  0
C  C43  1  0.68667308  0.99705553  0.41163991  1  0  -0.049038  0  3.759016  0  0  -0.063766  0  4.011215  0  0  -0.063822  0  4.030665  0  0  -0.080047  -0.063422  0  3.997818  0
C  C44  1  0.69227849  0.09334667  0.96057501  1  0  -0.096081  0  3.738967  0  0  -0.117246  0  3.986294  0  0  -0.120304  0  4.007239  0  0  -0.087983  -0.115169  0  3.972139  0
C  C45  1  0.19227509  0.90665308  0.53942719  1  0  -0.096192  0  3.739074  0  0  -0.117366  0  3.986398  0  0  -0.120423  0  4.007339  0  0  -0.088019  -0.115288  0  3.972247  0
C  C46  1  0.30772831  0.90664973  0.03942800  1  0  -0.096251  0  3.73909  0  0  -0.11743  0  3.986401  0  0  -0.120493  0  4.00734  0  0  -0.088011  -0.115354  0  3.972248  0
C  C47  1  0.80772271  0.09334969  0.46057087  1  0  -0.096124  0  3.739029  0  0  -0.117279  0  3.98636  0  0  -0.12034  0  4.007301  0  0  -0.087962  -0.115203  0  3.972208  0
C  C48  1  0.71259883  0.20819805  0.92867817  1  0  -0.060276  0  3.735097  0  0  -0.045072  0  3.967247  0  0  -0.047024  0  3.985639  0  0  -0.001388  -0.043883  0  3.955061  0
C  C49  1  0.21260104  0.79179891  0.57131945  1  0  -0.060175  0  3.734981  0  0  -0.044922  0  3.96709  0  0  -0.04688  0  3.985493  0  0  -0.001294  -0.043733  0  3.954907  0
C  C50  1  0.28740046  0.79179745  0.07132387  1  0  -0.060221  0  3.73509  0  0  -0.044992  0  3.967248  0  0  -0.046937  0  3.98563  0  0  -0.001364  -0.043802  0  3.955062  0
C  C51  1  0.78739676  0.20820295  0.42867765  1  0  -0.060262  0  3.735117  0  0  -0.045036  0  3.967295  0  0  -0.046986  0  3.985684  0  0  -0.00136  -0.043849  0  3.955112  0
C  C52  1  0.88223620  0.34821973  0.81299160  1  0  0.707434  0  3.886295  0  0  0.657684  0  4.17362  0  0  0.693845  0  4.162771  0  0  0.238276  0.632884  0  4.180347  0
C  C53  1  0.38224135  0.65178304  0.68700610  1  0  0.707342  0  3.886321  0  0  0.657683  0  4.173489  0  0  0.693826  0  4.162664  0  0  0.238298  0.632884  0  4.180212  0
C  C54  1  0.11776009  0.65178031  0.18700943  1  0  0.707452  0  3.886355  0  0  0.657779  0  4.17356  0  0  0.693923  0  4.162733  0  0  0.238341  0.632979  0  4.180285  0
C  C55  1  0.61775945  0.34822065  0.31299127  1  0  0.707322  0  3.88648  0  0  0.657722  0  4.173568  0  0  0.693841  0  4.162775  0  0  0.238341  0.632922  0  4.180292  0
C  C56  1  0.59374075  0.31401775  0.98881678  1  0  0.70137  0  3.896061  0  0  0.643543  0  4.20553  0  0  0.678594  0  4.194404  0  0  0.236692  0.619568  0  4.212435  0
C  C57  1  0.09374386  0.68598142  0.51118279  1  0  0.701322  0  3.896128  0  0  0.643442  0  4.205684  0  0  0.678496  0  4.194553  0  0  0.236584  0.619466  0  4.212589  0
C  C58  1  0.40626004  0.68597866  0.01118623  1  0  0.70145  0  3.896046  0  0  0.643546  0  4.205646  0  0  0.678597  0  4.194518  0  0  0.236678  0.61957  0  4.21255  0
C  C59  1  0.90625694  0.31401953  0.48881586  1  0  0.701395  0  3.896141  0  0  0.643509  0  4.20572  0  0  0.67856  0  4.19459  0  0  0.236611  0.619533  0  4.212627  0
O  O60  1  0.05222221  0.38285242  0.78148877  1  0  -0.734847  0  2.000419  0  0  -0.670471  0  2.248902  0  0  -0.698992  0  2.23669  0  0  -0.389495  -0.650035  0  2.256767  0
O  O61  1  0.55222798  0.61714870  0.71851441  1  0  -0.734833  0  2.000314  0  0  -0.670484  0  2.248754  0  0  -0.698999  0  2.236548  0  0  -0.389516  -0.650047  0  2.256617  0
O  O62  1  0.94777258  0.61714672  0.21850878  1  0  -0.734877  0  2.000459  0  0  -0.670539  0  2.248927  0  0  -0.699056  0  2.236718  0  0  -0.389536  -0.650101  0  2.256795  0
O  O63  1  0.44776981  0.38285316  0.28148520  1  0  -0.734869  0  2.000449  0  0  -0.670543  0  2.248866  0  0  -0.699049  0  2.23667  0  0  -0.389567  -0.650105  0  2.256732  0
O  O64  1  0.91944241  0.67558703  0.88014926  1  0  -0.878742  0  1.7818  0  0  -0.824737  0  1.954639  0  0  -0.8457  0  1.922497  0  0  -0.616879  -0.809633  0  1.97739  0
O  O65  1  0.41944298  0.32441107  0.61985028  1  0  -0.878782  0  1.781731  0  0  -0.824786  0  1.954563  0  0  -0.845744  0  1.922423  0  0  -0.616881  -0.809681  0  1.977314  0
O  O66  1  0.08055989  0.32441029  0.11985220  1  0  -0.878751  0  1.781752  0  0  -0.82474  0  1.954594  0  0  -0.845701  0  1.922451  0  0  -0.616887  -0.809637  0  1.977345  0
O  O67  1  0.58055782  0.67558898  0.38014907  1  0  -0.878781  0  1.781725  0  0  -0.824784  0  1.954552  0  0  -0.845743  0  1.922411  0  0  -0.61689  -0.809675  0  1.977306  0
O  O68  1  0.72699346  0.41525585  0.81142112  1  0  -0.756801  0  2.056007  0  0  -0.69159  0  2.307527  0  0  -0.721368  0  2.296602  0  0  -0.394753  -0.670143  0  2.3144  0
O  O69  1  0.22700373  0.58474833  0.68858006  1  0  -0.756684  0  2.055977  0  0  -0.69155  0  2.307517  0  0  -0.721322  0  2.296601  0  0  -0.394759  -0.670102  0  2.314387  0
O  O70  1  0.27300283  0.58474328  0.18858228  1  0  -0.756799  0  2.055994  0  0  -0.691626  0  2.307497  0  0  -0.721398  0  2.296578  0  0  -0.39478  -0.670175  0  2.314373  0
O  O71  1  0.77299857  0.41525626  0.31141910  1  0  -0.756723  0  2.056084  0  0  -0.691577  0  2.307567  0  0  -0.721341  0  2.296661  0  0  -0.394752  -0.670129  0  2.314439  0
O  O72  1  0.41119800  0.32764008  0.96168364  1  0  -0.70532  0  1.92136  0  0  -0.647774  0  2.157138  0  0  -0.674021  0  2.144093  0  0  -0.346185  -0.628937  0  2.165549  0
O  O73  1  0.91120153  0.67235804  0.53831842  1  0  -0.705319  0  1.921412  0  0  -0.647759  0  2.157236  0  0  -0.674007  0  2.144185  0  0  -0.346165  -0.628923  0  2.165648  0
O  O74  1  0.58880280  0.67235723  0.03831783  1  0  -0.705368  0  1.921356  0  0  -0.647797  0  2.157187  0  0  -0.674045  0  2.144138  0  0  -0.346197  -0.628956  0  2.165598  0
O  O75  1  0.08879927  0.32764382  0.46168287  1  0  -0.705335  0  1.921438  0  0  -0.647767  0  2.157259  0  0  -0.674013  0  2.144212  0  0  -0.346162  -0.628929  0  2.165669  0
O  O76  1  0.69004524  0.38272494  0.06539543  1  0  -0.690224  0  1.999114  0  0  -0.624931  0  2.236441  0  0  -0.653743  0  2.22612  0  0  -0.338864  -0.60438  0  2.242837  0
O  O77  1  0.19005402  0.61727669  0.43460706  1  0  -0.690167  0  1.999083  0  0  -0.624864  0  2.236437  0  0  -0.653674  0  2.226119  0  0  -0.33879  -0.604321  0  2.242842  0
O  O78  1  0.30995406  0.61727511  0.93460726  1  0  -0.69024  0  1.999121  0  0  -0.62493  0  2.236498  0  0  -0.65373  0  2.226154  0  0  -0.338855  -0.604385  0  2.242899  0
O  O79  1  0.80994678  0.38272517  0.56539339  1  0  -0.69021  0  1.999113  0  0  -0.624897  0  2.236457  0  0  -0.653711  0  2.226146  0  0  -0.3388  -0.604352  0  2.242861  0
