# generated using pymatgen
data_ZnH6(C3O4)2
_symmetry_space_group_name_H-M   'P 1'
_cell_length_a   5.79959101
_cell_length_b   19.61475180
_cell_length_c   19.61490699
_cell_angle_alpha   89.99824246
_cell_angle_beta   90.00065476
_cell_angle_gamma   90.00223979
_symmetry_Int_Tables_number   1
_chemical_formula_structural   ZnH6(C3O4)2
_chemical_formula_sum   'Zn8 H48 C48 O64'
_cell_volume   2231.34352874
_cell_formula_units_Z   8
loop_
 _symmetry_equiv_pos_site_id
 _symmetry_equiv_pos_as_xyz
  1  'x, y, z'
loop_
 _atom_site_type_symbol
 _atom_site_label
 _atom_site_symmetry_multiplicity
 _atom_site_fract_x
 _atom_site_fract_y
 _atom_site_fract_z
 _atom_site_occupancy
 _atom_site_pbe_bader_charge
 _atom_site_pbe_bader_spin_density
 _atom_site_pbe_cm5_charge
 _atom_site_pbe_ddec_charge
 _atom_site_pbe_ddec_spin_density
 _atom_site_pbe_ddec_sum_bond_order
 _atom_site_pbe_magmom
Zn  Zn0  1  0.25000085  0.70819967  0.29179314  1  1.394481  0  0.704448  0.988571  0  2.188545  0
Zn  Zn1  1  0.75003903  0.29180243  0.70820409  1  1.394446  0  0.704511  0.988536  0  2.188438  0
Zn  Zn2  1  0.99999853  0.20820611  0.20820292  1  1.394454  0  0.704474  0.988596  0  2.188547  0
Zn  Zn3  1  0.50000074  0.79180297  0.79179109  1  1.394494  0  0.704469  0.988547  0  2.188579  0
Zn  Zn4  1  0.75003145  0.75599743  0.24400920  1  1.391066  0  0.694586  0.965883  0  2.355555  0
Zn  Zn5  1  0.25002395  0.24401283  0.75598956  1  1.391276  0  0.69453  0.965831  0  2.356081  0
Zn  Zn6  1  0.49998974  0.25599151  0.25599152  1  1.391038  0  0.694509  0.965773  0  2.35593  0
Zn  Zn7  1  0.99999574  0.74400992  0.74400862  1  1.391276  0  0.69459  0.965879  0  2.355579  0
H  H8  1  0.43970054  0.58409751  0.27373156  1  0.665047  0  0.306942  0.369091  0  0.970616  0
H  H9  1  0.90394400  0.48721674  0.35740643  1  0.129828  0  0.110793  0.055332  0  0.995749  0
H  H10  1  0.43196560  0.44595951  0.21269183  1  0.090192  0  0.126266  0.10482  0  0.93856  0
H  H11  1  0.74981501  0.37790865  0.23597163  1  0.683357  0  0.303948  0.372156  0  0.96515  0
H  H12  1  0.11700923  0.51689852  0.25609494  1  0.117196  0  0.116189  0.085044  0  1.017182  0
H  H13  1  0.53356948  0.46466145  0.33790821  1  0.111718  0  0.115041  0.060295  0  0.980252  0
H  H14  1  0.93974024  0.41590271  0.72626378  1  0.664943  0  0.306986  0.369143  0  0.970523  0
H  H15  1  0.40388827  0.51276115  0.64260204  1  0.130093  0  0.110882  0.055504  0  0.995671  0
H  H16  1  0.93192925  0.55405081  0.78729584  1  0.089922  0  0.126335  0.105034  0  0.938514  0
H  H17  1  0.24975415  0.62209804  0.76401847  1  0.683667  0  0.303818  0.371993  0  0.96542  0
H  H18  1  0.61703776  0.48310101  0.74390541  1  0.117301  0  0.116138  0.084992  0  1.017083  0
H  H19  1  0.03352091  0.53535853  0.66208165  1  0.111981  0  0.115037  0.060323  0  0.980574  0
H  H20  1  0.18969022  0.22627542  0.08409871  1  0.664951  0  0.306857  0.368823  0  0.970891  0
H  H21  1  0.65396740  0.14258592  0.98722615  1  0.129862  0  0.110816  0.055328  0  0.995808  0
H  H22  1  0.18192907  0.28729734  0.94596317  1  0.08994  0  0.126246  0.104812  0  0.938455  0
H  H23  1  0.49978658  0.26402744  0.87791022  1  0.68352  0  0.303868  0.372101  0  0.965131  0
H  H24  1  0.86697579  0.24389570  0.01689969  1  0.117274  0  0.116223  0.085138  0  1.017145  0
H  H25  1  0.28358180  0.16208475  0.96465972  1  0.11149  0  0.115125  0.06034  0  0.9802  0
H  H26  1  0.68970840  0.77373464  0.91589934  1  0.664986  0  0.30688  0.368912  0  0.970798  0
H  H27  1  0.15386064  0.85739008  0.01275444  1  0.130422  0  0.110797  0.055351  0  0.995813  0
H  H28  1  0.68194432  0.71269989  0.05403485  1  0.089928  0  0.126227  0.104789  0  0.938524  0
H  H29  1  0.99977990  0.73597297  0.12208838  1  0.683643  0  0.303894  0.372077  0  0.965192  0
H  H30  1  0.36699610  0.75608991  0.98309744  1  0.117649  0  0.116186  0.085032  0  1.017288  0
H  H31  1  0.78355764  0.83791927  0.03533967  1  0.111521  0  0.115104  0.06029  0  0.980434  0
H  H32  1  0.31029692  0.91590874  0.77373831  1  0.664965  0  0.306954  0.369049  0  0.970625  0
H  H33  1  0.84611821  0.01275562  0.85740935  1  0.13003  0  0.110827  0.055408  0  0.995893  0
H  H34  1  0.31805852  0.05404615  0.71269338  1  0.090069  0  0.126278  0.104935  0  0.938438  0
H  H35  1  0.00021000  0.12209324  0.73597562  1  0.683562  0  0.303861  0.372114  0  0.965195  0
H  H36  1  0.63301169  0.98310877  0.75608952  1  0.117619  0  0.116157  0.085063  0  1.017082  0
H  H37  1  0.21646286  0.03533476  0.83791051  1  0.111748  0  0.115054  0.060311  0  0.980472  0
H  H38  1  0.81026871  0.08410273  0.22625149  1  0.665243  0  0.306986  0.369102  0  0.97058  0
H  H39  1  0.34618351  0.98727104  0.14260810  1  0.130573  0  0.110899  0.055469  0  0.996049  0
H  H40  1  0.81806854  0.94596133  0.28730817  1  0.089889  0  0.126241  0.104865  0  0.938428  0
H  H41  1  0.50023948  0.87790953  0.26402484  1  0.683669  0  0.303917  0.372173  0  0.965105  0
H  H42  1  0.13297720  0.01690063  0.24391650  1  0.11772  0  0.11622  0.085089  0  1.017055  0
H  H43  1  0.71643781  0.96466797  0.16209273  1  0.111699  0  0.115096  0.060333  0  0.980378  0
H  H44  1  0.56032038  0.27373418  0.58410812  1  0.665162  0  0.306974  0.369045  0  0.970622  0
H  H45  1  0.09612752  0.35739399  0.48722972  1  0.1299  0  0.110769  0.055309  0  0.99574  0
H  H46  1  0.56804359  0.21269555  0.44595802  1  0.089487  0  0.126295  0.104775  0  0.938591  0
H  H47  1  0.25020244  0.23596295  0.37791091  1  0.683511  0  0.303896  0.372078  0  0.965248  0
H  H48  1  0.88300793  0.25608761  0.51690394  1  0.117714  0  0.116189  0.08506  0  1.017193  0
H  H49  1  0.46645364  0.33790095  0.46465395  1  0.112265  0  0.11508  0.060304  0  0.980675  0
H  H50  1  0.06029102  0.72624991  0.41590121  1  0.665062  0  0.306921  0.369018  0  0.970668  0
H  H51  1  0.59619411  0.64259970  0.51274608  1  0.130192  0  0.110861  0.055374  0  0.995897  0
H  H52  1  0.06808098  0.78730036  0.55402789  1  0.089702  0  0.126191  0.104732  0  0.938528  0
H  H53  1  0.75022540  0.76403558  0.62208632  1  0.683604  0  0.303863  0.37202  0  0.965229  0
H  H54  1  0.38300760  0.74390328  0.48310089  1  0.117296  0  0.116196  0.085081  0  1.017201  0
H  H55  1  0.96648745  0.66208734  0.53533689  1  0.111878  0  0.115082  0.060325  0  0.980441  0
C  C56  1  0.89202140  0.60315026  0.26212709  1  1.589557  0  0.224466  0.608863  0  4.113771  0
C  C57  1  0.99912642  0.53637515  0.36014304  1  0.973149  0  0.110102  0.274799  0  3.858408  0
C  C58  1  0.40183554  0.40408927  0.24901581  1  0.44499  0  -0.002548  -0.008306  0  3.872702  0
C  C59  1  0.17797381  0.36638450  0.23005543  1  1.622161  0  0.228207  0.605377  0  4.117991  0
C  C60  1  0.09395082  0.56134351  0.28952186  1  0.41955  0  -0.004344  -0.002735  0  3.865155  0
C  C61  1  0.38787566  0.43093724  0.32287655  1  0.960256  0  0.108563  0.273041  0  3.873589  0
C  C62  1  0.39203506  0.39685247  0.73786706  1  1.589746  0  0.22445  0.608594  0  4.113569  0
C  C63  1  0.49921584  0.46362984  0.63984944  1  0.97291  0  0.110103  0.274571  0  3.85862  0
C  C64  1  0.90181540  0.59590592  0.75097328  1  0.444969  0  -0.002666  -0.008723  0  3.873498  0
C  C65  1  0.67797315  0.63360860  0.76995278  1  1.622002  0  0.228058  0.605119  0  4.118577  0
C  C66  1  0.59400326  0.43865372  0.71047230  1  0.419778  0  -0.004268  -0.002531  0  3.864977  0
C  C67  1  0.88787159  0.56908328  0.67711862  1  0.959865  0  0.108759  0.273319  0  3.874169  0
C  C68  1  0.64193186  0.23787770  0.10314604  1  1.590427  0  0.224602  0.608905  0  4.112836  0
C  C69  1  0.74909376  0.13985363  0.03639595  1  0.973459  0  0.109867  0.274546  0  3.859061  0
C  C70  1  0.15180479  0.25097209  0.90409450  1  0.445105  0  -0.002581  -0.008368  0  3.872824  0
C  C71  1  0.92794281  0.26994198  0.86638902  1  1.621803  0  0.228175  0.605297  0  4.118158  0
C  C72  1  0.84391764  0.21047463  0.06134646  1  0.419942  0  -0.004397  -0.002869  0  3.864707  0
C  C73  1  0.13788049  0.17710831  0.93093387  1  0.960337  0  0.108565  0.273023  0  3.873822  0
C  C74  1  0.14197899  0.76213232  0.89684165  1  1.5897  0  0.224377  0.608758  0  4.11343  0
C  C75  1  0.24919428  0.86014489  0.96362423  1  0.972604  0  0.110184  0.274879  0  3.858415  0
C  C76  1  0.65181607  0.74902479  0.09590546  1  0.444928  0  -0.002517  -0.008403  0  3.873302  0
C  C77  1  0.42795492  0.73004485  0.13360271  1  1.621759  0  0.228122  0.605278  0  4.118402  0
C  C78  1  0.34394583  0.78951683  0.93865416  1  0.419021  0  -0.004308  -0.002702  0  3.864825  0
C  C79  1  0.63791254  0.82287974  0.06906808  1  0.960409  0  0.108506  0.27309  0  3.873446  0
C  C80  1  0.85799786  0.89685756  0.76212949  1  1.589724  0  0.224639  0.608981  0  4.11321  0
C  C81  1  0.75083794  0.96361845  0.86015169  1  0.972771  0  0.110124  0.27471  0  3.859084  0
C  C82  1  0.34820203  0.09590916  0.74902180  1  0.444888  0  -0.0026  -0.008559  0  3.873095  0
C  C83  1  0.57207511  0.13360992  0.73005643  1  1.620947  0  0.228226  0.60539  0  4.118291  0
C  C84  1  0.65604896  0.93866582  0.78952450  1  0.420066  0  -0.004305  -0.002836  0  3.865182  0
C  C85  1  0.36211644  0.06906555  0.82287779  1  0.959971  0  0.108581  0.27307  0  3.873636  0
C  C86  1  0.35801415  0.10314885  0.23785792  1  1.589885  0  0.224466  0.608658  0  4.113365  0
C  C87  1  0.25071239  0.03637142  0.13984861  1  0.971593  0  0.110071  0.274464  0  3.858756  0
C  C88  1  0.84818618  0.90409204  0.25097935  1  0.44501  0  -0.002571  -0.008481  0  3.873255  0
C  C89  1  0.07204312  0.86638807  0.26994682  1  1.621683  0  0.22821  0.605285  0  4.118245  0
C  C90  1  0.15601043  0.06134895  0.21047751  1  0.419512  0  -0.004278  -0.002649  0  3.864946  0
C  C91  1  0.86207890  0.93093734  0.17712391  1  0.961054  0  0.108644  0.273121  0  3.873301  0
C  C92  1  0.10807085  0.26213081  0.60315069  1  1.590477  0  0.224662  0.609041  0  4.112698  0
C  C93  1  0.00085812  0.36013908  0.53637021  1  0.972999  0  0.110156  0.274809  0  3.858791  0
C  C94  1  0.59815593  0.24903127  0.40410363  1  0.445538  0  -0.002538  -0.007999  0  3.873137  0
C  C95  1  0.82201802  0.23004641  0.36641002  1  1.621692  0  0.227902  0.605185  0  4.118116  0
C  C96  1  0.90608847  0.28952160  0.56134670  1  0.419209  0  -0.004438  -0.002956  0  3.865077  0
C  C97  1  0.61207952  0.32287026  0.43093569  1  0.959122  0  0.108547  0.273035  0  3.873562  0
C  C98  1  0.60803867  0.73784874  0.39684504  1  1.589815  0  0.224483  0.608956  0  4.113018  0
C  C99  1  0.50075696  0.63984177  0.46363535  1  0.972629  0  0.110247  0.274869  0  3.859099  0
C  C100  1  0.09820392  0.75098334  0.59590634  1  0.445225  0  -0.002507  -0.008211  0  3.872923  0
C  C101  1  0.32205271  0.76996723  0.63360684  1  1.620491  0  0.227971  0.604986  0  4.118478  0
C  C102  1  0.40604755  0.71047161  0.43865821  1  0.419923  0  -0.00434  -0.002886  0  3.864965  0
C  C103  1  0.11213919  0.67711851  0.56907331  1  0.96045  0  0.108669  0.273237  0  3.873485  0
O  O104  1  0.93167843  0.66810724  0.26016694  1  -1.182048  0  -0.317335  -0.573638  0  2.504617  0
O  O105  1  0.70736652  0.57377152  0.24799716  1  -1.182428  0  -0.309436  -0.533709  0  2.155374  0
O  O106  1  0.29433154  0.60251310  0.29418231  1  -1.166018  0  -0.382504  -0.495994  0  2.551549  0
O  O107  1  0.01482740  0.56912817  0.41205137  1  -1.053562  0  -0.225449  -0.284155  0  2.21423  0
O  O108  1  0.24328569  0.41198779  0.36357879  1  -1.074647  0  -0.227431  -0.317387  0  2.227547  0
O  O109  1  0.59369958  0.35881779  0.25121873  1  -1.174802  0  -0.375577  -0.489141  0  2.484272  0
O  O110  1  0.18959783  0.30071313  0.22684512  1  -1.199021  0  -0.31172  -0.571089  0  2.451383  0
O  O111  1  0.00210325  0.40212967  0.22136883  1  -1.166997  0  -0.293557  -0.509784  0  2.178183  0
O  O112  1  0.43165948  0.33189543  0.73982633  1  -1.181917  0  -0.317267  -0.573418  0  2.504743  0
O  O113  1  0.20736907  0.42623060  0.75199535  1  -1.182733  0  -0.309475  -0.533686  0  2.155095  0
O  O114  1  0.79435424  0.39747880  0.70581967  1  -1.166258  0  -0.382537  -0.496094  0  2.551833  0
O  O115  1  0.51506209  0.43090332  0.58792926  1  -1.053561  0  -0.225597  -0.284136  0  2.214433  0
O  O116  1  0.74325669  0.58803972  0.63642556  1  -1.074871  0  -0.227598  -0.317689  0  2.227601  0
O  O117  1  0.09363204  0.64118402  0.74878613  1  -1.174823  0  -0.375354  -0.488749  0  2.484899  0
O  O118  1  0.68948869  0.69927298  0.77316211  1  -1.19902  0  -0.311691  -0.570827  0  2.451335  0
O  O119  1  0.50204649  0.59788179  0.77861226  1  -1.166816  0  -0.293687  -0.509939  0  2.178637  0
O  O120  1  0.68163258  0.23985198  0.16810535  1  -1.182127  0  -0.317369  -0.573624  0  2.504201  0
O  O121  1  0.45729680  0.25201185  0.07376887  1  -1.183129  0  -0.309482  -0.533697  0  2.155381  0
O  O122  1  0.04428587  0.20582234  0.10252710  1  -1.166263  0  -0.382398  -0.495605  0  2.551485  0
O  O123  1  0.76466620  0.08796370  0.06918612  1  -1.054032  0  -0.225303  -0.283998  0  2.214604  0
O  O124  1  0.99326880  0.13641359  0.91198609  1  -1.075072  0  -0.227482  -0.317396  0  2.227736  0
O  O125  1  0.34365524  0.24878677  0.85882471  1  -1.174511  0  -0.375521  -0.48907  0  2.484407  0
O  O126  1  0.93955638  0.27315441  0.80072668  1  -1.199409  0  -0.311656  -0.570833  0  2.451647  0
O  O127  1  0.75205062  0.27862061  0.90213028  1  -1.166378  0  -0.293652  -0.509986  0  2.178147  0
O  O128  1  0.18164594  0.76017788  0.83188299  1  -1.181975  0  -0.317211  -0.573528  0  2.504638  0
O  O129  1  0.95734129  0.74799470  0.92622755  1  -1.182548  0  -0.309447  -0.533706  0  2.155361  0
O  O130  1  0.54431121  0.79418196  0.89747555  1  -1.165933  0  -0.382405  -0.49576  0  2.551518  0
O  O131  1  0.26503612  0.91207017  0.93090243  1  -1.053614  0  -0.225575  -0.284229  0  2.214106  0
O  O132  1  0.49328125  0.86357757  0.08802320  1  -1.075053  0  -0.227471  -0.317517  0  2.226978  0
O  O133  1  0.84364957  0.75121285  0.14116826  1  -1.174639  0  -0.375482  -0.488881  0  2.484612  0
O  O134  1  0.43951712  0.72683765  0.19927018  1  -1.199087  0  -0.311657  -0.570882  0  2.451235  0
O  O135  1  0.25205679  0.72137692  0.09787105  1  -1.166579  0  -0.293652  -0.50998  0  2.178602  0
O  O136  1  0.81835971  0.83190012  0.76017017  1  -1.182162  0  -0.317496  -0.573787  0  2.50473  0
O  O137  1  0.04267651  0.92623807  0.74800879  1  -1.182444  0  -0.309482  -0.533736  0  2.155185  0
O  O138  1  0.45569600  0.89748640  0.79417890  1  -1.166848  0  -0.382535  -0.495908  0  2.551683  0
O  O139  1  0.73503049  0.93088301  0.91206982  1  -1.053638  0  -0.225533  -0.284122  0  2.214433  0
O  O140  1  0.50674763  0.08801732  0.86357996  1  -1.07468  0  -0.227526  -0.317547  0  2.227226  0
O  O141  1  0.15634669  0.14118006  0.75121859  1  -1.174614  0  -0.37547  -0.488972  0  2.484384  0
O  O142  1  0.56046131  0.19927732  0.72684917  1  -1.199122  0  -0.311715  -0.570937  0  2.451417  0
O  O143  1  0.74795568  0.09786910  0.72137358  1  -1.165846  0  -0.293641  -0.50998  0  2.178342  0
O  O144  1  0.31838464  0.16811500  0.23981965  1  -1.181996  0  -0.317393  -0.573646  0  2.504295  0
O  O145  1  0.54263585  0.07376570  0.25198621  1  -1.182778  0  -0.309344  -0.533483  0  2.155763  0
O  O146  1  0.95568841  0.10253032  0.20582974  1  -1.166461  0  -0.382533  -0.496026  0  2.551882  0
O  O147  1  0.23465897  0.06906079  0.08790646  1  -1.05302  0  -0.225651  -0.284059  0  2.213852  0
O  O148  1  0.00671484  0.91198807  0.13642256  1  -1.075433  0  -0.227582  -0.317572  0  2.226909  0
O  O149  1  0.65634549  0.85881789  0.24879107  1  -1.174785  0  -0.375508  -0.489002  0  2.484541  0
O  O150  1  0.06047770  0.80072054  0.27314895  1  -1.198971  0  -0.311711  -0.570933  0  2.451446  0
O  O151  1  0.24793563  0.90213603  0.27861957  1  -1.166635  0  -0.293647  -0.509918  0  2.178174  0
O  O152  1  0.06841916  0.26017035  0.66811196  1  -1.182286  0  -0.317469  -0.573777  0  2.504603  0
O  O153  1  0.29269617  0.24800368  0.57376134  1  -1.183  0  -0.309479  -0.533751  0  2.15509  0
O  O154  1  0.70572888  0.29417701  0.60252517  1  -1.166379  0  -0.382432  -0.495709  0  2.551564  0
O  O155  1  0.98505053  0.41205726  0.56909672  1  -1.053634  0  -0.225543  -0.284169  0  2.214425  0
O  O156  1  0.75673859  0.36357188  0.41197830  1  -1.074819  0  -0.227543  -0.317635  0  2.226531  0
O  O157  1  0.40634168  0.25120268  0.35883107  1  -1.174579  0  -0.37543  -0.489003  0  2.484412  0
O  O158  1  0.81049161  0.22683600  0.30074825  1  -1.198724  0  -0.31154  -0.570754  0  2.451041  0
O  O159  1  0.99795640  0.22136822  0.40212309  1  -1.166758  0  -0.293706  -0.510158  0  2.1786  0
O  O160  1  0.56838994  0.73981180  0.33188567  1  -1.182138  0  -0.317356  -0.573663  0  2.504255  0
O  O161  1  0.79265490  0.75198769  0.42623554  1  -1.18245  0  -0.309416  -0.533738  0  2.155401  0
O  O162  1  0.20569441  0.70581846  0.39747599  1  -1.166339  0  -0.382462  -0.495873  0  2.551628  0
O  O163  1  0.48479144  0.58790933  0.43093701  1  -1.053809  0  -0.225745  -0.28426  0  2.214595  0
O  O164  1  0.25674362  0.63642010  0.58803578  1  -1.075264  0  -0.22758  -0.317708  0  2.227315  0
O  O165  1  0.90634956  0.74879358  0.64117537  1  -1.174446  0  -0.375435  -0.488883  0  2.484313  0
O  O166  1  0.31046025  0.77317394  0.69927417  1  -1.19883  0  -0.311535  -0.570741  0  2.451356  0
O  O167  1  0.49795293  0.77862198  0.59786225  1  -1.165859  0  -0.293599  -0.509835  0  2.178446  0
