# generated using pymatgen
data_Zn4H67C80(BrN4)5
_symmetry_space_group_name_H-M   'P 1'
_cell_length_a   20.53231548
_cell_length_b   20.12832710
_cell_length_c   20.73926804
_cell_angle_alpha   106.69944166
_cell_angle_beta   105.31256529
_cell_angle_gamma   112.69842377
_symmetry_Int_Tables_number   1
_chemical_formula_structural   Zn4H67C80(BrN4)5
_chemical_formula_sum   'Zn4 H67 C80 Br5 N20'
_cell_volume   6858.09546512
_cell_formula_units_Z   1
loop_
 _symmetry_equiv_pos_site_id
 _symmetry_equiv_pos_as_xyz
  1  'x, y, z'
loop_
 _atom_site_type_symbol
 _atom_site_label
 _atom_site_symmetry_multiplicity
 _atom_site_fract_x
 _atom_site_fract_y
 _atom_site_fract_z
 _atom_site_occupancy
 _atom_site_pbe_bader_charge
 _atom_site_pbe_bader_spin_density
 _atom_site_pbe_cm5_charge
 _atom_site_pbe_ddec_charge
 _atom_site_pbe_ddec_spin_density
 _atom_site_pbe_ddec_sum_bond_order
 _atom_site_pbe_magmom
Zn  Zn0  1  0.61963127  0.59896220  0.50164109  1  1.201845  0  0.760082  0.682181  0  2.256485  0
Zn  Zn1  1  0.38529506  0.37683334  0.47641794  1  1.193962  0  0.740091  0.661494  0  2.285465  0
Zn  Zn2  1  0.49187360  0.57125892  0.58037306  1  1.185697  0  0.745308  0.649743  0  2.317868  0
Zn  Zn3  1  0.50461738  0.39887951  0.38153666  1  1.190161  0  0.755442  0.654201  0  2.347183  0
H  H4  1  0.77353831  0.71294811  0.64765162  1  0.063924  0  0.114754  0.099534  0  1.006985  0
H  H5  1  0.43464090  0.27756132  0.54718569  1  0.092285  0  0.120154  0.114323  0  1.005779  0
H  H6  1  0.91676590  0.45667894  0.45398728  1  0.063806  0  0.091446  0.099967  0  0.99308  0
H  H7  1  0.04883155  0.49844687  0.48581589  1  0.060263  0  0.096203  0.103561  0  0.972978  0
H  H8  1  0.02172700  0.39701971  0.46269136  1  0.047664  0  0.093862  0.096132  0  0.979375  0
H  H9  1  0.96251031  0.44029290  0.66248470  1  0.060411  0  0.095713  0.11076  0  0.984979  0
H  H10  1  0.90251569  0.35135995  0.57878648  1  0.056408  0  0.1026  0.118998  0  0.962783  0
H  H11  1  0.99481364  0.57142216  0.66441837  1  0.070201  0  0.104728  0.091702  0  0.955352  0
H  H12  1  0.10991032  0.56622699  0.68976273  1  0.050245  0  0.093538  0.10835  0  0.986178  0
H  H13  1  0.01076924  0.34928911  0.56107597  1  0.09291  0  0.103799  0.09032  0  0.956251  0
H  H14  1  0.51269493  0.57650383  0.73301704  1  0.096884  0  0.114892  0.104114  0  1.003096  0
H  H15  1  0.39373396  0.61646496  0.46731426  1  0.092643  0  0.121262  0.117234  0  1.002725  0
H  H16  1  0.40839435  0.98089063  0.34151220  1  0.057381  0  0.089882  0.103753  0  1.001097  0
H  H17  1  0.42786395  0.02722151  0.53811930  1  0.090856  0  0.101728  0.089425  0  0.965308  0
H  H18  1  0.44506314  0.92418462  0.53697014  1  0.023298  0  0.101251  0.071881  0  0.964033  0
H  H19  1  0.60173270  0.07458929  0.49268680  1  0.072383  0  0.09889  0.115839  0  0.983327  0
H  H20  1  0.57623467  0.08293199  0.56828074  1  0.065494  0  0.099718  0.112951  0  0.962062  0
H  H21  1  0.50883988  0.01606176  0.36652469  1  0.03784  0  0.094198  0.10731  0  0.975906  0
H  H22  1  0.66399114  0.37394231  0.37871950  1  0.104884  0  0.122773  0.112082  0  0.979044  0
H  H23  1  0.55322087  0.95560272  0.55228074  1  0.074351  0  0.100631  0.07905  0  0.984534  0
H  H24  1  0.40472652  0.57511927  0.78251312  1  0.033667  0  0.093462  0.093913  0  1.018429  0
H  H25  1  0.50770791  0.67350367  0.26096882  1  0.056027  0  0.097682  0.1029  0  1.011115  0
H  H26  1  0.35126353  0.26002297  0.20802589  1  0.094059  0  0.121232  0.109461  0  0.989424  0
H  H27  1  0.37552881  0.34398770  0.75697426  1  0.068254  0  0.099104  0.103361  0  1.006321  0
H  H28  1  0.30455164  0.42570230  0.03295803  1  0.091368  0  0.103487  0.105476  0  1.016199  0
H  H29  1  0.34809860  0.36353894  0.86910375  1  0.05822  0  0.103659  0.104645  0  1.001497  0
H  H30  1  0.33851029  0.42122753  0.15499925  1  0.047993  0  0.09677  0.099155  0  1.010578  0
H  H31  1  0.23864401  0.23255940  0.09967413  1  0.045883  0  0.097774  0.099147  0  1.003146  0
H  H32  1  0.11120418  0.15636212  0.98840882  1  0.097985  0  0.103687  0.103558  0  1.019373  0
H  H33  1  0.96583136  0.98615249  0.81157078  1  0.102776  0  0.105659  0.107883  0  0.998331  0
H  H34  1  0.86055933  0.84969770  0.71477834  1  0.053745  0  0.099572  0.102893  0  1.002267  0
H  H35  1  0.11598779  0.22147003  0.23974211  1  0.041311  0  0.094067  0.097528  0  1.025304  0
H  H36  1  0.70896555  0.87125416  0.81900391  1  0.035392  0  0.095734  0.096971  0  1.016745  0
H  H37  1  0.23005353  0.31037625  0.34034465  1  0.101834  0  0.098968  0.082724  0  1.087795  0
H  H38  1  0.75289316  0.57352882  0.59060942  1  0.117444  0  0.123523  0.116202  0  0.994318  0
H  H39  1  0.56735752  0.28320795  0.41556366  1  0.086505  0  0.118726  0.105619  0  1.008937  0
H  H40  1  0.61067344  0.74421604  0.73198466  1  0.046922  0  0.117387  0.102657  0  0.998653  0
H  H41  1  0.57978487  0.65282729  0.35761776  1  0.089031  0  0.118436  0.103116  0  0.996456  0
H  H42  1  0.35116521  0.83260371  0.25276176  1  0.013704  0  0.087624  0.122476  0  0.993664  0
H  H43  1  0.34666406  0.77488695  0.30387445  1  0.05449  0  0.088518  0.127534  0  0.996666  0
H  H44  1  0.31881725  0.84982579  0.32345689  1  0.036643  0  0.076104  0.108046  0  1.070224  0
H  H45  1  0.33972798  0.78785394  0.45700568  1  0.061297  0  0.087363  0.126202  0  1.01348  0
H  H46  1  0.30772291  0.85501653  0.49268648  1  0.028029  0  0.086162  0.123593  0  0.995988  0
H  H47  1  0.29143794  0.81955842  0.39831271  1  0.064879  0  0.083855  0.123831  0  1.038832  0
H  H48  1  0.62479034  0.77757603  0.49744911  1  0.10392  0  0.118847  0.10817  0  0.997256  0
H  H49  1  0.55799424  0.92383335  0.35669631  1  0.030446  0  0.069357  0.106185  0  1.071073  0
H  H50  1  0.48855653  0.82019476  0.31629350  1  0.032056  0  0.083847  0.120985  0  1.016658  0
H  H51  1  0.47662968  0.87955453  0.27003846  1  0.029798  0  0.085059  0.119372  0  1.000305  0
H  H52  1  0.43031191  0.65959440  0.95550150  1  0.056653  0  0.092696  0.127767  0  1.013794  0
H  H53  1  0.37404063  0.64591242  0.86562378  1  0.024693  0  0.085046  0.118384  0  1.003983  0
H  H54  1  0.32843961  0.60412700  0.91767749  1  0.065472  0  0.094362  0.133422  0  0.997841  0
H  H55  1  0.51149811  0.75123677  0.19393628  1  0.032537  0  0.088391  0.125519  0  1.008107  0
H  H56  1  0.52957294  0.70298602  0.11977930  1  0.041314  0  0.093677  0.130078  0  0.990183  0
H  H57  1  0.44322837  0.70823698  0.09938882  1  0.038808  0  0.093752  0.130246  0  1.003404  0
H  H58  1  0.34229511  0.26891040  0.62770741  1  0.042634  0  0.095933  0.134593  0  0.985197  0
H  H59  1  0.38233620  0.41419815  0.26453774  1  0.084401  0  0.111911  0.098149  0  1.057003  0
H  H60  1  0.27203122  0.30009316  0.62261380  1  0.054998  0  0.099854  0.14574  0  0.98419  0
H  H61  1  0.29185825  0.26947704  0.54405380  1  0.0256  0  0.085074  0.115645  0  1.033171  0
H  H62  1  0.82511336  0.01663542  0.98108556  1  0.051383  0  0.092553  0.126533  0  1.022016  0
H  H63  1  0.83138896  0.08188033  0.93939323  1  0.049034  0  0.094509  0.132967  0  0.995885  0
H  H64  1  0.74037567  0.99282748  0.90562020  1  -0.000781  0  0.084706  0.116971  0  1.004967  0
H  H65  1  0.98173731  0.16234403  0.19214140  1  0.031024  0  0.086905  0.120198  0  1.005616  0
H  H66  1  0.93701785  0.17010197  0.11044587  1  0.047676  0  0.095525  0.134345  0  0.987539  0
H  H67  1  0.93050372  0.07821210  0.10294083  1  0.044847  0  0.094383  0.129272  0  1.007607  0
H  H68  1  0.35994027  0.61745754  0.61069505  1  0.111991  0  0.12445  0.115557  0  0.981607  0
H  H69  1  0.12105977  0.60219544  0.62276175  1  0.056406  0  0.096354  0.115554  0  0.983777  0
H  H70  1  0.89612761  0.36438341  0.45764370  1  0.028559  0  0.094204  0.098484  0  0.967893  0
C  C71  1  0.72363374  0.70759753  0.65939756  1  0.382607  0  0.000485  -0.058885  0  3.998818  0
C  C72  1  0.57353232  0.73022511  0.49456440  1  0.477272  0  0.022091  -0.031925  0  3.951221  0
C  C73  1  0.43679725  0.47059564  0.29665230  1  0.399646  0  0.004521  -0.041448  0  3.955926  0
C  C74  1  0.46548144  0.28958596  0.51306752  1  0.432457  0  0.012199  -0.047212  0  3.927742  0
C  C75  1  0.33528372  0.55533807  0.57232800  1  0.419807  0  0.016711  -0.045418  0  3.960728  0
C  C76  1  0.46394851  0.53889223  0.28381097  1  0.027532  0  -0.032721  -0.038104  0  4.055504  0
C  C77  1  0.26193837  0.48963914  0.54989923  1  0.133609  0  -0.032503  0.004768  0  4.20513  0
C  C78  1  0.49630472  0.71597221  0.46929089  1  0.09309  0  -0.030165  0.041855  0  4.186278  0
C  C79  1  0.25921863  0.26889812  0.24436378  1  0.011373  0  -0.034135  -0.036119  0  4.065411  0
C  C80  1  0.00201156  0.54835277  0.61368248  1  -0.016627  0  -0.057101  0.04124  0  3.648823  0
C  C81  1  0.93745890  0.42917191  0.48701442  1  -0.036586  0  -0.161641  -0.192051  0  3.874042  0
C  C82  1  0.50194822  0.25036119  0.48335404  1  0.077399  0  -0.028652  0.050588  0  4.19222  0
C  C83  1  0.02070995  0.44835090  0.49862902  1  -0.049006  0  -0.154034  -0.184761  0  3.847767  0
C  C84  1  0.20106319  0.48659961  0.56970602  1  -0.404836  0  -0.06422  -0.104237  0  4.212976  0
C  C85  1  0.93503514  0.46074629  0.56327090  1  0.134191  0  -0.002346  0.162536  0  3.890204  0
C  C86  1  0.47070899  0.51497186  0.69218002  1  0.374103  0  0.001329  -0.051652  0  4.007413  0
C  C87  1  0.08199200  0.55350957  0.63116387  1  -0.012308  0  -0.161651  -0.236652  0  3.847014  0
C  C88  1  0.07197892  0.47346514  0.58118343  1  0.142773  0  -0.005763  0.156475  0  3.906547  0
C  C89  1  0.02570640  0.40786020  0.60131331  1  -0.033143  0  -0.061213  0.032128  0  3.680837  0
C  C90  1  0.95310459  0.41186109  0.60451311  1  -0.034164  0  -0.157145  -0.240288  0  3.844099  0
C  C91  1  0.14573432  0.48063721  0.58373489  1  0.077621  0  -0.055856  -0.124071  0  4.092208  0
C  C92  1  0.85929132  0.45478893  0.54964507  1  0.071981  0  -0.067115  -0.149101  0  4.074131  0
C  C93  1  0.41532853  0.45357776  0.69995785  1  0.023182  0  -0.037645  -0.104481  0  4.03907  0
C  C94  1  0.80035702  0.45843134  0.52616296  1  -0.440462  0  -0.058362  -0.101364  0  4.188249  0
C  C95  1  0.45986730  0.98353803  0.37813874  1  -0.055434  0  -0.158636  -0.256894  0  3.779055  0
C  C96  1  0.41590630  0.98876951  0.48197855  1  -0.036703  0  -0.056949  -0.010011  0  3.635282  0
C  C97  1  0.41292131  0.90968056  0.47847287  1  0.011961  0  -0.075804  0.01688  0  3.75785  0
C  C98  1  0.67513877  0.42541400  0.42516568  1  0.458966  0  0.018379  -0.03764  0  3.959734  0
C  C99  1  0.47259954  0.76647758  0.44827109  1  -0.507766  0  -0.057135  -0.111297  0  4.164442  0
C  C100  1  0.47955256  0.03382958  0.45985879  1  0.118312  0  -0.003975  0.170371  0  3.913803  0
C  C101  1  0.44564060  0.89749986  0.36285765  1  0.047759  0  -0.008647  0.210544  0  3.691365  0
C  C102  1  0.46583710  0.89275462  0.43971816  1  0.110369  0  0.007483  0.064226  0  3.765415  0
C  C103  1  0.54833127  0.96224514  0.50096841  1  -0.017685  0  -0.05946  0.041663  0  3.669848  0
C  C104  1  0.73574298  0.46772224  0.49780338  1  0.058144  0  -0.02821  0.045846  0  4.175372  0
C  C105  1  0.55732411  0.04384691  0.50980627  1  -0.034129  0  -0.158062  -0.239813  0  3.866068  0
C  C106  1  0.46270277  0.81829227  0.43595371  1  0.148842  0  -0.055139  -0.113687  0  4.104507  0
C  C107  1  0.49009143  0.11273360  0.47190300  1  -0.36438  0  -0.06305  -0.14089  0  4.112651  0
C  C108  1  0.49911780  0.17880442  0.48165258  1  0.035808  0  -0.062057  -0.106677  0  4.190598  0
C  C109  1  0.43018979  0.54613653  0.21655000  1  -0.027689  0  -0.006413  0.099264  0  4.052926  0
C  C110  1  0.37990924  0.38601531  0.63069145  1  0.436233  0  0.092661  0.216617  0  3.967008  0
C  C111  1  0.36845223  0.47752268  0.15193218  1  -0.045395  0  -0.097715  -0.135859  0  4.002783  0
C  C112  1  0.34877389  0.47953086  0.08370177  1  -0.021062  0  -0.090664  -0.140672  0  4.022718  0
C  C113  1  0.38926534  0.55042784  0.07771430  1  0.332043  0  0.078844  0.09643  0  4.017437  0
C  C114  1  0.44329618  0.62265035  0.14287781  1  0.031463  0  0.000149  0.125058  0  3.939858  0
C  C115  1  0.53779841  0.59226883  0.34448155  1  0.439817  0  0.017009  -0.020674  0  3.952618  0
C  C116  1  0.46294965  0.61868041  0.21099811  1  -0.056266  0  -0.09916  -0.205942  0  3.945864  0
C  C117  1  0.38014256  0.54210937  0.86630104  1  -0.03046  0  0.002272  0.132544  0  3.914032  0
C  C118  1  0.39488421  0.52953144  0.80316454  1  0.011733  0  -0.09754  -0.200196  0  3.937622  0
C  C119  1  0.36583984  0.48117635  0.89136143  1  0.365772  0  0.082891  0.103537  0  4.015942  0
C  C120  1  0.39590024  0.46030920  0.76360977  1  -0.017128  0  -0.003965  0.114443  0  4.043756  0
C  C121  1  0.37617467  0.39875645  0.78651157  1  -0.105104  0  -0.100037  -0.145897  0  4.01547  0
C  C122  1  0.72086791  0.52726929  0.53371702  1  0.462767  0  0.022797  -0.025718  0  3.924775  0
C  C123  1  0.36092251  0.40931498  0.84882321  1  0.028695  0  -0.086349  -0.135295  0  4.012695  0
C  C124  1  0.77820269  0.84794959  0.76283936  1  0.021146  0  -0.007483  0.100216  0  4.063515  0
C  C125  1  0.76599767  0.89558774  0.81770132  1  -0.045553  0  -0.096044  -0.198423  0  3.946323  0
C  C126  1  0.26314662  0.42602325  0.49978321  1  0.41977  0  0.081502  0.132468  0  3.993887  0
C  C127  1  0.82372940  0.97226170  0.87218656  1  -0.034947  0  0.001797  0.128529  0  3.91871  0
C  C128  1  0.89867348  0.00248621  0.87152289  1  0.431104  0  0.084329  0.104858  0  4.016313  0
C  C129  1  0.90862188  0.95906137  0.81187910  1  -0.040164  0  -0.085151  -0.133351  0  4.012177  0
C  C130  1  0.85012758  0.88288729  0.75879264  1  -0.087083  0  -0.10197  -0.146547  0  4.018147  0
C  C131  1  0.11380238  0.17228192  0.04425891  1  -0.013025  0  -0.087206  -0.130864  0  3.997833  0
C  C132  1  0.18437447  0.21387993  0.10642231  1  -0.103449  0  -0.09836  -0.140969  0  4.009361  0
C  C133  1  0.04299511  0.14685541  0.05159745  1  0.355039  0  0.079303  0.095294  0  4.01954  0
C  C134  1  0.53373345  0.29292279  0.44598867  1  0.448946  0  0.015051  -0.043663  0  3.93964  0
C  C135  1  0.18658264  0.23090793  0.17816270  1  -0.022733  0  -0.008018  0.097377  0  4.056226  0
C  C136  1  0.11561835  0.20870282  0.18475971  1  -0.00773  0  -0.099535  -0.201972  0  3.944546  0
C  C137  1  0.45474783  0.64764616  0.47832795  1  0.441879  0  0.016128  -0.033724  0  3.934647  0
C  C138  1  0.04392099  0.16776708  0.12330386  1  0.009271  0  0.001589  0.12775  0  3.947525  0
C  C139  1  0.64099259  0.72382892  0.70264252  1  0.474574  0  0.009829  -0.042159  0  3.968391  0
C  C140  1  0.71826228  0.76539073  0.71173968  1  -0.004467  0  -0.03456  -0.035016  0  4.078281  0
C  C141  1  0.36025521  0.83489822  0.30822672  1  -0.087249  0  -0.246795  -0.411755  0  3.895823  0
C  C142  1  0.33293913  0.83861890  0.45438871  1  -0.086252  0  -0.250751  -0.394406  0  3.947285  0
C  C143  1  0.49582228  0.87958969  0.32485918  1  -0.086168  0  -0.253568  -0.425692  0  3.929444  0
C  C144  1  0.37812370  0.61701182  0.90298627  1  -0.059307  0  -0.240177  -0.412091  0  4.007993  0
C  C145  1  0.48392284  0.70060410  0.13894083  1  -0.050262  0  -0.237337  -0.410667  0  3.99804  0
C  C146  1  0.31834676  0.30185105  0.60493240  1  -0.044903  0  -0.233916  -0.428854  0  4.004667  0
C  C147  1  0.80391380  0.01825505  0.92737371  1  -0.01914  0  -0.238095  -0.408667  0  4.007101  0
C  C148  1  0.33275152  0.27803141  0.25129895  1  0.39705  0  0.010601  -0.048919  0  3.990923  0
C  C149  1  0.96949817  0.14343120  0.13305366  1  -0.045004  0  -0.236222  -0.409611  0  3.999662  0
C  C150  1  0.27074502  0.30360504  0.31844569  1  0.393828  0  0.005465  -0.040984  0  3.984901  0
Br  Br151  1  0.18419756  0.31806987  0.45094805  1  -0.039518  0  0.071725  -0.030495  0  1.458573  0
Br  Br152  1  0.99369899  0.62126015  0.56864944  1  -0.170815  0  -0.050305  -0.163428  0  1.231791  0
Br  Br153  1  0.09093546  0.41702979  0.69648839  1  -0.15649  0  -0.043886  -0.153099  0  1.229247  0
Br  Br154  1  0.31481466  0.97705589  0.42300020  1  -0.162415  0  -0.026839  -0.142707  0  1.301514  0
Br  Br155  1  0.64097521  0.95607914  0.49396903  1  -0.172188  0  -0.038471  -0.152598  0  1.278252  0
N  N156  1  0.65503587  0.63779947  0.62117847  1  -0.766335  0  -0.276888  -0.229348  0  3.453199  0
N  N157  1  0.36041319  0.48380156  0.95799792  1  -0.526527  0  -0.163755  -0.156006  0  3.333723  0
N  N158  1  0.96925431  0.06866750  0.92813364  1  -0.514683  0  -0.16445  -0.156188  0  3.316315  0
N  N159  1  0.47343855  0.34924399  0.49273097  1  -0.792709  0  -0.276614  -0.197734  0  3.577801  0
N  N160  1  0.96915946  0.09301839  0.99202244  1  -0.48047  0  -0.153641  -0.119623  0  3.304931  0
N  N161  1  0.46835419  0.48714721  0.62348367  1  -0.792569  0  -0.283562  -0.215651  0  3.551211  0
N  N162  1  0.62857163  0.45742550  0.41803482  1  -0.75564  0  -0.272064  -0.206315  0  3.473658  0
N  N163  1  0.41136114  0.40819881  0.58586052  1  -0.78357  0  -0.276899  -0.236999  0  3.548836  0
N  N164  1  0.65756214  0.52093708  0.48577564  1  -0.825671  0  -0.282834  -0.2053  0  3.640642  0
N  N165  1  0.51552238  0.35114934  0.45193210  1  -0.763389  0  -0.284263  -0.176548  0  3.659009  0
N  N166  1  0.60426762  0.64861609  0.64893750  1  -0.809804  0  -0.280945  -0.171526  0  3.603462  0
N  N167  1  0.33056012  0.45091840  0.49269955  1  -0.732963  0  -0.266748  -0.253912  0  3.456669  0
N  N168  1  0.55371087  0.55758896  0.38822883  1  -0.778106  0  -0.276142  -0.197905  0  3.548826  0
N  N169  1  0.50397381  0.62422879  0.50768413  1  -0.821573  0  -0.281349  -0.224994  0  3.567686  0
N  N170  1  0.38348418  0.31459476  0.32340614  1  -0.764883  0  -0.269946  -0.194449  0  3.47738  0
N  N171  1  0.34439323  0.33054357  0.36510850  1  -0.829057  0  -0.278137  -0.189036  0  3.5906  0
N  N172  1  0.57727605  0.67570774  0.51766859  1  -0.791839  0  -0.283347  -0.194327  0  3.583475  0
N  N173  1  0.49107136  0.48241266  0.35892470  1  -0.819528  0  -0.295139  -0.209889  0  3.657749  0
N  N174  1  0.37522841  0.53163129  0.53840357  1  -0.80876  0  -0.273175  -0.167844  0  3.573231  0
N  N175  1  0.38548595  0.55248763  0.00948227  1  -0.483389  0  -0.154207  -0.12225  0  3.269019  0
