# generated using pymatgen
data_CdH13C11N3O7
_symmetry_space_group_name_H-M   'P 1'
_cell_length_a   7.70393740
_cell_length_b   7.88356461
_cell_length_c   24.87119312
_cell_angle_alpha   89.99958339
_cell_angle_beta   89.99918993
_cell_angle_gamma   90.00038863
_symmetry_Int_Tables_number   1
_chemical_formula_structural   CdH13C11N3O7
_chemical_formula_sum   'Cd4 H52 C44 N12 O28'
_cell_volume   1510.53918620
_cell_formula_units_Z   4
loop_
 _symmetry_equiv_pos_site_id
 _symmetry_equiv_pos_as_xyz
  1  'x, y, z'
loop_
 _atom_site_type_symbol
 _atom_site_label
 _atom_site_symmetry_multiplicity
 _atom_site_fract_x
 _atom_site_fract_y
 _atom_site_fract_z
 _atom_site_occupancy
 _atom_site_pbe_bader_charge
 _atom_site_pbe_bader_spin_density
 _atom_site_pbe_cm5_charge
 _atom_site_pbe_ddec_charge
 _atom_site_pbe_ddec_spin_density
 _atom_site_pbe_ddec_sum_bond_order
 _atom_site_pbe_magmom
Cd  Cd0  1  0.17448042  0.00985497  0.71033384  1  1.330594  0  0.766931  1.00052  0  2.086764  0
Cd  Cd1  1  0.32551793  0.99014094  0.21032979  1  1.330517  0  0.766927  1.000543  0  2.086699  0
Cd  Cd2  1  0.82553705  0.50986103  0.78967059  1  1.330626  0  0.766938  1.000532  0  2.086726  0
Cd  Cd3  1  0.67445545  0.49013263  0.28966960  1  1.330635  0  0.766969  1.000577  0  2.086549  0
H  H4  1  0.28194590  0.38765824  0.55442990  1  0.084367  0  0.103767  0.153339  0  0.982873  0
H  H5  1  0.21806861  0.61235509  0.05442602  1  0.084307  0  0.103722  0.153218  0  0.982818  0
H  H6  1  0.71807679  0.88764490  0.94557323  1  0.084184  0  0.103739  0.153175  0  0.982821  0
H  H7  1  0.78192941  0.11234656  0.44556824  1  0.084326  0  0.103726  0.153213  0  0.982834  0
H  H8  1  0.48031273  0.43545291  0.58669123  1  0.086022  0  0.10498  0.1602  0  0.990015  0
H  H9  1  0.01969772  0.56454956  0.08668833  1  0.086186  0  0.105036  0.160277  0  0.989915  0
H  H10  1  0.51971029  0.93543897  0.91331139  1  0.086194  0  0.105015  0.160231  0  0.989927  0
H  H11  1  0.98029607  0.06454560  0.41330363  1  0.086138  0  0.105002  0.160196  0  0.989948  0
H  H12  1  0.44640068  0.50055355  0.51838771  1  0.068755  0  0.096191  0.136495  0  1.022054  0
H  H13  1  0.05361546  0.49945297  0.01838522  1  0.068769  0  0.096177  0.136484  0  1.022118  0
H  H14  1  0.55361932  0.00053129  0.98161594  1  0.068796  0  0.096161  0.136416  0  1.022177  0
H  H15  1  0.94638394  0.99944795  0.48160892  1  0.068972  0  0.096207  0.136488  0  1.022011  0
H  H16  1  0.16277050  0.56971479  0.46684709  1  0.076051  0  0.109412  0.117752  0  1.00154  0
H  H17  1  0.33724608  0.43030079  0.96683978  1  0.076323  0  0.109425  0.117766  0  1.001483  0
H  H18  1  0.83722203  0.06971199  0.03316817  1  0.077084  0  0.109549  0.117975  0  1.001427  0
H  H19  1  0.66277301  0.93027849  0.53316003  1  0.076055  0  0.109531  0.117946  0  1.001443  0
H  H20  1  0.19131678  0.63211414  0.36909531  1  0.133771  0  0.112293  0.12337  0  1.009492  0
H  H21  1  0.30869904  0.36788586  0.86908907  1  0.133624  0  0.112269  0.12333  0  1.009449  0
H  H22  1  0.80865801  0.13214449  0.13091659  1  0.133812  0  0.112294  0.123506  0  1.009294  0
H  H23  1  0.69133909  0.86786665  0.63090968  1  0.133776  0  0.112306  0.123484  0  1.009404  0
H  H24  1  0.38918324  0.05454334  0.50456956  1  0.085954  0  0.111036  0.117764  0  0.999878  0
H  H25  1  0.11083352  0.94546222  0.00457461  1  0.086237  0  0.111102  0.117936  0  0.999755  0
H  H26  1  0.61082934  0.55452818  0.99542109  1  0.086288  0  0.111088  0.117861  0  0.99992  0
H  H27  1  0.88916940  0.44545837  0.49542489  1  0.086362  0  0.111075  0.117869  0  0.999852  0
H  H28  1  0.42223112  0.11582773  0.40633971  1  0.133751  0  0.112236  0.120499  0  1.003884  0
H  H29  1  0.07779209  0.88417397  0.90634412  1  0.13396  0  0.112228  0.120479  0  1.003869  0
H  H30  1  0.57776561  0.61584792  0.09364891  1  0.133692  0  0.112265  0.120588  0  1.00373  0
H  H31  1  0.92223966  0.38416531  0.59365258  1  0.133739  0  0.112239  0.120539  0  1.003745  0
H  H32  1  0.25345384  0.33372571  0.66679094  1  0.637902  0  0.283881  0.372177  0  0.974395  0
H  H33  1  0.24653870  0.66626990  0.16679082  1  0.637857  0  0.283847  0.372119  0  0.974457  0
H  H34  1  0.74655679  0.83373662  0.83320950  1  0.637906  0  0.283901  0.372201  0  0.974357  0
H  H35  1  0.75342594  0.16625734  0.33321175  1  0.638042  0  0.283913  0.37226  0  0.974256  0
H  H36  1  0.05054061  0.31614033  0.66858143  1  0.641585  0  0.285446  0.38433  0  0.956794  0
H  H37  1  0.44945444  0.68386666  0.16857837  1  0.64169  0  0.285475  0.384423  0  0.956676  0
H  H38  1  0.94947769  0.81615516  0.83141865  1  0.64135  0  0.2854  0.384245  0  0.956908  0
H  H39  1  0.55050772  0.18383503  0.33141693  1  0.6412  0  0.285463  0.38437  0  0.956719  0
H  H40  1  0.82294357  0.09362870  0.72596164  1  0.646118  0  0.287711  0.381171  0  0.963424  0
H  H41  1  0.67704403  0.90638286  0.22595764  1  0.646339  0  0.287701  0.381112  0  0.963465  0
H  H42  1  0.17706539  0.59362827  0.77404058  1  0.646007  0  0.287751  0.381229  0  0.963336  0
H  H43  1  0.32292487  0.40636116  0.27403833  1  0.645804  0  0.287801  0.381382  0  0.963127  0
H  H44  1  0.83251208  0.90133718  0.70552698  1  0.66045  0  0.28514  0.380346  0  0.968544  0
H  H45  1  0.66746995  0.09866722  0.20552695  1  0.659777  0  0.285128  0.380288  0  0.968618  0
H  H46  1  0.16750162  0.40134570  0.79447531  1  0.660828  0  0.285134  0.380301  0  0.968608  0
H  H47  1  0.33249032  0.59864707  0.29447578  1  0.660925  0  0.285184  0.380445  0  0.968404  0
H  H48  1  0.52195784  0.14544712  0.70637291  1  0.616711  0  0.317726  0.405747  0  0.875466  0
H  H49  1  0.97803583  0.85455473  0.20637012  1  0.616744  0  0.317685  0.405693  0  0.875569  0
H  H50  1  0.47805667  0.64544825  0.79362396  1  0.61674  0  0.317734  0.405777  0  0.875486  0
H  H51  1  0.02193920  0.35455470  0.29362758  1  0.6168  0  0.317687  0.405775  0  0.875487  0
H  H52  1  0.52386284  0.99294784  0.74488513  1  0.646901  0  0.290688  0.378248  0  0.961773  0
H  H53  1  0.97612650  0.00704808  0.24488316  1  0.646894  0  0.290645  0.378165  0  0.961866  0
H  H54  1  0.47614760  0.49294025  0.75511775  1  0.646949  0  0.290691  0.378196  0  0.961789  0
H  H55  1  0.02384352  0.50705467  0.25511417  1  0.646921  0  0.290652  0.378166  0  0.961817  0
C  C56  1  0.31811750  0.62919867  0.68438108  1  1.620392  0  0.217199  0.581021  0  4.223115  0
C  C57  1  0.18187813  0.37079909  0.18437873  1  1.620419  0  0.217279  0.580992  0  4.223056  0
C  C58  1  0.68189171  0.12920378  0.81562307  1  1.620264  0  0.217233  0.580975  0  4.223239  0
C  C59  1  0.81808663  0.87079310  0.31561933  1  1.620176  0  0.217211  0.580705  0  4.223245  0
C  C60  1  0.28159869  0.70251750  0.63060681  1  0.402561  0  0.07859  -0.087459  0  3.993318  0
C  C61  1  0.21841106  0.29749033  0.13060327  1  0.403003  0  0.078549  -0.087493  0  3.993594  0
C  C62  1  0.71842531  0.20250390  0.86939836  1  0.403115  0  0.078476  -0.087517  0  3.993551  0
C  C63  1  0.78156487  0.79748164  0.36939416  1  0.40284  0  0.078464  -0.08756  0  3.993298  0
C  C64  1  0.31267729  0.64563655  0.57847099  1  0.395335  0  0.124481  0.185096  0  3.913817  0
C  C65  1  0.18733742  0.35436990  0.07846746  1  0.394772  0  0.124568  0.185075  0  3.9137  0
C  C66  1  0.68734891  0.14562413  0.92153311  1  0.394748  0  0.124578  0.18507  0  3.913558  0
C  C67  1  0.81265189  0.85436533  0.42152904  1  0.395646  0  0.124553  0.185006  0  3.913879  0
C  C68  1  0.38497140  0.48396650  0.55783269  1  -0.033198  0  -0.231722  -0.436895  0  3.958952  0
C  C69  1  0.11504295  0.51604549  0.05782869  1  -0.033266  0  -0.231695  -0.436737  0  3.958713  0
C  C70  1  0.61505456  0.98394875  0.94217141  1  -0.033235  0  -0.231718  -0.436611  0  3.95871  0
C  C71  1  0.88495309  0.01603518  0.44216500  1  -0.033453  0  -0.231744  -0.436683  0  3.958819  0
C  C72  1  0.27797161  0.80742463  0.49092622  1  0.323675  0  0.096751  0.151457  0  4.031629  0
C  C73  1  0.22205685  0.19257646  0.99092440  1  0.323954  0  0.096922  0.15176  0  4.031316  0
C  C74  1  0.72204074  0.30742160  0.00907481  1  0.323879  0  0.096838  0.151546  0  4.031627  0
C  C75  1  0.77796318  0.69257195  0.50907396  1  0.323806  0  0.096835  0.151625  0  4.031775  0
C  C76  1  0.22201105  0.68764656  0.45339230  1  -0.034992  0  -0.085724  -0.15942  0  3.965746  0
C  C77  1  0.27799445  0.31236171  0.95338914  1  -0.035054  0  -0.085773  -0.159558  0  3.965862  0
C  C78  1  0.77797450  0.18765448  0.04661585  1  -0.035506  0  -0.085767  -0.159603  0  3.965933  0
C  C79  1  0.72201733  0.81234331  0.54661135  1  -0.034548  0  -0.085859  -0.159763  0  3.965903  0
C  C80  1  0.23782121  0.72329607  0.39870044  1  0.014176  0  -0.07129  -0.058963  0  3.916485  0
C  C81  1  0.26219586  0.27671469  0.89869743  1  0.013796  0  -0.071378  -0.058966  0  3.916305  0
C  C82  1  0.76215680  0.22331282  0.10130683  1  0.013674  0  -0.071471  -0.059255  0  3.91661  0
C  C83  1  0.73784293  0.77669137  0.60130395  1  0.013755  0  -0.071439  -0.059169  0  3.916575  0
C  C84  1  0.34932565  0.96232833  0.47436817  1  -0.049131  0  -0.088315  -0.17172  0  4.005072  0
C  C85  1  0.15069838  0.03767060  0.97436985  1  -0.049787  0  -0.088539  -0.172283  0  4.005031  0
C  C86  1  0.65068388  0.46232826  0.02562727  1  -0.049747  0  -0.088393  -0.171884  0  4.005231  0
C  C87  1  0.84932577  0.53767253  0.52562929  1  -0.049799  0  -0.088388  -0.171928  0  4.00526  0
C  C88  1  0.36591982  0.99629586  0.41980899  1  -0.080171  0  -0.078348  -0.079978  0  3.96483  0
C  C89  1  0.13409500  0.00371189  0.91981002  1  -0.080216  0  -0.078294  -0.079714  0  3.964848  0
C  C90  1  0.63407048  0.49630208  0.08018636  1  -0.080291  0  -0.078429  -0.080146  0  3.964875  0
C  C91  1  0.86591594  0.50369750  0.58018679  1  -0.080332  0  -0.078413  -0.080081  0  3.964828  0
C  C92  1  0.31081338  0.87694781  0.38154692  1  -0.019959  0  -0.012397  -0.030565  0  3.945191  0
C  C93  1  0.18920706  0.12305572  0.88154661  1  -0.019528  0  -0.012314  -0.030591  0  3.945159  0
C  C94  1  0.68916440  0.37696750  0.11845516  1  -0.01965  0  -0.012301  -0.030473  0  3.945504  0
C  C95  1  0.81083066  0.62303758  0.61845473  1  -0.019726  0  -0.012264  -0.030376  0  3.945372  0
C  C96  1  0.32761795  0.91641417  0.32272054  1  1.56268  0  0.202381  0.561331  0  4.221776  0
C  C97  1  0.17239737  0.08357925  0.82272201  1  1.562632  0  0.202407  0.561314  0  4.221569  0
C  C98  1  0.67234194  0.41646668  0.17727661  1  1.561662  0  0.202405  0.561469  0  4.222015  0
C  C99  1  0.82765046  0.58355991  0.67727782  1  1.562192  0  0.202379  0.561433  0  4.22194  0
N  N100  1  0.21217637  0.86165471  0.62740468  1  -0.593464  0  -0.194572  -0.153111  0  3.512783  0
N  N101  1  0.28784001  0.13835700  0.12740121  1  -0.594091  0  -0.194679  -0.153338  0  3.513015  0
N  N102  1  0.78784743  0.36164150  0.87259891  1  -0.594032  0  -0.194648  -0.153334  0  3.512713  0
N  N103  1  0.71215039  0.63834017  0.37259741  1  -0.593923  0  -0.19457  -0.153056  0  3.512724  0
N  N104  1  0.19950363  0.91075737  0.57774760  1  -0.06665  0  -0.082148  -0.081783  0  3.108618  0
N  N105  1  0.30051760  0.08925164  0.07774460  1  -0.066467  0  -0.08207  -0.081578  0  3.108416  0
N  N106  1  0.80051532  0.41074441  0.92225668  1  -0.066424  0  -0.082059  -0.081523  0  3.108345  0
N  N107  1  0.69948544  0.58923615  0.42225414  1  -0.066429  0  -0.082123  -0.081717  0  3.108564  0
N  N108  1  0.26037144  0.77925776  0.54718093  1  -0.840752  0  -0.11382  0.038608  0  3.746404  0
N  N109  1  0.23965118  0.22075066  0.04717708  1  -0.840586  0  -0.113892  0.038533  0  3.746291  0
N  N110  1  0.73965179  0.27924498  0.95282326  1  -0.840466  0  -0.11393  0.038478  0  3.746461  0
N  N111  1  0.76035538  0.72073871  0.45282054  1  -0.841088  0  -0.113841  0.038566  0  3.746478  0
O  O112  1  0.15765472  0.25549566  0.65688098  1  -1.256181  0  -0.596024  -0.762518  0  2.050339  0
O  O113  1  0.34233437  0.74450651  0.15687986  1  -1.256072  0  -0.596004  -0.762556  0  2.050293  0
O  O114  1  0.84236185  0.75550698  0.84311844  1  -1.255926  0  -0.595976  -0.762443  0  2.050373  0
O  O115  1  0.65761913  0.24447914  0.34312374  1  -1.255877  0  -0.59606  -0.762588  0  2.050219  0
O  O116  1  0.88154899  0.01732360  0.69975457  1  -1.272348  0  -0.596375  -0.765756  0  2.105101  0
O  O117  1  0.61843979  0.98268474  0.19975105  1  -1.271836  0  -0.596332  -0.765623  0  2.105274  0
O  O118  1  0.11846074  0.51732727  0.80024903  1  -1.272634  0  -0.596445  -0.765757  0  2.105082  0
O  O119  1  0.38152315  0.48265903  0.30024916  1  -1.272513  0  -0.596561  -0.766079  0  2.104786  0
O  O120  1  0.48038254  0.02869393  0.70871923  1  -1.22869  0  -0.578907  -0.742205  0  2.078878  0
O  O121  1  0.01961588  0.97130456  0.20871818  1  -1.228792  0  -0.578837  -0.742041  0  2.079025  0
O  O122  1  0.51963246  0.52869792  0.79128194  1  -1.228747  0  -0.578916  -0.742161  0  2.078891  0
O  O123  1  0.98036255  0.47130458  0.29128085  1  -1.228865  0  -0.578836  -0.742154  0  2.078865  0
O  O124  1  0.26817100  0.71679422  0.72470163  1  -1.157461  0  -0.311069  -0.556733  0  2.281523  0
O  O125  1  0.23182150  0.28320138  0.22470128  1  -1.15741  0  -0.311116  -0.556746  0  2.281372  0
O  O126  1  0.73183881  0.21680182  0.77530151  1  -1.157291  0  -0.311055  -0.556575  0  2.281312  0
O  O127  1  0.76813486  0.78319849  0.27529780  1  -1.157576  0  -0.310933  -0.556412  0  2.281363  0
O  O128  1  0.39584601  0.48711468  0.68788030  1  -1.187724  0  -0.313696  -0.54894  0  2.159047  0
O  O129  1  0.10414037  0.51288046  0.18787756  1  -1.187762  0  -0.31369  -0.548859  0  2.1591  0
O  O130  1  0.60415789  0.98711877  0.81212540  1  -1.187657  0  -0.313607  -0.548907  0  2.15922  0
O  O131  1  0.89582190  0.01287565  0.31211774  1  -1.187397  0  -0.313722  -0.548862  0  2.159229  0
O  O132  1  0.38190702  0.06184803  0.30836789  1  -1.17304  0  -0.31465  -0.551289  0  2.234144  0
O  O133  1  0.11808948  0.93814697  0.80837319  1  -1.172769  0  -0.314644  -0.551244  0  2.234202  0
O  O134  1  0.61806208  0.56190817  0.19161845  1  -1.172812  0  -0.314548  -0.551291  0  2.234444  0
O  O135  1  0.88193746  0.43812192  0.69162459  1  -1.172791  0  -0.314592  -0.551337  0  2.234025  0
O  O136  1  0.28415744  0.80361898  0.28832274  1  -1.17398  0  -0.317795  -0.562202  0  2.266356  0
O  O137  1  0.21584516  0.19637393  0.78831933  1  -1.174183  0  -0.317817  -0.562174  0  2.266194  0
O  O138  1  0.71577570  0.30366595  0.21168071  1  -1.17336  0  -0.31795  -0.562291  0  2.266125  0
O  O139  1  0.78419307  0.69635100  0.71167902  1  -1.173802  0  -0.317835  -0.562219  0  2.266468  0
