# generated using pymatgen
data_NdZnH16C26N2ClO11
_symmetry_space_group_name_H-M   'P 1'
_cell_length_a   8.43148177
_cell_length_b   12.75575245
_cell_length_c   13.31281738
_cell_angle_alpha   107.38190214
_cell_angle_beta   104.91658352
_cell_angle_gamma   93.50095603
_symmetry_Int_Tables_number   1
_chemical_formula_structural   NdZnH16C26N2ClO11
_chemical_formula_sum   'Nd2 Zn2 H32 C52 N4 Cl2 O22'
_cell_volume   1305.50307009
_cell_formula_units_Z   2
loop_
 _symmetry_equiv_pos_site_id
 _symmetry_equiv_pos_as_xyz
  1  'x, y, z'
loop_
 _atom_site_type_symbol
 _atom_site_label
 _atom_site_symmetry_multiplicity
 _atom_site_fract_x
 _atom_site_fract_y
 _atom_site_fract_z
 _atom_site_occupancy
 _atom_site_hle17_bader_spin_density
 _atom_site_hle17_ddec_charge
 _atom_site_hle17_ddec_spin_density
 _atom_site_hle17_ddec_sum_bond_order
 _atom_site_hle17_magmom
 _atom_site_hse06_10hf_bader_spin_density
 _atom_site_hse06_10hf_ddec_charge
 _atom_site_hse06_10hf_ddec_spin_density
 _atom_site_hse06_10hf_ddec_sum_bond_order
 _atom_site_hse06_10hf_magmom
 _atom_site_hse06_bader_spin_density
 _atom_site_hse06_ddec_charge
 _atom_site_hse06_ddec_spin_density
 _atom_site_hse06_ddec_sum_bond_order
 _atom_site_hse06_magmom
 _atom_site_pbe_bader_spin_density
 _atom_site_pbe_cm5_charge
 _atom_site_pbe_ddec_charge
 _atom_site_pbe_ddec_spin_density
 _atom_site_pbe_ddec_sum_bond_order
 _atom_site_pbe_magmom
Nd  Nd0  1  0.75494550  0.00893725  0.51207127  1  0  2.312532  0  1.614248  0  0  2.15896  0  2.06461  0  0  2.253796  0  1.924193  0  0  1.511442  2.127594  0  2.096121  0
Nd  Nd1  1  0.24505828  0.99106334  0.48792911  1  0  2.312541  0  1.614163  0  0  2.159051  0  2.064378  0  0  2.253805  0  1.924098  0  0  1.511429  2.127681  0  2.095894  0
Zn  Zn2  1  0.67855979  0.28453950  0.33748542  1  0  1.002804  0  1.900165  0  0  0.822467  0  2.38753  0  0  0.870242  0  2.329225  0  0  0.629874  0.789207  0  2.427324  0
Zn  Zn3  1  0.32144048  0.71546189  0.66251538  1  0  1.002796  0  1.900135  0  0  0.822484  0  2.387487  0  0  0.870259  0  2.329184  0  0  0.629906  0.789228  0  2.427284  0
H  H4  1  0.86609061  0.91149967  0.70905333  1  0  0.402211  0  0.91472  0  0  0.359378  0  0.99778  0  0  0.371354  0  0.981064  0  0  0.2859  0.351107  0  1.009348  0
H  H5  1  0.13390861  0.08850255  0.29094679  1  0  0.402234  0  0.914688  0  0  0.359392  0  0.997764  0  0  0.371368  0  0.981048  0  0  0.285911  0.35112  0  1.009332  0
H  H6  1  0.00273324  0.91448424  0.64450433  1  0  0.440482  0  0.852106  0  0  0.413171  0  0.909923  0  0  0.423287  0  0.895213  0  0  0.304716  0.405896  0  0.920655  0
H  H7  1  0.99726843  0.08551800  0.35549694  1  0  0.440479  0  0.852116  0  0  0.413165  0  0.909937  0  0  0.423283  0  0.895225  0  0  0.30471  0.40589  0  0.920669  0
H  H8  1  0.32310664  0.31303323  0.82264410  1  0  0.098948  0  0.979387  0  0  0.106922  0  1.045186  0  0  0.10882  0  1.045865  0  0  0.102532  0.105579  0  1.044696  0
H  H9  1  0.67689574  0.68696652  0.17735657  1  0  0.098926  0  0.97946  0  0  0.106897  0  1.045264  0  0  0.108792  0  1.045949  0  0  0.1025  0.105554  0  1.044772  0
H  H10  1  0.23673322  0.45950846  0.96198800  1  0  0.089732  0  0.938786  0  0  0.104999  0  0.989849  0  0  0.107592  0  0.988878  0  0  0.104407  0.103091  0  0.990701  0
H  H11  1  0.76326620  0.54048878  0.03801448  1  0  0.089673  0  0.938731  0  0  0.104922  0  0.989836  0  0  0.107516  0  0.988862  0  0  0.104363  0.103014  0  0.990688  0
H  H12  1  0.95891408  0.52130858  0.90678075  1  0  0.107941  0  0.945337  0  0  0.119616  0  1.006181  0  0  0.122521  0  1.004874  0  0  0.107829  0.117529  0  1.007194  0
H  H13  1  0.04108637  0.47868784  0.09321941  1  0  0.10804  0  0.945247  0  0  0.119631  0  1.006186  0  0  0.122536  0  1.004879  0  0  0.107833  0.117541  0  1.007198  0
H  H14  1  0.48593273  0.54101802  0.71852857  1  0  0.100734  0  0.960674  0  0  0.106645  0  1.02718  0  0  0.110392  0  1.023606  0  0  0.110597  0.103896  0  1.029767  0
H  H15  1  0.51406595  0.45898752  0.28147242  1  0  0.100728  0  0.960685  0  0  0.106647  0  1.027171  0  0  0.110392  0  1.023597  0  0  0.11058  0.103899  0  1.029757  0
H  H16  1  0.92634551  0.52177042  0.60791069  1  0  0.127962  0  0.956957  0  0  0.135382  0  1.01973  0  0  0.138949  0  1.016955  0  0  0.107157  0.132749  0  1.021822  0
H  H17  1  0.07365039  0.47822762  0.39209146  1  0  0.127977  0  0.956927  0  0  0.135422  0  1.019674  0  0  0.138985  0  1.016907  0  0  0.107185  0.132789  0  1.021767  0
H  H18  1  0.84100172  0.66763573  0.52436919  1  0  0.118402  0  0.945032  0  0  0.127139  0  1.002981  0  0  0.130128  0  1.002092  0  0  0.112214  0.125001  0  1.003674  0
H  H19  1  0.15899976  0.33235986  0.47562789  1  0  0.118408  0  0.944942  0  0  0.127127  0  1.002934  0  0  0.130115  0  1.002042  0  0  0.112191  0.124989  0  1.003627  0
H  H20  1  0.57990207  0.74642463  0.54326472  1  0  0.097388  0  0.938629  0  0  0.104932  0  1.003711  0  0  0.108155  0  1.000724  0  0  0.12637  0.10243  0  1.006366  0
H  H21  1  0.42010135  0.25357429  0.45673362  1  0  0.097395  0  0.938557  0  0  0.104916  0  1.003673  0  0  0.108136  0  1.000696  0  0  0.126358  0.102413  0  1.006327  0
H  H22  1  0.26778620  0.71559447  0.14211777  1  0  0.104039  0  0.948953  0  0  0.113691  0  1.010501  0  0  0.117019  0  1.008895  0  0  0.104252  0.11133  0  1.011625  0
H  H23  1  0.73220951  0.28440856  0.85788352  1  0  0.104045  0  0.948962  0  0  0.113691  0  1.01051  0  0  0.11703  0  1.008893  0  0  0.10424  0.11133  0  1.011632  0
H  H24  1  0.36172192  0.63915011  0.97272920  1  0  0.091386  0  0.972786  0  0  0.100503  0  1.03516  0  0  0.103275  0  1.033582  0  0  0.093974  0.098521  0  1.036337  0
H  H25  1  0.63827575  0.36085044  0.02727470  1  0  0.091408  0  0.972764  0  0  0.10053  0  1.035136  0  0  0.103303  0  1.033559  0  0  0.093972  0.098546  0  1.036314  0
H  H26  1  0.57840560  0.75057690  0.93870833  1  0  0.110636  0  0.954272  0  0  0.119833  0  1.015254  0  0  0.123029  0  1.014302  0  0  0.105134  0.117557  0  1.016021  0
H  H27  1  0.42159573  0.24941787  0.06129150  1  0  0.110637  0  0.954308  0  0  0.119838  0  1.015288  0  0  0.123032  0  1.014337  0  0  0.105147  0.117561  0  1.016053  0
H  H28  1  0.70678898  0.99287503  0.89037951  1  0  0.094919  0  0.959863  0  0  0.100342  0  1.029137  0  0  0.102218  0  1.028533  0  0  0.115154  0.098945  0  1.029646  0
H  H29  1  0.29321324  0.00712969  0.10962482  1  0  0.094895  0  0.959908  0  0  0.100307  0  1.0292  0  0  0.102184  0  1.028595  0  0  0.115137  0.098912  0  1.029707  0
H  H30  1  0.95471477  0.81112571  0.09461034  1  0  0.128806  0  0.926352  0  0  0.139341  0  0.984948  0  0  0.142217  0  0.983452  0  0  0.116359  0.137279  0  0.98598  0
H  H31  1  0.04528426  0.18886987  0.90538710  1  0  0.128793  0  0.926368  0  0  0.139307  0  0.984974  0  0  0.142183  0  0.983478  0  0  0.116344  0.137246  0  0.986004  0
H  H32  1  0.09559891  0.72995908  0.94732798  1  0  0.101054  0  0.979893  0  0  0.11045  0  1.041871  0  0  0.112293  0  1.043024  0  0  0.10131  0.109085  0  1.041266  0
H  H33  1  0.90439552  0.27003814  0.05266468  1  0  0.101005  0  0.979881  0  0  0.110379  0  1.041908  0  0  0.11222  0  1.043052  0  0  0.101282  0.109014  0  1.041301  0
H  H34  1  0.03064891  0.78421928  0.77975298  1  0  0.073105  0  0.961989  0  0  0.079839  0  1.032384  0  0  0.082598  0  1.029563  0  0  0.104096  0.077754  0  1.034529  0
H  H35  1  0.96933975  0.21577956  0.22024223  1  0  0.073091  0  0.961935  0  0  0.079807  0  1.032348  0  0  0.082563  0  1.029532  0  0  0.1041  0.077721  0  1.034491  0
C  C36  1  0.89473438  0.40705863  0.74235013  1  0  0.249404  0  3.754197  0  0  0.234512  0  4.020606  0  0  0.242916  0  4.036148  0  0  0.08846  0.228559  0  4.010039  0
C  C37  1  0.10526343  0.59294275  0.25765028  1  0  0.249311  0  3.754351  0  0  0.234462  0  4.020692  0  0  0.242848  0  4.036252  0  0  0.088469  0.228509  0  4.010125  0
C  C38  1  0.93847493  0.32233464  0.66471499  1  0  -0.128836  0  3.670769  0  0  -0.123977  0  3.91097  0  0  -0.128146  0  3.9279  0  0  0.002834  -0.121319  0  3.900018  0
C  C39  1  0.06152499  0.67766509  0.33528528  1  0  -0.128895  0  3.670941  0  0  -0.124029  0  3.911122  0  0  -0.128196  0  3.928054  0  0  0.002822  -0.121368  0  3.900174  0
C  C40  1  0.09484198  0.28907437  0.69563565  1  0  -0.049686  0  3.70886  0  0  -0.035672  0  3.942764  0  0  -0.041236  0  3.962211  0  0  -0.001458  -0.031945  0  3.929436  0
C  C41  1  0.90516178  0.71092622  0.30436323  1  0  -0.049528  0  3.708819  0  0  -0.035506  0  3.942664  0  0  -0.041066  0  3.962106  0  0  -0.001435  -0.031792  0  3.929356  0
C  C42  1  0.20248655  0.34002965  0.80151479  1  0  -0.063233  0  3.717952  0  0  -0.091621  0  3.971671  0  0  -0.091122  0  3.991266  0  0  -0.079542  -0.091764  0  3.958122  0
C  C43  1  0.79751373  0.65997174  0.19848677  1  0  -0.063344  0  3.718062  0  0  -0.09174  0  3.971775  0  0  -0.091242  0  3.991368  0  0  -0.079556  -0.091879  0  3.958228  0
C  C44  1  0.15373919  0.42178804  0.87873395  1  0  -0.054211  0  3.78142  0  0  -0.069482  0  4.04233  0  0  -0.071384  0  4.062592  0  0  -0.089578  -0.06823  0  4.028534  0
C  C45  1  0.84625600  0.57821250  0.12126655  1  0  -0.054056  0  3.781319  0  0  -0.06931  0  4.042194  0  0  -0.07121  0  4.062455  0  0  -0.089494  -0.068058  0  4.028396  0
C  C46  1  0.99940462  0.45589933  0.84908538  1  0  -0.147291  0  3.732847  0  0  -0.176244  0  3.995458  0  0  -0.177937  0  4.013173  0  0  -0.09028  -0.174927  0  3.983428  0
C  C47  1  0.00059495  0.54409874  0.15091436  1  0  -0.147365  0  3.732906  0  0  -0.176253  0  3.995497  0  0  -0.177944  0  4.013218  0  0  -0.090277  -0.174931  0  3.983462  0
C  C48  1  0.82135876  0.27543828  0.54965551  1  0  0.702787  0  3.876372  0  0  0.643323  0  4.183964  0  0  0.679546  0  4.174501  0  0  0.226912  0.618274  0  4.191913  0
C  C49  1  0.17864625  0.72456232  0.45034507  1  0  0.702785  0  3.876506  0  0  0.643295  0  4.184152  0  0  0.679518  0  4.174688  0  0  0.226977  0.618246  0  4.1921  0
C  C50  1  0.14371255  0.19333158  0.61981782  1  0  0.695926  0  3.868837  0  0  0.648125  0  4.160885  0  0  0.682629  0  4.155544  0  0  0.221519  0.624362  0  4.16782  0
C  C51  1  0.85628579  0.80666649  0.38018097  1  0  0.695767  0  3.868962  0  0  0.648  0  4.160945  0  0  0.682501  0  4.155612  0  0  0.221448  0.624241  0  4.167879  0
C  C52  1  0.56822188  0.56757495  0.67661352  1  0  0.006854  0  3.698542  0  0  -0.032115  0  3.948094  0  0  -0.02791  0  3.965327  0  0  0.03048  -0.034658  0  3.936442  0
C  C53  1  0.43177981  0.43242729  0.32338926  1  0  0.006765  0  3.698597  0  0  -0.032177  0  3.948141  0  0  -0.027969  0  3.965376  0  0  0.03053  -0.034722  0  3.936491  0
C  C54  1  0.71112240  0.52012606  0.66903493  1  0  0.232272  0  3.792866  0  0  0.227369  0  4.054355  0  0  0.232552  0  4.072317  0  0  0.09029  0.22323  0  4.042376  0
C  C55  1  0.28888018  0.47987452  0.33096827  1  0  0.232395  0  3.792593  0  0  0.227476  0  4.054132  0  0  0.232642  0  4.072107  0  0  0.09034  0.223336  0  4.042155  0
C  C56  1  0.81274911  0.55583781  0.61403677  1  0  -0.120678  0  3.695943  0  0  -0.150714  0  3.950248  0  0  -0.150129  0  3.968  0  0  -0.07788  -0.150712  0  3.938271  0
C  C57  1  0.18725046  0.44416026  0.38596372  1  0  -0.120752  0  3.695857  0  0  -0.150818  0  3.950205  0  0  -0.150223  0  3.967947  0  0  -0.077912  -0.150813  0  3.938224  0
C  C58  1  0.76464747  0.63758951  0.56754215  1  0  -0.07608  0  3.710648  0  0  -0.085474  0  3.964811  0  0  -0.090671  0  3.984528  0  0  -0.074684  -0.082171  0  3.951402  0
C  C59  1  0.23535472  0.36240941  0.43245750  1  0  -0.076066  0  3.710602  0  0  -0.085445  0  3.964792  0  0  -0.090638  0  3.984502  0  0  -0.074652  -0.082144  0  3.951384  0
C  C60  1  0.62110481  0.68231389  0.57819112  1  0  0.115512  0  3.671089  0  0  0.074588  0  3.931831  0  0  0.082131  0  3.947954  0  0  0.041966  0.069348  0  3.921359  0
C  C61  1  0.37889546  0.31768750  0.42180968  1  0  0.115536  0  3.671081  0  0  0.074633  0  3.931833  0  0  0.08217  0  3.947962  0  0  0.041985  0.069393  0  3.921358  0
C  C62  1  0.61658715  0.88600073  0.09030421  1  0  0.261563  0  3.75735  0  0  0.245601  0  4.020913  0  0  0.255902  0  4.0353  0  0  0.092412  0.238358  0  4.011179  0
C  C63  1  0.38341138  0.11399817  0.90969635  1  0  0.261596  0  3.75732  0  0  0.245661  0  4.020881  0  0  0.255962  0  4.035272  0  0  0.092418  0.238418  0  4.011147  0
C  C64  1  0.56703403  0.92955711  0.18554560  1  0  -0.156967  0  3.680978  0  0  -0.152952  0  3.927643  0  0  -0.158277  0  3.943862  0  0  -0.008036  -0.149446  0  3.916962  0
C  C65  1  0.43296482  0.07044345  0.81445324  1  0  -0.157018  0  3.680989  0  0  -0.152972  0  3.927615  0  0  -0.158318  0  3.943819  0  0  -0.00805  -0.149466  0  3.916937  0
C  C66  1  0.43859164  0.86732455  0.20198417  1  0  -0.051938  0  3.739756  0  0  -0.037609  0  3.975502  0  0  -0.041609  0  3.994  0  0  -0.005656  -0.034906  0  3.962776  0
C  C67  1  0.56140635  0.13267767  0.79801575  1  0  -0.051861  0  3.739713  0  0  -0.03762  0  3.975557  0  0  -0.041557  0  3.993972  0  0  -0.005647  -0.034915  0  3.962829  0
C  C68  1  0.36608090  0.76204651  0.12634194  1  0  -0.078546  0  3.724841  0  0  -0.107705  0  3.981647  0  0  -0.107873  0  3.998528  0  0  -0.087535  -0.107432  0  3.969988  0
C  C69  1  0.63391779  0.23795322  0.87365738  1  0  -0.078569  0  3.724869  0  0  -0.107695  0  3.981697  0  0  -0.107893  0  3.998561  0  0  -0.087509  -0.107421  0  3.970036  0
C  C70  1  0.41899155  0.71973751  0.03353236  1  0  -0.054555  0  3.798836  0  0  -0.066931  0  4.053909  0  0  -0.066827  0  4.072052  0  0  -0.092243  -0.067024  0  4.041646  0
C  C71  1  0.58100486  0.28026303  0.96646758  1  0  -0.054598  0  3.798859  0  0  -0.066979  0  4.053921  0  0  -0.066876  0  4.072072  0  0  -0.092245  -0.067069  0  4.041653  0
C  C72  1  0.54244443  0.78209623  0.01388632  1  0  -0.167278  0  3.744775  0  0  -0.192342  0  4.001234  0  0  -0.195575  0  4.019111  0  0  -0.096924  -0.190083  0  3.989235  0
C  C73  1  0.45755741  0.21790103  0.98611205  1  0  -0.167282  0  3.744905  0  0  -0.192353  0  4.001367  0  0  -0.195588  0  4.019248  0  0  -0.096941  -0.190091  0  3.989361  0
C  C74  1  0.65361501  0.04210082  0.26453674  1  0  0.735317  0  3.847103  0  0  0.672981  0  4.157808  0  0  0.710019  0  4.146136  0  0  0.237655  0.647436  0  4.166936  0
C  C75  1  0.34638385  0.95789974  0.73546285  1  0  0.735219  0  3.847254  0  0  0.672958  0  4.157831  0  0  0.709993  0  4.146161  0  0  0.237657  0.647415  0  4.166959  0
C  C76  1  0.37188056  0.91090105  0.29707490  1  0  0.690447  0  3.861635  0  0  0.64484  0  4.148352  0  0  0.678775  0  4.143699  0  0  0.217746  0.62132  0  4.155269  0
C  C77  1  0.62811989  0.08910118  0.70292692  1  0  0.69046  0  3.861505  0  0  0.644872  0  4.148219  0  0  0.678798  0  4.143553  0  0  0.217678  0.621352  0  4.155137  0
C  C78  1  0.79135352  0.93408360  0.90418907  1  0  0.034355  0  3.69059  0  0  -0.007617  0  3.953118  0  0  -0.002389  0  3.968497  0  0  0.040779  -0.010964  0  3.942725  0
C  C79  1  0.20864536  0.06591695  0.09581202  1  0  0.034385  0  3.690867  0  0  -0.007559  0  3.953323  0  0  -0.002333  0  3.968705  0  0  0.040795  -0.01091  0  3.942932  0
C  C80  1  0.81804402  0.90474383  0.99929026  1  0  0.209226  0  3.804192  0  0  0.205992  0  4.066088  0  0  0.209885  0  4.084036  0  0  0.084921  0.202883  0  4.054065  0
C  C81  1  0.18195819  0.09525508  0.00071089  1  0  0.209175  0  3.804197  0  0  0.205938  0  4.066105  0  0  0.209834  0  4.08405  0  0  0.08489  0.202826  0  4.054084  0
C  C82  1  0.92891968  0.83120301  0.01838851  1  0  -0.119022  0  3.712682  0  0  -0.146081  0  3.963729  0  0  -0.145978  0  3.982603  0  0  -0.073629  -0.145706  0  3.950781  0
C  C83  1  0.07107848  0.16879422  0.98161001  1  0  -0.119086  0  3.712556  0  0  -0.146098  0  3.963578  0  0  -0.145995  0  3.98245  0  0  -0.073652  -0.145724  0  3.950633  0
C  C84  1  0.00640077  0.78694780  0.93785291  1  0  -0.109452  0  3.763176  0  0  -0.119916  0  4.013659  0  0  -0.12695  0  4.038197  0  0  -0.086657  -0.115397  0  3.997128  0
C  C85  1  0.99359544  0.21305191  0.06214376  1  0  -0.109255  0  3.762993  0  0  -0.119711  0  4.013468  0  0  -0.126736  0  4.037999  0  0  -0.086584  -0.115193  0  3.996938  0
C  C86  1  0.97172045  0.81859441  0.84385224  1  0  0.118589  0  3.717297  0  0  0.083794  0  3.972877  0  0  0.089593  0  3.99138  0  0  0.040371  0.080115  0  3.96018  0
C  C87  1  0.02827260  0.18140196  0.15614296  1  0  0.118472  0  3.717248  0  0  0.083667  0  3.97285  0  0  0.089465  0  3.991355  0  0  0.040317  0.079988  0  3.96015  0
N  N88  1  0.52543843  0.64755948  0.63260272  1  0  -0.317611  0  3.359978  0  0  -0.230156  0  3.63852  0  0  -0.249739  0  3.656066  0  0  -0.332499  -0.216865  0  3.626339  0
N  N89  1  0.47456324  0.35244275  0.36739856  1  0  -0.317638  0  3.36008  0  0  -0.230196  0  3.638636  0  0  -0.249775  0  3.656179  0  0  -0.33256  -0.216903  0  3.626451  0
N  N90  1  0.86777515  0.89146831  0.82755879  1  0  -0.289231  0  3.185299  0  0  -0.224643  0  3.434359  0  0  -0.238605  0  3.450929  0  0  -0.303773  -0.215019  0  3.422678  0
N  N91  1  0.13222389  0.10853308  0.17244182  1  0  -0.289146  0  3.185373  0  0  -0.224515  0  3.434384  0  0  -0.238475  0  3.450954  0  0  -0.303722  -0.214894  0  3.42271  0
Cl  Cl92  1  0.77362053  0.37783576  0.24309946  1  0  -0.58067  0  0.96454  0  0  -0.516611  0  1.24685  0  0  -0.5354  0  1.223389  0  0  -0.292578  -0.502975  0  1.262894  0
Cl  Cl93  1  0.22638325  0.62216483  0.75690243  1  0  -0.580707  0  0.964531  0  0  -0.516655  0  1.246852  0  0  -0.535446  0  1.22339  0  0  -0.292607  -0.503018  0  1.262897  0
O  O94  1  0.85305791  0.32023160  0.48169306  1  0  -0.602211  0  2.043683  0  0  -0.526093  0  2.310117  0  0  -0.55514  0  2.294781  0  0  -0.295706  -0.505637  0  2.31998  0
O  O95  1  0.14694323  0.67976814  0.51830590  1  0  -0.602126  0  2.043665  0  0  -0.526034  0  2.31014  0  0  -0.555081  0  2.294806  0  0  -0.295697  -0.505579  0  2.320005  0
O  O96  1  0.70017266  0.20060748  0.52677028  1  0  -0.699355  0  2.009707  0  0  -0.65322  0  2.265431  0  0  -0.682992  0  2.251947  0  0  -0.370296  -0.636388  0  2.273634  0
O  O97  1  0.29983234  0.79939311  0.47322956  1  0  -0.69937  0  2.009805  0  0  -0.653229  0  2.265531  0  0  -0.682991  0  2.25205  0  0  -0.37033  -0.636397  0  2.273736  0
O  O98  1  0.02878326  0.11083149  0.55729818  1  0  -0.819111  0  2.135649  0  0  -0.755441  0  2.395915  0  0  -0.792185  0  2.383267  0  0  -0.443229  -0.737616  0  2.403588  0
O  O99  1  0.97121822  0.88916411  0.44269891  1  0  -0.819021  0  2.13564  0  0  -0.755361  0  2.395867  0  0  -0.7921  0  2.383224  0  0  -0.443179  -0.737535  0  2.403536  0
O  O100  1  0.29241513  0.18982151  0.61854878  1  0  -0.654946  0  1.922493  0  0  -0.610149  0  2.151839  0  0  -0.638344  0  2.14204  0  0  -0.348859  -0.594238  0  2.157349  0
O  O101  1  0.70759112  0.81017908  0.38145426  1  0  -0.654916  0  1.922604  0  0  -0.610127  0  2.151943  0  0  -0.638335  0  2.142147  0  0  -0.348852  -0.594218  0  2.157453  0
O  O102  1  0.73732788  0.43832767  0.71680969  1  0  -0.290998  0  2.334671  0  0  -0.224182  0  2.555111  0  0  -0.241306  0  2.557394  0  0  -0.153585  -0.211788  0  2.553122  0
O  O103  1  0.26267449  0.56167208  0.28319023  1  0  -0.290944  0  2.334442  0  0  -0.224155  0  2.554911  0  0  -0.241262  0  2.55719  0  0  -0.153645  -0.211761  0  2.552922  0
O  O104  1  0.59440412  0.12586777  0.24613207  1  0  -0.59492  0  2.041761  0  0  -0.523556  0  2.315764  0  0  -0.551448  0  2.298371  0  0  -0.294506  -0.503995  0  2.327064  0
O  O105  1  0.40559493  0.87413362  0.75386854  1  0  -0.594892  0  2.041742  0  0  -0.523567  0  2.315718  0  0  -0.55146  0  2.298327  0  0  -0.294528  -0.504006  0  2.327019  0
O  O106  1  0.78142944  0.04505067  0.34164625  1  0  -0.738539  0  2.064997  0  0  -0.681075  0  2.315046  0  0  -0.71193  0  2.301206  0  0  -0.368377  -0.663419  0  2.323608  0
O  O107  1  0.21857294  0.95494907  0.65835442  1  0  -0.738492  0  2.065099  0  0  -0.681054  0  2.315081  0  0  -0.711894  0  2.301239  0  0  -0.368369  -0.663402  0  2.323654  0
O  O108  1  0.46718894  0.98248885  0.38851421  1  0  -0.83294  0  2.056261  0  0  -0.769652  0  2.307501  0  0  -0.806738  0  2.294848  0  0  -0.443076  -0.752158  0  2.31529  0
O  O109  1  0.53281553  0.01751506  0.61148648  1  0  -0.832955  0  2.056268  0  0  -0.769677  0  2.307524  0  0  -0.806768  0  2.29488  0  0  -0.443024  -0.752181  0  2.315312  0
O  O110  1  0.22307995  0.87965034  0.28836164  1  0  -0.646374  0  1.964229  0  0  -0.601459  0  2.196363  0  0  -0.628977  0  2.188001  0  0  -0.34267  -0.585684  0  2.201291  0
O  O111  1  0.77691873  0.12035520  0.71163860  1  0  -0.646366  0  1.964137  0  0  -0.60144  0  2.196266  0  0  -0.628972  0  2.187906  0  0  -0.342665  -0.585666  0  2.201197  0
O  O112  1  0.73764637  0.95384311  0.07630055  1  0  -0.283652  0  2.339993  0  0  -0.217478  0  2.562287  0  0  -0.234063  0  2.56516  0  0  -0.151035  -0.205546  0  2.559947  0
O  O113  1  0.26235548  0.04615414  0.92369932  1  0  -0.283628  0  2.33987  0  0  -0.217524  0  2.56222  0  0  -0.234112  0  2.565096  0  0  -0.151012  -0.205588  0  2.559882  0
O  O114  1  0.88208963  0.90875942  0.63483796  1  0  -0.927021  0  1.893608  0  0  -0.874605  0  2.099019  0  0  -0.900956  0  2.064377  0  0  -0.655366  -0.86046  0  2.120495  0
O  O115  1  0.11791081  0.09124280  0.36516311  1  0  -0.927041  0  1.893574  0  0  -0.874637  0  2.098987  0  0  -0.900975  0  2.064346  0  0  -0.655374  -0.860494  0  2.120464  0
