# generated using pymatgen
data_CdH22C26(NO2)4
_symmetry_space_group_name_H-M   'P 1'
_cell_length_a   7.90633531
_cell_length_b   12.44541997
_cell_length_c   13.64955435
_cell_angle_alpha   89.99961413
_cell_angle_beta   102.57886426
_cell_angle_gamma   90.00042758
_symmetry_Int_Tables_number   1
_chemical_formula_structural   CdH22C26(NO2)4
_chemical_formula_sum   'Cd2 H44 C52 N8 O16'
_cell_volume   1310.84642570
_cell_formula_units_Z   2
loop_
 _symmetry_equiv_pos_site_id
 _symmetry_equiv_pos_as_xyz
  1  'x, y, z'
loop_
 _atom_site_type_symbol
 _atom_site_label
 _atom_site_symmetry_multiplicity
 _atom_site_fract_x
 _atom_site_fract_y
 _atom_site_fract_z
 _atom_site_occupancy
 _atom_site_hle17_bader_spin_density
 _atom_site_hle17_ddec_charge
 _atom_site_hle17_ddec_spin_density
 _atom_site_hle17_ddec_sum_bond_order
 _atom_site_hle17_magmom
 _atom_site_hse06_10hf_bader_spin_density
 _atom_site_hse06_10hf_ddec_charge
 _atom_site_hse06_10hf_ddec_spin_density
 _atom_site_hse06_10hf_ddec_sum_bond_order
 _atom_site_hse06_10hf_magmom
 _atom_site_hse06_bader_spin_density
 _atom_site_hse06_ddec_charge
 _atom_site_hse06_ddec_spin_density
 _atom_site_hse06_ddec_sum_bond_order
 _atom_site_hse06_magmom
 _atom_site_pbe_bader_spin_density
 _atom_site_pbe_cm5_charge
 _atom_site_pbe_ddec_charge
 _atom_site_pbe_ddec_spin_density
 _atom_site_pbe_ddec_sum_bond_order
 _atom_site_pbe_magmom
Cd  Cd0  1  0.49999999  0.00000071  0.99999963  1  0  1.158672  0  1.770228  0  0  0.980358  0  2.230639  0  0  1.032728  0  2.176193  0  0  0.774609  0.943328  0  2.267742  0
Cd  Cd1  1  0.99999886  0.49999972  0.50000025  1  0  1.158722  0  1.770153  0  0  0.980409  0  2.23056  0  0  1.03278  0  2.176114  0  0  0.774616  0.94338  0  2.267667  0
H  H2  1  0.86717798  0.90367798  0.07776479  1  0  0.090218  0  0.92439  0  0  0.099861  0  0.984682  0  0  0.102871  0  0.981905  0  0  0.12162  0.097612  0  0.986765  0
H  H3  1  0.63282249  0.40367856  0.42223654  1  0  0.090254  0  0.924386  0  0  0.099894  0  0.98468  0  0  0.102907  0  0.9819  0  0  0.121629  0.097645  0  0.986764  0
H  H4  1  0.13282588  0.09631990  0.92223634  1  0  0.090231  0  0.924435  0  0  0.099869  0  0.984718  0  0  0.102877  0  0.981943  0  0  0.121604  0.097619  0  0.986802  0
H  H5  1  0.36717489  0.59632173  0.57776380  1  0  0.090242  0  0.924409  0  0  0.099882  0  0.984695  0  0  0.10289  0  0.981919  0  0  0.121616  0.097632  0  0.986778  0
H  H6  1  0.08262139  0.78797113  0.01678297  1  0  0.110896  0  0.95624  0  0  0.119457  0  1.016417  0  0  0.122959  0  1.01528  0  0  0.10984  0.116927  0  1.017469  0
H  H7  1  0.41737239  0.28797422  0.48321519  1  0  0.110868  0  0.956279  0  0  0.119439  0  1.016455  0  0  0.122942  0  1.015318  0  0  0.109839  0.116909  0  1.017506  0
H  H8  1  0.91737596  0.21202354  0.98321443  1  0  0.11088  0  0.956299  0  0  0.119449  0  1.016475  0  0  0.122949  0  1.015341  0  0  0.109853  0.116919  0  1.017525  0
H  H9  1  0.58262239  0.71202768  0.51678410  1  0  0.110907  0  0.956247  0  0  0.119467  0  1.016433  0  0  0.122969  0  1.015295  0  0  0.109851  0.116936  0  1.017483  0
H  H10  1  0.06767766  0.77824887  0.82960417  1  0  0.113327  0  0.948312  0  0  0.12227  0  1.010617  0  0  0.125136  0  1.008434  0  0  0.115165  0.120139  0  1.012207  0
H  H11  1  0.43230937  0.27825031  0.67039463  1  0  0.113322  0  0.948263  0  0  0.122247  0  1.010599  0  0  0.125114  0  1.008415  0  0  0.115146  0.120119  0  1.012193  0
H  H12  1  0.93231581  0.22174821  0.17039423  1  0  0.113345  0  0.948241  0  0  0.122278  0  1.010565  0  0  0.125144  0  1.008384  0  0  0.115177  0.120151  0  1.012159  0
H  H13  1  0.56768411  0.72174918  0.32960449  1  0  0.113325  0  0.948287  0  0  0.12225  0  1.01062  0  0  0.125115  0  1.00844  0  0  0.115155  0.120124  0  1.012212  0
H  H14  1  0.64517395  0.00533311  0.79038392  1  0  0.082707  0  0.944533  0  0  0.089386  0  1.012147  0  0  0.092086  0  1.009887  0  0  0.118977  0.087347  0  1.013889  0
H  H15  1  0.85482239  0.50532988  0.70961929  1  0  0.082716  0  0.944556  0  0  0.089385  0  1.012176  0  0  0.092092  0  1.009906  0  0  0.118994  0.087348  0  1.013916  0
H  H16  1  0.35482734  0.99466959  0.20961910  1  0  0.082711  0  0.94461  0  0  0.089383  0  1.01223  0  0  0.092091  0  1.00996  0  0  0.118988  0.087346  0  1.01397  0
H  H17  1  0.14517501  0.49466559  0.29038325  1  0  0.082744  0  0.944517  0  0  0.089399  0  1.012162  0  0  0.092115  0  1.009882  0  0  0.118989  0.087361  0  1.013905  0
H  H18  1  0.74522300  0.83828187  0.47904218  1  0  0.094293  0  1.012193  0  0  0.104928  0  1.073986  0  0  0.108052  0  1.072345  0  0  0.102204  0.102722  0  1.075199  0
H  H19  1  0.75479104  0.33828037  0.02095757  1  0  0.09436  0  1.012075  0  0  0.104962  0  1.073892  0  0  0.108076  0  1.072275  0  0  0.102214  0.102757  0  1.075101  0
H  H20  1  0.25478601  0.16171681  0.52095593  1  0  0.094383  0  1.012142  0  0  0.104969  0  1.073964  0  0  0.10808  0  1.072354  0  0  0.102226  0.102765  0  1.075172  0
H  H21  1  0.24521928  0.66171912  0.97904217  1  0  0.09433  0  1.012172  0  0  0.104951  0  1.073979  0  0  0.108075  0  1.072335  0  0  0.102209  0.102744  0  1.075189  0
H  H22  1  0.68992686  0.88858525  0.29886895  1  0  0.106251  0  0.952886  0  0  0.114953  0  1.015653  0  0  0.118999  0  1.011484  0  0  0.102589  0.111914  0  1.018831  0
H  H23  1  0.81008379  0.38858428  0.20113007  1  0  0.106245  0  0.952854  0  0  0.114949  0  1.015627  0  0  0.118994  0  1.011459  0  0  0.102615  0.111943  0  1.01877  0
H  H24  1  0.31008085  0.11141665  0.70112900  1  0  0.106257  0  0.952836  0  0  0.114941  0  1.015629  0  0  0.118986  0  1.011461  0  0  0.102611  0.111934  0  1.018772  0
H  H25  1  0.18991746  0.61141520  0.79886855  1  0  0.106272  0  0.95283  0  0  0.114943  0  1.015635  0  0  0.118987  0  1.011469  0  0  0.102607  0.111927  0  1.018789  0
H  H26  1  0.73739388  0.22237533  0.37898943  1  0  0.105304  0  0.946827  0  0  0.113952  0  1.010304  0  0  0.117379  0  1.00712  0  0  0.104976  0.111436  0  1.012679  0
H  H27  1  0.76260086  0.72237473  0.12100791  1  0  0.1053  0  0.946839  0  0  0.113922  0  1.010349  0  0  0.117348  0  1.007166  0  0  0.104955  0.111407  0  1.012723  0
H  H28  1  0.26260350  0.77762577  0.62101091  1  0  0.105308  0  0.946862  0  0  0.113939  0  1.01035  0  0  0.117365  0  1.007168  0  0  0.104975  0.111424  0  1.012725  0
H  H29  1  0.23739651  0.27762717  0.87899096  1  0  0.105298  0  0.946876  0  0  0.113927  0  1.010374  0  0  0.117353  0  1.00719  0  0  0.104974  0.111411  0  1.012747  0
H  H30  1  0.80373539  0.17359302  0.55907702  1  0  0.106089  0  0.952171  0  0  0.117813  0  1.009747  0  0  0.121067  0  1.008608  0  0  0.103533  0.115462  0  1.010725  0
H  H31  1  0.69625868  0.67359297  0.94091901  1  0  0.106072  0  0.95214  0  0  0.117805  0  1.009708  0  0  0.121059  0  1.008569  0  0  0.10354  0.115432  0  1.010709  0
H  H32  1  0.19625939  0.82640647  0.44092153  1  0  0.106094  0  0.952101  0  0  0.117823  0  1.009671  0  0  0.121077  0  1.008531  0  0  0.103528  0.115451  0  1.010676  0
H  H33  1  0.30374516  0.32640732  0.05907992  1  0  0.10612  0  0.952142  0  0  0.117846  0  1.009717  0  0  0.121101  0  1.008574  0  0  0.103557  0.115473  0  1.01072  0
H  H34  1  0.82629353  0.04686649  0.67916698  1  0  0.296881  0  0.865842  0  0  0.289795  0  0.911303  0  0  0.295916  0  0.907396  0  0  0.331093  0.285488  0  0.91408  0
H  H35  1  0.67370317  0.54686401  0.82083162  1  0  0.29688  0  0.865843  0  0  0.289794  0  0.911296  0  0  0.295913  0  0.907391  0  0  0.331083  0.285492  0  0.914072  0
H  H36  1  0.17370511  0.95313541  0.32082985  1  0  0.296925  0  0.865823  0  0  0.289825  0  0.911293  0  0  0.295942  0  0.907389  0  0  0.331092  0.28552  0  0.91407  0
H  H37  1  0.32629549  0.45313388  0.17916741  1  0  0.29687  0  0.865838  0  0  0.28979  0  0.911293  0  0  0.295909  0  0.907388  0  0  0.331086  0.285488  0  0.914069  0
H  H38  1  0.57484617  0.19824833  0.06944221  1  0  0.411289  0  0.902731  0  0  0.377433  0  0.972333  0  0  0.38977  0  0.954526  0  0  0.277305  0.36875  0  0.984824  0
H  H39  1  0.92515355  0.69824783  0.43055956  1  0  0.411307  0  0.902706  0  0  0.377449  0  0.97231  0  0  0.389784  0  0.954505  0  0  0.277313  0.368767  0  0.984798  0
H  H40  1  0.42515252  0.80175035  0.93055902  1  0  0.411287  0  0.902733  0  0  0.377447  0  0.972307  0  0  0.389782  0  0.954502  0  0  0.277326  0.368763  0  0.984799  0
H  H41  1  0.07484513  0.30175166  0.56944167  1  0  0.411277  0  0.902752  0  0  0.377416  0  0.97236  0  0  0.389751  0  0.954557  0  0  0.277294  0.368733  0  0.984851  0
H  H42  1  0.57012504  0.22719227  0.95121256  1  0  0.425409  0  0.873467  0  0  0.39575  0  0.935471  0  0  0.406132  0  0.920265  0  0  0.290957  0.388401  0  0.94622  0
H  H43  1  0.92987479  0.72719139  0.54878899  1  0  0.42538  0  0.87351  0  0  0.39571  0  0.935534  0  0  0.406092  0  0.920328  0  0  0.290929  0.38836  0  0.946284  0
H  H44  1  0.42987493  0.77280802  0.04878883  1  0  0.425372  0  0.873519  0  0  0.395701  0  0.935545  0  0  0.406083  0  0.920339  0  0  0.290925  0.388352  0  0.946294  0
H  H45  1  0.07012390  0.27280810  0.45121298  1  0  0.425415  0  0.873465  0  0  0.395751  0  0.935479  0  0  0.406134  0  0.920272  0  0  0.290955  0.388402  0  0.946229  0
C  C46  1  0.86955070  0.89872418  0.99815430  1  0  0.143848  0  3.681114  0  0  0.109147  0  3.937652  0  0  0.11728  0  3.95488  0  0  0.056894  0.10404  0  3.925735  0
C  C47  1  0.63044826  0.39872464  0.50184829  1  0  0.1438  0  3.680954  0  0  0.109112  0  3.937487  0  0  0.117241  0  3.954714  0  0  0.056877  0.104005  0  3.925571  0
C  C48  1  0.13045187  0.10127370  0.00184668  1  0  0.143784  0  3.681129  0  0  0.109121  0  3.937633  0  0  0.117254  0  3.954861  0  0  0.056916  0.104014  0  3.925713  0
C  C49  1  0.36954783  0.60127405  0.49815263  1  0  0.143793  0  3.680996  0  0  0.109113  0  3.9375  0  0  0.117246  0  3.954727  0  0  0.056891  0.104008  0  3.925583  0
C  C50  1  0.98762031  0.83394092  0.96325680  1  0  -0.110577  0  3.708627  0  0  -0.121948  0  3.966044  0  0  -0.129875  0  3.98687  0  0  -0.076395  -0.116979  0  3.952065  0
C  C51  1  0.51237280  0.33394216  0.53674400  1  0  -0.110551  0  3.70855  0  0  -0.121941  0  3.965978  0  0  -0.129867  0  3.986798  0  0  -0.076415  -0.116971  0  3.952001  0
C  C52  1  0.01237835  0.16605616  0.03674223  1  0  -0.110536  0  3.708589  0  0  -0.121934  0  3.966017  0  0  -0.12986  0  3.986839  0  0  -0.0764  -0.116965  0  3.952038  0
C  C53  1  0.48762069  0.66605732  0.46325586  1  0  -0.110576  0  3.708627  0  0  -0.121963  0  3.966053  0  0  -0.129891  0  3.986877  0  0  -0.076403  -0.116992  0  3.952075  0
C  C54  1  0.97937036  0.82877713  0.86044391  1  0  -0.002461  0  3.657486  0  0  -0.033797  0  3.906399  0  0  -0.027934  0  3.922504  0  0  -0.054863  -0.037263  0  3.895436  0
C  C55  1  0.52062271  0.32877766  0.63955764  1  0  -0.002446  0  3.657391  0  0  -0.033757  0  3.906347  0  0  -0.027892  0  3.922448  0  0  -0.054848  -0.037231  0  3.89539  0
C  C56  1  0.02062830  0.17122156  0.13955512  1  0  -0.00242  0  3.657443  0  0  -0.033754  0  3.906384  0  0  -0.027889  0  3.922485  0  0  -0.054859  -0.037227  0  3.895426  0
C  C57  1  0.47937208  0.67122264  0.36044311  1  0  -0.002415  0  3.6575  0  0  -0.033744  0  3.906434  0  0  -0.027879  0  3.922536  0  0  -0.054832  -0.037217  0  3.895479  0
C  C58  1  0.85793444  0.89288982  0.79590334  1  0  -0.111076  0  3.761478  0  0  -0.087774  0  4.002837  0  0  -0.098836  0  4.025601  0  0  -0.008321  -0.080844  0  3.987615  0
C  C59  1  0.64205797  0.39288964  0.70409701  1  0  -0.111166  0  3.761636  0  0  -0.087922  0  4.003087  0  0  -0.098987  0  4.025856  0  0  -0.008358  -0.080988  0  3.987867  0
C  C60  1  0.14206552  0.10711288  0.20409658  1  0  -0.111174  0  3.761606  0  0  -0.087849  0  4.00297  0  0  -0.098913  0  4.025736  0  0  -0.008356  -0.080917  0  3.987753  0
C  C61  1  0.35793424  0.60711065  0.29590343  1  0  -0.111125  0  3.761616  0  0  -0.087786  0  4.002962  0  0  -0.098851  0  4.025729  0  0  -0.008327  -0.080852  0  3.987747  0
C  C62  1  0.74613469  0.95675145  0.83759740  1  0  0.101687  0  3.706064  0  0  0.062513  0  3.9562  0  0  0.070899  0  3.973561  0  0  0.04919  0.056756  0  3.945239  0
C  C63  1  0.75386356  0.45674809  0.66240620  1  0  0.101717  0  3.706082  0  0  0.062567  0  3.956236  0  0  0.070947  0  3.9736  0  0  0.049189  0.056808  0  3.945278  0
C  C64  1  0.25386918  0.04325125  0.16240520  1  0  0.101693  0  3.706133  0  0  0.062513  0  3.956276  0  0  0.070892  0  3.973635  0  0  0.0492  0.056756  0  3.945317  0
C  C65  1  0.24613254  0.54324899  0.33759544  1  0  0.101685  0  3.70615  0  0  0.062508  0  3.956281  0  0  0.070881  0  3.973643  0  0  0.049183  0.056754  0  3.945321  0
C  C66  1  0.83817006  0.88460762  0.68459476  1  0  0.563995  0  3.81395  0  0  0.513856  0  4.105597  0  0  0.544164  0  4.10445  0  0  0.25165  0.493574  0  4.105706  0
C  C67  1  0.66182614  0.38460511  0.81540537  1  0  0.564091  0  3.813972  0  0  0.513987  0  4.105576  0  0  0.544291  0  4.104431  0  0  0.25171  0.493704  0  4.10569  0
C  C68  1  0.16182730  0.11539268  0.31540411  1  0  0.564072  0  3.813913  0  0  0.513899  0  4.105593  0  0  0.544201  0  4.104439  0  0  0.251649  0.493611  0  4.10572  0
C  C69  1  0.33817254  0.61539358  0.18459586  1  0  0.564098  0  3.813973  0  0  0.513911  0  4.105678  0  0  0.544222  0  4.104525  0  0  0.251661  0.493618  0  4.105812  0
C  C70  1  0.77599057  0.00228425  0.53125182  1  0  0.26326  0  3.779499  0  0  0.25739  0  4.02755  0  0  0.266822  0  4.048484  0  0  0.098281  0.251221  0  4.013193  0
C  C71  1  0.72401216  0.50228654  0.96874707  1  0  0.263225  0  3.779601  0  0  0.257379  0  4.027599  0  0  0.266814  0  4.048531  0  0  0.098286  0.251211  0  4.013242  0
C  C72  1  0.22401067  0.99771524  0.46874680  1  0  0.263345  0  3.779523  0  0  0.257333  0  4.027731  0  0  0.266758  0  4.048662  0  0  0.098313  0.251166  0  4.013369  0
C  C73  1  0.27599296  0.49771536  0.03125129  1  0  0.263228  0  3.77949  0  0  0.25737  0  4.027524  0  0  0.266802  0  4.048458  0  0  0.098266  0.2512  0  4.013168  0
C  C74  1  0.74325781  0.92195851  0.45743000  1  0  -0.164174  0  3.735731  0  0  -0.183624  0  3.983934  0  0  -0.190487  0  4.005782  0  0  -0.10122  -0.17914  0  3.969155  0
C  C75  1  0.75675576  0.42195927  0.04256917  1  0  -0.164208  0  3.735697  0  0  -0.18364  0  3.983916  0  0  -0.190505  0  4.005756  0  0  -0.101208  -0.179156  0  3.969147  0
C  C76  1  0.25675379  0.07804097  0.54256843  1  0  -0.164309  0  3.735799  0  0  -0.183663  0  3.984042  0  0  -0.190528  0  4.005882  0  0  -0.101256  -0.179181  0  3.969273  0
C  C77  1  0.24325325  0.57804263  0.95742967  1  0  -0.164179  0  3.73565  0  0  -0.183621  0  3.983831  0  0  -0.190483  0  4.005677  0  0  -0.101186  -0.179136  0  3.96906  0
C  C78  1  0.71067496  0.95052675  0.35670514  1  0  -0.059428  0  3.752926  0  0  -0.083891  0  4.003731  0  0  -0.081588  0  4.02313  0  0  -0.090376  -0.085028  0  3.990488  0
C  C79  1  0.78932984  0.45052772  0.14329425  1  0  -0.059412  0  3.752955  0  0  -0.083874  0  4.003761  0  0  -0.081568  0  4.023159  0  0  -0.090416  -0.085038  0  3.990504  0
C  C80  1  0.28933147  0.04947435  0.64329412  1  0  -0.059428  0  3.752866  0  0  -0.083845  0  4.003661  0  0  -0.08154  0  4.023058  0  0  -0.090417  -0.08501  0  3.990402  0
C  C81  1  0.21067271  0.54947418  0.85670526  1  0  -0.059431  0  3.752873  0  0  -0.083844  0  4.00368  0  0  -0.081539  0  4.02308  0  0  -0.090409  -0.085001  0  3.990427  0
C  C82  1  0.70639636  0.05864614  0.32726147  1  0  -0.091898  0  3.781509  0  0  -0.072511  0  4.022716  0  0  -0.083578  0  4.048698  0  0  -0.032802  -0.065394  0  4.005147  0
C  C83  1  0.79360066  0.55864450  0.17273863  1  0  -0.091955  0  3.781588  0  0  -0.072554  0  4.02279  0  0  -0.083623  0  4.048772  0  0  -0.032824  -0.065437  0  4.005233  0
C  C84  1  0.29360748  0.94135576  0.67273747  1  0  -0.091875  0  3.781431  0  0  -0.072563  0  4.022728  0  0  -0.083632  0  4.048711  0  0  -0.032769  -0.065445  0  4.005165  0
C  C85  1  0.20639672  0.44135579  0.82726171  1  0  -0.091933  0  3.781531  0  0  -0.072601  0  4.022802  0  0  -0.08367  0  4.048785  0  0  -0.032802  -0.065483  0  4.005238  0
C  C86  1  0.73768140  0.13838692  0.40135290  1  0  -0.042606  0  3.743628  0  0  -0.067897  0  3.994152  0  0  -0.065315  0  4.014254  0  0  -0.084554  -0.069275  0  3.980397  0
C  C87  1  0.76231640  0.63838648  0.09864680  1  0  -0.042569  0  3.74366  0  0  -0.067843  0  3.994177  0  0  -0.065263  0  4.014288  0  0  -0.084492  -0.069219  0  3.980415  0
C  C88  1  0.26231986  0.86161337  0.59864719  1  0  -0.042595  0  3.74362  0  0  -0.067843  0  3.994144  0  0  -0.065263  0  4.014253  0  0  -0.084538  -0.06922  0  3.980382  0
C  C89  1  0.23768486  0.36161381  0.90135402  1  0  -0.04254  0  3.743697  0  0  -0.067797  0  3.994221  0  0  -0.065216  0  4.014329  0  0  -0.084519  -0.069173  0  3.980456  0
C  C90  1  0.77381483  0.11064550  0.50234367  1  0  -0.174999  0  3.735504  0  0  -0.193727  0  3.989139  0  0  -0.200887  0  4.010593  0  0  -0.097748  -0.189015  0  3.974639  0
C  C91  1  0.72618511  0.61064598  0.99765568  1  0  -0.174992  0  3.735546  0  0  -0.193733  0  3.989174  0  0  -0.200895  0  4.010629  0  0  -0.097785  -0.189002  0  3.974682  0
C  C92  1  0.22618643  0.88935479  0.49765569  1  0  -0.175042  0  3.735449  0  0  -0.193724  0  3.989105  0  0  -0.200885  0  4.01056  0  0  -0.097762  -0.188995  0  3.974614  0
C  C93  1  0.27382003  0.38935512  0.00234415  1  0  -0.175073  0  3.735617  0  0  -0.193812  0  3.989253  0  0  -0.200973  0  4.010707  0  0  -0.097802  -0.18908  0  3.974761  0
C  C94  1  0.66803485  0.08667604  0.21771411  1  0  0.631034  0  3.954663  0  0  0.578726  0  4.258953  0  0  0.612648  0  4.253449  0  0  0.193656  0.555819  0  4.261735  0
C  C95  1  0.83196373  0.58667297  0.28228527  1  0  0.631167  0  3.954773  0  0  0.578833  0  4.25909  0  0  0.612757  0  4.253582  0  0  0.193685  0.555926  0  4.261878  0
C  C96  1  0.33196771  0.91332586  0.78228614  1  0  0.631052  0  3.95481  0  0  0.578761  0  4.259114  0  0  0.612686  0  4.253609  0  0  0.193647  0.555853  0  4.261895  0
C  C97  1  0.16803235  0.41332732  0.71771490  1  0  0.631132  0  3.954786  0  0  0.578836  0  4.259079  0  0  0.612759  0  4.253573  0  0  0.193698  0.555928  0  4.261864  0
N  N98  1  0.75002134  0.95806242  0.93628132  1  0  -0.330128  0  3.251767  0  0  -0.256265  0  3.519119  0  0  -0.275439  0  3.536906  0  0  -0.327916  -0.243155  0  3.506594  0
N  N99  1  0.74997951  0.45806058  0.56372260  1  0  -0.330088  0  3.25159  0  0  -0.256223  0  3.518925  0  0  -0.275398  0  3.536715  0  0  -0.327855  -0.243113  0  3.506405  0
N  N100  1  0.24998382  0.04193868  0.06372145  1  0  -0.330063  0  3.251729  0  0  -0.256204  0  3.519057  0  0  -0.275379  0  3.536848  0  0  -0.327898  -0.243094  0  3.506532  0
N  N101  1  0.25001658  0.54193731  0.43627831  1  0  -0.330135  0  3.251691  0  0  -0.256254  0  3.519006  0  0  -0.27543  0  3.536799  0  0  -0.327888  -0.243143  0  3.506484  0
N  N102  1  0.81126097  0.98036746  0.63485329  1  0  -0.42813  0  3.346476  0  0  -0.375223  0  3.581003  0  0  -0.396833  0  3.589928  0  0  -0.382607  -0.360524  0  3.574436  0
N  N103  1  0.68873748  0.48036632  0.86514580  1  0  -0.428217  0  3.346485  0  0  -0.375301  0  3.580987  0  0  -0.396907  0  3.589911  0  0  -0.382646  -0.360608  0  3.574427  0
N  N104  1  0.18873899  0.01963283  0.36514591  1  0  -0.42823  0  3.346374  0  0  -0.375233  0  3.580924  0  0  -0.396824  0  3.589838  0  0  -0.382634  -0.360539  0  3.574365  0
N  N105  1  0.31126507  0.51963397  0.13485371  1  0  -0.428167  0  3.346385  0  0  -0.37525  0  3.580926  0  0  -0.396859  0  3.58985  0  0  -0.382624  -0.360553  0  3.574371  0
O  O106  1  0.51391459  0.18639302  0.99703213  1  0  -0.854991  0  1.902885  0  0  -0.792411  0  2.100709  0  0  -0.815556  0  2.067149  0  0  -0.594009  -0.775943  0  2.123918  0
O  O107  1  0.98608482  0.68639435  0.50296888  1  0  -0.854985  0  1.902902  0  0  -0.792416  0  2.100768  0  0  -0.815562  0  2.067208  0  0  -0.593995  -0.775946  0  2.123981  0
O  O108  1  0.48608408  0.81360647  0.00296837  1  0  -0.854972  0  1.902937  0  0  -0.792405  0  2.100773  0  0  -0.81555  0  2.067214  0  0  -0.59401  -0.775937  0  2.123982  0
O  O109  1  0.01391386  0.31360514  0.49703235  1  0  -0.855009  0  1.902862  0  0  -0.792441  0  2.100715  0  0  -0.815584  0  2.067156  0  0  -0.594025  -0.775973  0  2.123929  0
O  O110  1  0.66370091  0.00645075  0.15805758  1  0  -0.673811  0  2.024749  0  0  -0.609169  0  2.284276  0  0  -0.638008  0  2.272572  0  0  -0.348525  -0.588839  0  2.29144  0
O  O111  1  0.83629686  0.50644325  0.34194000  1  0  -0.673948  0  2.024685  0  0  -0.609293  0  2.284211  0  0  -0.638132  0  2.272504  0  0  -0.348543  -0.588963  0  2.291384  0
O  O112  1  0.33630034  0.99355356  0.84194104  1  0  -0.673875  0  2.024788  0  0  -0.609226  0  2.284293  0  0  -0.638066  0  2.272587  0  0  -0.34851  -0.588898  0  2.291463  0
O  O113  1  0.16369792  0.49355463  0.65805929  1  0  -0.673902  0  2.024764  0  0  -0.609256  0  2.284268  0  0  -0.638095  0  2.272562  0  0  -0.348529  -0.588926  0  2.291438  0
O  O114  1  0.64157384  0.18432645  0.19178795  1  0  -0.631832  0  1.930328  0  0  -0.579499  0  2.147533  0  0  -0.603767  0  2.137452  0  0  -0.33155  -0.562564  0  2.153912  0
O  O115  1  0.85842703  0.68432171  0.30821332  1  0  -0.631824  0  1.930469  0  0  -0.579471  0  2.147672  0  0  -0.603739  0  2.137587  0  0  -0.331543  -0.562535  0  2.154049  0
O  O116  1  0.35842872  0.81567545  0.80821230  1  0  -0.631827  0  1.93045  0  0  -0.579495  0  2.147628  0  0  -0.603763  0  2.137546  0  0  -0.331583  -0.56256  0  2.154004  0
O  O117  1  0.14157166  0.31567697  0.69178865  1  0  -0.631863  0  1.930497  0  0  -0.579508  0  2.147678  0  0  -0.603774  0  2.137593  0  0  -0.331586  -0.562571  0  2.154057  0
O  O118  1  0.84324283  0.79513390  0.64448650  1  0  -0.549702  0  1.936726  0  0  -0.499656  0  2.14866  0  0  -0.520417  0  2.140344  0  0  -0.284355  -0.485299  0  2.153972  0
O  O119  1  0.65675250  0.29513348  0.85551481  1  0  -0.549697  0  1.936798  0  0  -0.499678  0  2.148723  0  0  -0.520434  0  2.140408  0  0  -0.284376  -0.485319  0  2.154035  0
O  O120  1  0.15675455  0.20486800  0.35551311  1  0  -0.549748  0  1.936726  0  0  -0.499697  0  2.148674  0  0  -0.520456  0  2.140359  0  0  -0.284352  -0.485333  0  2.153987  0
O  O121  1  0.34324359  0.70486761  0.14448610  1  0  -0.549752  0  1.936724  0  0  -0.499691  0  2.148676  0  0  -0.520452  0  2.140358  0  0  -0.28436  -0.485326  0  2.153994  0
