# generated using pymatgen
data_SrCu2H12C16O13
_symmetry_space_group_name_H-M   'P 1'
_cell_length_a   6.58455631
_cell_length_b   11.64272005
_cell_length_c   12.99034082
_cell_angle_alpha   99.39860727
_cell_angle_beta   96.79074789
_cell_angle_gamma   92.27039444
_symmetry_Int_Tables_number   1
_chemical_formula_structural   SrCu2H12C16O13
_chemical_formula_sum   'Sr2 Cu4 H24 C32 O26'
_cell_volume   973.83999805
_cell_formula_units_Z   2
loop_
 _symmetry_equiv_pos_site_id
 _symmetry_equiv_pos_as_xyz
  1  'x, y, z'
loop_
 _atom_site_type_symbol
 _atom_site_label
 _atom_site_symmetry_multiplicity
 _atom_site_fract_x
 _atom_site_fract_y
 _atom_site_fract_z
 _atom_site_occupancy
 _atom_site_hle17_ddec_charge
 _atom_site_hle17_ddec_spin_density
 _atom_site_hle17_ddec_sum_bond_order
 _atom_site_hle17_magmom
 _atom_site_hse06_10hf_ddec_charge
 _atom_site_hse06_10hf_ddec_spin_density
 _atom_site_hse06_10hf_ddec_sum_bond_order
 _atom_site_hse06_10hf_magmom
 _atom_site_hse06_ddec_charge
 _atom_site_hse06_ddec_spin_density
 _atom_site_hse06_ddec_sum_bond_order
 _atom_site_hse06_magmom
 _atom_site_pbe_cm5_charge
 _atom_site_pbe_ddec_charge
 _atom_site_pbe_ddec_spin_density
 _atom_site_pbe_ddec_sum_bond_order
 _atom_site_pbe_magmom
Sr  Sr0  1  0.66127907  0.50680873  0.85871051  1  1.641524  0.000168  1.040467  0.0  1.504064  0.000323  1.403203  0.0  1.540492  3.7e-05  1.357668  0.0  0.925441  1.477449  0.000472  1.435165  0.0
Sr  Sr1  1  0.33872858  0.49319561  0.14128574  1  1.641477  0.000141  1.040484  0.0  1.504053  0.000317  1.403181  0.0  1.540484  3.9e-05  1.357648  0.0  0.925406  1.477426  0.000472  1.435145  0.0
Cu  Cu2  1  0.23695856  0.92613920  0.97982331  1  0.979507  -0.558264  1.811161  -0.413  0.984177  -0.749303  2.232469  -0.607  1.089138  -0.854055  2.145631  -0.716  0.701103  0.905057  -0.562376  2.302432  -0.447
Cu  Cu3  1  0.76305438  0.07387294  0.02017988  1  0.97949  -0.558298  1.811043  -0.413  0.984062  -0.749285  2.232425  -0.607  1.089  -0.854043  2.145672  -0.716  0.701043  0.904908  -0.562424  2.302434  -0.447
Cu  Cu4  1  0.28046312  0.18571275  0.05496422  1  0.980794  0.572993  1.802259  0.431  0.98867  0.755567  2.206252  0.616  1.089252  0.858688  2.130419  0.723  0.720268  0.90377  0.571474  2.279313  0.459
Cu  Cu5  1  0.71954701  0.81430116  0.94503674  1  0.980887  0.573024  1.802341  0.431  0.988817  0.7556  2.206286  0.616  1.089292  0.858706  2.130586  0.723  0.72036  0.903901  0.571498  2.27942  0.459
H  H6  1  0.56412081  0.80602703  0.33097570  1  0.09714  0.000277  0.944873  0.0  0.108129  0.000244  1.001805  0.0  0.111458  0.000177  0.998848  0.0  0.110079  0.105931  0.000223  1.003756  0.0
H  H7  1  0.43586803  0.19397548  0.66902903  1  0.097098  0.000276  0.944821  0.0  0.108092  0.000244  1.001755  0.0  0.111423  0.000177  0.99879  0.0  0.110071  0.105894  0.000223  1.003705  0.0
H  H8  1  0.66985582  0.97518085  0.47456121  1  0.089771  -5e-06  0.983054  0.0  0.101493  1.4e-05  1.043248  0.0  0.103628  1e-05  1.043847  0.0  0.09997  0.099977  1.3e-05  1.042954  0.0
H  H9  1  0.33010998  0.02482163  0.52544583  1  0.089653  -9e-06  0.983211  0.0  0.101384  1.4e-05  1.0434  0.0  0.103518  1e-05  1.044  0.0  0.099959  0.099868  1.3e-05  1.043107  0.0
H  H10  1  0.63074421  0.17803428  0.43474954  1  0.103749  -0.000111  0.943534  0.0  0.11368  -0.000154  1.002345  0.0  0.117292  -0.000138  0.998551  0.0  0.110568  0.11131  -0.000118  1.00501  0.0
H  H11  1  0.36921357  0.82196471  0.56525643  1  0.103842  -0.000112  0.943528  0.0  0.113751  -0.000154  1.002365  0.0  0.117367  -0.000138  0.998562  0.0  0.110575  0.111385  -0.000118  1.005027  0.0
H  H12  1  0.90770013  0.93656928  0.59722015  1  0.09742  0.000154  0.95035  0.0  0.107694  0.000168  1.012722  0.0  0.110789  0.000144  1.009776  0.0  0.10745  0.105643  0.000122  1.014663  0.0
H  H13  1  0.09227367  0.06342270  0.40278812  1  0.09748  0.000156  0.950377  0.0  0.107744  0.000168  1.012777  0.0  0.110838  0.000144  1.009829  0.0  0.107468  0.105695  0.000122  1.014715  0.0
H  H14  1  0.87982152  0.14030335  0.55671264  1  0.095602  -3.1e-05  0.960148  0.0  0.10896  -7e-06  1.016295  0.0  0.111722  -3e-06  1.01573  0.0  0.104053  0.106941  -1e-05  1.016901  0.0
H  H15  1  0.12015844  0.85968698  0.44328732  1  0.095517  -3.5e-05  0.96016  0.0  0.108888  -7e-06  1.016289  0.0  0.111632  -3e-06  1.015744  0.0  0.103976  0.106867  -1e-05  1.016898  0.0
H  H16  1  0.95799600  0.30847618  0.70397038  1  0.101476  -0.000267  0.94444  0.0  0.113554  -0.000261  1.001081  0.0  0.11678  -0.000192  0.997952  0.0  0.11781  0.111448  -0.000252  1.003252  0.0
H  H17  1  0.04200768  0.69151945  0.29602350  1  0.101463  -0.000267  0.944452  0.0  0.113567  -0.000261  1.001054  0.0  0.116792  -0.000192  0.997924  0.0  0.117841  0.111462  -0.000252  1.003229  0.0
H  H18  1  0.05063855  0.53159023  0.72997144  1  0.42142  -3e-06  0.867838  0.0  0.394611  -3e-06  0.924667  0.0  0.404496  -3e-06  0.90983  0.0  0.297399  0.387446  -1e-06  0.935464  0.0
H  H19  1  0.94937501  0.46841236  0.27002570  1  0.421309  -3e-06  0.868015  0.0  0.394555  -3e-06  0.924742  0.0  0.404441  -3e-06  0.909906  0.0  0.297381  0.38739  -1e-06  0.935537  0.0
H  H20  1  0.93305138  0.64552961  0.72008130  1  0.432322  0.000131  0.864666  0.0  0.400756  4.5e-05  0.928771  0.0  0.413089  3e-05  0.910581  0.0  0.289009  0.392004  3.7e-05  0.941644  0.0
H  H21  1  0.06695751  0.35447295  0.27991861  1  0.432351  0.00013  0.864611  0.0  0.400777  4.5e-05  0.928729  0.0  0.413108  3e-05  0.910541  0.0  0.289026  0.392022  3.7e-05  0.941605  0.0
H  H22  1  0.31010089  0.64913868  0.97045580  1  0.437069  -6.6e-05  0.8565  0.0  0.408219  -9.9e-05  0.916712  0.0  0.419085  -3.5e-05  0.900678  0.0  0.30865  0.400585  -0.000128  0.9279  0.0
H  H23  1  0.68991187  0.35087088  0.02954313  1  0.437139  -6.4e-05  0.856404  0.0  0.408296  -9.9e-05  0.916596  0.0  0.419159  -3.5e-05  0.900565  0.0  0.308707  0.400664  -0.000128  0.927778  0.0
H  H24  1  0.19810866  0.52488270  0.91672139  1  0.428412  -6.9e-05  0.869974  0.0  0.399086  -3.8e-05  0.931251  0.0  0.410112  -2.8e-05  0.915011  0.0  0.312953  0.39122  -3.4e-05  0.942873  0.0
H  H25  1  0.80190397  0.47512514  0.08327496  1  0.428384  -6.8e-05  0.870019  0.0  0.399094  -3.8e-05  0.931233  0.0  0.410119  -2.8e-05  0.914994  0.0  0.312976  0.391229  -3.4e-05  0.942851  0.0
H  H26  1  0.37795436  0.55297214  0.67858689  1  0.419307  -9.2e-05  0.895416  0.0  0.386113  -2.9e-05  0.961744  0.0  0.39907  -2.2e-05  0.942961  0.0  0.290719  0.37705  -2.1e-05  0.974894  0.0
H  H27  1  0.62208070  0.44702964  0.32140462  1  0.419254  -9.2e-05  0.895545  0.0  0.386027  -2.9e-05  0.961901  0.0  0.398981  -2.2e-05  0.94311  0.0  0.290692  0.376963  -2e-05  0.975055  0.0
H  H28  1  0.33873312  0.41434347  0.64810088  1  0.417716  -1.4e-05  0.833119  0.0  0.407857  -7e-06  0.875767  0.0  0.414947  -4e-06  0.865678  0.0  0.328635  0.402695  -7e-06  0.882003  0.0
H  H29  1  0.66130633  0.58565655  0.35189143  1  0.417623  -1e-05  0.833255  0.0  0.407791  -7e-06  0.875858  0.0  0.414877  -4e-06  0.865779  0.0  0.328611  0.402628  -7e-06  0.882112  0.0
C  C30  1  0.44528579  0.02480359  0.19423750  1  0.339611  -0.000128  3.784548  -0.001  0.31992  0.000238  4.054273  0.0  0.341408  0.000171  4.073245  0.0  0.087093  0.304013  0.000199  4.039817  0.0
C  C31  1  0.55471389  0.97519980  0.80576655  1  0.339774  -0.00012  3.784623  -0.001  0.320045  0.000239  4.054414  0.0  0.341541  0.000178  4.073369  0.0  0.087114  0.304133  0.000201  4.039957  0.0
C  C32  1  0.46917513  0.90984606  0.21582735  1  -0.217019  0.003817  3.735012  0.004  -0.197051  0.002743  3.9693  0.003  -0.215142  0.002259  3.995337  0.003  -0.040764  -0.18525  0.002404  3.952581  0.003
C  C33  1  0.53082293  0.09015646  0.78417645  1  -0.217084  0.003815  3.73498  0.004  -0.197164  0.002744  3.96934  0.003  -0.21526  0.002256  3.995376  0.003  -0.040726  -0.185354  0.002405  3.952612  0.003
C  C34  1  0.54858424  0.89517697  0.31735805  1  -0.004964  -0.000171  3.747463  0.0  -0.030743  0.000338  3.994471  0.0  -0.02442  0.000336  4.013107  0.0  -0.069483  -0.034672  0.000211  3.981689  0.0
C  C35  1  0.45140274  0.10482207  0.68264448  1  -0.004827  -0.000165  3.74721  0.0  -0.030571  0.000337  3.994201  0.0  -0.024248  0.000338  4.012839  0.0  -0.069487  -0.034495  0.000211  3.981406  0.0
C  C36  1  0.60769099  0.98923045  0.39671680  1  -0.116178  0.0006  3.818264  0.001  -0.128732  0.000144  4.074892  0.0  -0.136802  7.9e-05  4.097686  0.0  -0.104704  -0.123672  0.000156  4.059636  0.0
C  C37  1  0.39227910  0.01076857  0.60328768  1  -0.116043  0.000603  3.818267  0.001  -0.128649  0.000144  4.074926  0.0  -0.13672  7.7e-05  4.097722  0.0  -0.104642  -0.123582  0.000156  4.05966  0.0
C  C38  1  0.58567726  0.10112286  0.37512923  1  -0.008874  -0.000285  3.720191  0.0  -0.038113  -0.000328  3.974594  -0.001  -0.030644  -0.000362  3.989675  -0.001  -0.071114  -0.043093  -0.000193  3.964473  0.0
C  C39  1  0.41429584  0.89887614  0.62487699  1  -0.009074  -0.000279  3.720227  0.0  -0.03829  -0.000329  3.974594  -0.001  -0.030819  -0.00036  3.98967  -0.001  -0.071189  -0.043274  -0.000193  3.964467  0.0
C  C40  1  0.50640742  0.12174496  0.27541274  1  -0.203752  -0.00176  3.708501  -0.002  -0.187428  -0.001868  3.950938  -0.002  -0.203741  -0.00176  3.973342  -0.002  -0.032664  -0.176367  -0.001541  3.935972  -0.002
C  C41  1  0.49359079  0.87825928  0.72459288  1  -0.203846  -0.001763  3.708733  -0.002  -0.187434  -0.001866  3.950885  -0.002  -0.203744  -0.001762  3.973284  -0.002  -0.032666  -0.176406  -0.00154  3.93602  -0.002
C  C42  1  0.41776180  0.79963607  0.13918293  1  0.677368  0.001161  3.858031  0.003  0.629243  -0.001162  4.158399  0.0  0.667996  -0.001076  4.15027  0.0  0.217955  0.602065  -0.001036  4.163251  0.0
C  C43  1  0.58223913  0.20036387  0.86081759  1  0.677345  0.001157  3.858309  0.003  0.629221  -0.001164  4.158679  0.0  0.667978  -0.001076  4.15055  0.0  0.217911  0.602041  -0.001037  4.163526  0.0
C  C44  1  0.49831620  0.24750615  0.26512128  1  0.699038  -0.002194  3.810345  -0.004  0.652797  0.000631  4.10261  -0.001  0.692871  0.000654  4.093049  0.0  0.226977  0.624674  0.000525  4.109291  -0.001
C  C45  1  0.50168762  0.75249205  0.73487839  1  0.698794  -0.002193  3.810767  -0.004  0.652707  0.000631  4.102777  -0.001  0.692784  0.000653  4.093212  0.0  0.226934  0.624576  0.000524  4.109462  -0.001
C  C46  1  0.07394268  0.08813017  0.84052602  1  0.337877  1.4e-05  3.780989  0.0  0.318019  8e-05  4.050287  0.0  0.33947  8.9e-05  4.069775  0.0  0.08726  0.302191  2.9e-05  4.03557  0.0
C  C47  1  0.92605864  0.91187326  0.15947429  1  0.337935  2.8e-05  3.780949  0.0  0.318098  8.3e-05  4.050256  0.0  0.339559  9.8e-05  4.069744  0.0  0.087297  0.302265  3.1e-05  4.035541  0.0
C  C48  1  0.01715071  0.99145195  0.75847790  1  -0.208161  0.003537  3.720522  0.004  -0.184536  0.00252  3.94953  0.003  -0.201618  0.002167  3.974937  0.002  -0.036841  -0.173568  0.002191  3.933447  0.002
C  C49  1  0.98284557  0.00854881  0.24152782  1  -0.208104  0.003521  3.720399  0.004  -0.184452  0.002523  3.949383  0.003  -0.201542  0.002162  3.974795  0.002  -0.036821  -0.173495  0.002192  3.933323  0.002
C  C50  1  0.94763526  0.01311753  0.65791413  1  -0.010131  -0.000268  3.745982  0.0  -0.037756  0.00024  3.996494  0.0  -0.031134  0.000279  4.015476  0.0  -0.071643  -0.041916  8.2e-05  3.983544  0.0
C  C51  1  0.05234932  0.98687449  0.34209178  1  -0.01018  -0.000255  3.746033  0.0  -0.037875  0.000239  3.996617  0.0  -0.03125  0.000283  4.015597  0.0  -0.071682  -0.042034  8.1e-05  3.983667  0.0
C  C52  1  0.93000711  0.12561553  0.63613134  1  -0.109997  0.001135  3.783738  0.001  -0.124014  0.000268  4.043888  0.0  -0.132119  0.000214  4.065698  0.0  -0.10149  -0.118963  0.000227  4.029325  0.0
C  C53  1  0.06998196  0.87437394  0.36386754  1  -0.109862  0.001132  3.783724  0.001  -0.123817  0.000269  4.04382  0.0  -0.13191  0.000212  4.065638  0.0  -0.101344  -0.118764  0.000228  4.029258  0.0
C  C54  1  0.97533442  0.21932376  0.71768426  1  -0.009319  -0.000935  3.724146  -0.001  -0.039459  -0.000637  3.979684  -0.001  -0.031863  -0.000575  3.9955  -0.001  -0.067447  -0.044389  -0.000511  3.968939  -0.001
C  C55  1  0.02465995  0.78067099  0.28231040  1  -0.009399  -0.000916  3.724245  -0.001  -0.03957  -0.000637  3.979814  -0.001  -0.031966  -0.000572  3.995617  -0.001  -0.067563  -0.044504  -0.000512  3.969066  -0.001
C  C56  1  0.04511907  0.20359448  0.82056483  1  -0.2118  -0.001868  3.703694  -0.002  -0.196543  -0.002082  3.949416  -0.002  -0.214002  -0.001859  3.972701  -0.002  -0.035337  -0.184853  -0.001755  3.934013  -0.002
C  C57  1  0.95488390  0.79640899  0.17943097  1  -0.211826  -0.001883  3.70366  -0.002  -0.196627  -0.002081  3.949429  -0.002  -0.21409  -0.001863  3.972714  -0.002  -0.035334  -0.184916  -0.001755  3.933992  -0.002
C  C58  1  0.02112568  0.86511079  0.77031146  1  0.646211  0.003253  3.87162  0.006  0.601311  -0.000742  4.18041  0.001  0.639734  -0.000829  4.175289  0.0  0.203247  0.57444  -0.000589  4.182858  0.001
C  C59  1  0.97887001  0.13488471  0.22969495  1  0.646139  0.00325  3.871634  0.006  0.601251  -0.000744  4.180412  0.001  0.639674  -0.000831  4.175302  0.0  0.203192  0.574384  -0.00059  4.182856  0.001
C  C60  1  0.07933038  0.31181103  0.90128013  1  0.713154  -0.001743  3.799202  -0.003  0.665742  0.0007  4.088783  0.0  0.7064  0.000665  4.077185  0.0  0.238184  0.637165  0.000592  4.096752  0.0
C  C61  1  0.92067052  0.68818806  0.09871794  1  0.713225  -0.001743  3.799127  -0.003  0.665889  0.000699  4.088637  0.0  0.706542  0.000664  4.077045  0.0  0.238226  0.637304  0.000591  4.096615  0.0
O  O62  1  0.36630924  0.04114421  0.09783510  1  -0.63833  0.012506  2.362313  0.017  -0.631511  0.00649  2.739159  0.009  -0.691639  0.004225  2.731823  0.006  -0.359472  -0.581611  0.005988  2.740709  0.008
O  O63  1  0.63369723  0.95884964  0.90216177  1  -0.638362  0.012503  2.362335  0.017  -0.631537  0.00648  2.739204  0.009  -0.69165  0.004221  2.731872  0.006  -0.359483  -0.581627  0.00599  2.740762  0.008
O  O64  1  0.91795379  0.56536887  0.73740053  1  -0.902346  7.6e-05  1.779414  0.0  -0.850903  5.4e-05  1.942157  0.0  -0.869018  3.6e-05  1.907491  0.0  -0.638971  -0.837892  4e-05  1.966628  0.0
O  O65  1  0.08205954  0.43463196  0.26259787  1  -0.902246  7.7e-05  1.779538  0.0  -0.85083  5.4e-05  1.942264  0.0  -0.868947  3.6e-05  1.907597  0.0  -0.63898  -0.837825  4.1e-05  1.966739  0.0
O  O66  1  0.34313253  0.79880988  0.04083894  1  -0.65897  -0.05234  2.136823  -0.071  -0.629584  -0.04355  2.448164  -0.064  -0.672625  -0.036438  2.427775  -0.056  -0.328338  -0.596528  -0.038603  2.461166  -0.055
O  O67  1  0.65687422  0.20118659  0.95915835  1  -0.658955  -0.052329  2.136983  -0.071  -0.629522  -0.043544  2.448324  -0.064  -0.672566  -0.036434  2.427943  -0.056  -0.32834  -0.596465  -0.038597  2.461339  -0.055
O  O68  1  0.32912043  0.56450972  0.95288262  1  -0.907305  -0.000353  1.84491  0.0  -0.847143  -0.000255  2.027007  0.0  -0.868125  -0.000152  1.99454  0.0  -0.624934  -0.832098  -0.000272  2.049592  0.0
O  O69  1  0.67089371  0.43549727  0.04711139  1  -0.907382  -0.000355  1.844952  0.0  -0.847242  -0.000255  2.027041  0.0  -0.868223  -0.000151  1.994577  0.0  -0.625003  -0.8322  -0.000271  2.049624  0.0
O  O70  1  0.45126394  0.70478796  0.17012703  1  -0.653034  -0.012908  1.986974  -0.017  -0.599528  -0.008046  2.230742  -0.012  -0.626381  -0.00484  2.222408  -0.007  -0.359904  -0.579941  -0.009259  2.235759  -0.013
O  O71  1  0.54873702  0.29521283  0.82987593  1  -0.653003  -0.012914  1.98698  -0.017  -0.599525  -0.008048  2.230797  -0.012  -0.626365  -0.004843  2.222435  -0.007  -0.359874  -0.579943  -0.009261  2.235814  -0.013
O  O72  1  0.34659396  0.47820571  0.70709771  1  -0.873544  -0.00015  1.793756  0.0  -0.820127  -0.000134  1.959107  0.0  -0.840058  -8.9e-05  1.928054  0.0  -0.602093  -0.805912  -0.000131  1.979728  0.0
O  O73  1  0.65344398  0.52179433  0.29289373  1  -0.873346  -0.000155  1.793901  0.0  -0.81997  -0.000134  1.959339  0.0  -0.839887  -9e-05  1.928313  0.0  -0.602031  -0.805763  -0.00013  1.979976  0.0
O  O74  1  0.41993756  0.28067677  0.17813737  1  -0.688042  0.062401  2.123607  0.087  -0.647276  0.048398  2.422841  0.073  -0.693095  0.039315  2.40818  0.062  -0.371298  -0.614269  0.042869  2.434376  0.062
O  O75  1  0.58007678  0.71931968  0.82186272  1  -0.688047  0.062411  2.12371  0.087  -0.647316  0.048406  2.422838  0.073  -0.69312  0.03932  2.408187  0.062  -0.371361  -0.614296  0.042883  2.434385  0.062
O  O76  1  0.57198181  0.32222721  0.34276780  1  -0.567534  0.014861  1.930497  0.02  -0.516865  0.009029  2.130456  0.013  -0.542912  0.005128  2.118855  0.008  -0.288658  -0.499099  0.01034  2.138723  0.014
O  O77  1  0.42803967  0.67777716  0.65722707  1  -0.56733  0.014853  1.930721  0.02  -0.516765  0.009025  2.130619  0.013  -0.542811  0.005124  2.119032  0.008  -0.288551  -0.498986  0.010337  2.138884  0.014
O  O78  1  0.15029567  0.07084283  0.93703820  1  -0.637494  -0.000112  2.3627  -0.001  -0.630003  -0.000989  2.737106  -0.002  -0.691345  -0.001051  2.731422  -0.003  -0.35803  -0.579461  -0.000964  2.737705  -0.002
O  O79  1  0.84972442  0.92914929  0.06295777  1  -0.637519  -0.000117  2.362762  -0.001  -0.630076  -0.001001  2.737252  -0.002  -0.691348  -0.001056  2.731441  -0.003  -0.358047  -0.57953  -0.000963  2.73788  -0.002
O  O80  1  0.09239228  0.83311743  0.85908790  1  -0.626102  -0.083971  2.083488  -0.114  -0.623459  -0.057229  2.409598  -0.084  -0.672591  -0.045058  2.393994  -0.07  -0.344499  -0.586542  -0.052087  2.419824  -0.074
O  O81  1  0.90761536  0.16687546  0.14091891  1  -0.626087  -0.083952  2.083532  -0.114  -0.623416  -0.057218  2.409656  -0.084  -0.672554  -0.04505  2.394072  -0.07  -0.344517  -0.586496  -0.052079  2.419883  -0.074
O  O82  1  0.94865668  0.78901798  0.69381125  1  -0.556933  -0.022134  1.917088  -0.029  -0.512962  -0.011524  2.127526  -0.017  -0.54039  -0.00625  2.120554  -0.009  -0.290073  -0.492339  -0.014009  2.131188  -0.019
O  O83  1  0.05133134  0.21097836  0.30619863  1  -0.557012  -0.022146  1.917047  -0.029  -0.513011  -0.011529  2.127432  -0.017  -0.540437  -0.006251  2.120458  -0.009  -0.290071  -0.492396  -0.014015  2.131091  -0.019
O  O84  1  0.18319940  0.31448255  0.99348472  1  -0.673024  0.052581  2.106124  0.073  -0.628423  0.043284  2.400981  0.065  -0.670547  0.035966  2.383227  0.056  -0.357321  -0.597572  0.038049  2.414496  0.055
O  O85  1  0.81680176  0.68551832  0.00651056  1  -0.673041  0.052589  2.105894  0.073  -0.628472  0.043289  2.400728  0.065  -0.670578  0.035968  2.382981  0.056  -0.357353  -0.597618  0.03806  2.414262  0.055
O  O86  1  0.00647300  0.40458159  0.87851852  1  -0.673636  0.010578  2.012173  0.014  -0.611928  0.006907  2.24807  0.01  -0.639017  0.004132  2.23559  0.006  -0.329727  -0.593032  0.007647  2.256844  0.011
O  O87  1  0.99354359  0.59542015  0.12147639  1  -0.673603  0.010573  2.012187  0.014  -0.611984  0.006905  2.248144  0.01  -0.639076  0.00413  2.23567  0.006  -0.329715  -0.593076  0.007646  2.256918  0.011
