# generated using pymatgen
data_Zn3H28C40(N3O7)2
_symmetry_space_group_name_H-M   'P 1'
_cell_length_a   13.53781695
_cell_length_b   13.44896011
_cell_length_c   14.65574627
_cell_angle_alpha   106.96313649
_cell_angle_beta   107.23820007
_cell_angle_gamma   111.18136752
_symmetry_Int_Tables_number   1
_chemical_formula_structural   Zn3H28C40(N3O7)2
_chemical_formula_sum   'Zn6 H56 C80 N12 O28'
_cell_volume   2124.70375837
_cell_formula_units_Z   2
loop_
 _symmetry_equiv_pos_site_id
 _symmetry_equiv_pos_as_xyz
  1  'x, y, z'
loop_
 _atom_site_type_symbol
 _atom_site_label
 _atom_site_symmetry_multiplicity
 _atom_site_fract_x
 _atom_site_fract_y
 _atom_site_fract_z
 _atom_site_occupancy
 _atom_site_pbe_bader_charge
 _atom_site_pbe_bader_spin_density
 _atom_site_pbe_cm5_charge
 _atom_site_pbe_ddec_charge
 _atom_site_pbe_ddec_spin_density
 _atom_site_pbe_ddec_sum_bond_order
 _atom_site_pbe_magmom
Zn  Zn0  1  0.49999978  0.50000238  0.99999896  1  1.33478  0  0.667404  0.891583  0  2.354675  0
Zn  Zn1  1  0.99999893  0.49999968  0.99999823  1  1.335963  0  0.666454  0.888633  0  2.355296  0
Zn  Zn2  1  0.54207673  0.26538748  0.90035013  1  1.267769  0  0.669274  0.869792  0  2.35178  0
Zn  Zn3  1  0.85828859  0.63494588  0.90022113  1  1.267887  0  0.668876  0.868849  0  2.348861  0
Zn  Zn4  1  0.45792323  0.73461688  0.09964640  1  1.267979  0  0.669222  0.869677  0  2.351771  0
Zn  Zn5  1  0.14171111  0.36505312  0.09977452  1  1.267808  0  0.668862  0.868832  0  2.348837  0
H  H6  1  0.59011533  0.44374396  0.86846595  1  0.610645  0  0.273739  0.3731  0  0.971721  0
H  H7  1  0.77832071  0.42463844  0.86824308  1  0.606051  0  0.273278  0.372416  0  0.972927  0
H  H8  1  0.40988463  0.55626040  0.13152990  1  0.610735  0  0.273694  0.373005  0  0.971812  0
H  H9  1  0.22167777  0.57535965  0.13175267  1  0.60608  0  0.273275  0.372377  0  0.972963  0
H  H10  1  0.38579521  0.78355127  0.81602282  1  0.148048  0  0.122301  0.13817  0  0.995828  0
H  H11  1  0.93017966  0.03253170  0.81627285  1  0.146445  0  0.121989  0.137697  0  0.995777  0
H  H12  1  0.61420657  0.21645046  0.18397212  1  0.148004  0  0.122283  0.13814  0  0.995778  0
H  H13  1  0.06981347  0.96746173  0.18373037  1  0.146229  0  0.121989  0.1377  0  0.995783  0
H  H14  1  0.44145799  0.69072145  0.53494624  1  0.113213  0  0.118208  0.124671  0  0.997734  0
H  H15  1  0.59343691  0.84433388  0.53497330  1  0.101646  0  0.118284  0.125133  0  0.997726  0
H  H16  1  0.55853773  0.30927574  0.46504851  1  0.113066  0  0.118218  0.124711  0  0.997686  0
H  H17  1  0.40655479  0.15566138  0.46502662  1  0.101671  0  0.11828  0.125133  0  0.997786  0
H  H18  1  0.57129498  0.61555393  0.61425358  1  0.085169  0  0.1091  0.116206  0  0.991536  0
H  H19  1  0.54290836  0.99885844  0.61407481  1  0.12106  0  0.108647  0.115907  0  0.991853  0
H  H20  1  0.42870462  0.38445129  0.38574445  1  0.085146  0  0.109117  0.116181  0  0.991505  0
H  H21  1  0.45708720  0.00114321  0.38591977  1  0.121194  0  0.10866  0.115945  0  0.991794  0
H  H22  1  0.40097246  0.40592838  0.75128073  1  0.12875  0  0.114611  0.094485  0  1.026038  0
H  H23  1  0.85019630  0.34504723  0.75102144  1  0.129071  0  0.11485  0.09483  0  1.025681  0
H  H24  1  0.59902740  0.59407418  0.24871596  1  0.128804  0  0.114619  0.094474  0  1.026088  0
H  H25  1  0.14980082  0.65494643  0.24897134  1  0.129085  0  0.114885  0.094787  0  1.025737  0
H  H26  1  0.20800037  0.26645180  0.59076614  1  0.091271  0  0.100922  0.109854  0  1.038235  0
H  H27  1  0.88274747  0.32408649  0.59059364  1  0.092789  0  0.100658  0.109239  0  1.040239  0
H  H28  1  0.79199603  0.73355160  0.40923120  1  0.091309  0  0.10093  0.109842  0  1.038192  0
H  H29  1  0.11725086  0.67590808  0.40939904  1  0.092833  0  0.100643  0.109206  0  1.040296  0
H  H30  1  0.05000804  0.22035263  0.80363392  1  0.094914  0  0.102263  0.108854  0  1.034996  0
H  H31  1  0.25365582  0.58328746  0.80381289  1  0.068737  0  0.103096  0.11053  0  1.035695  0
H  H32  1  0.94999196  0.77964543  0.19636497  1  0.094901  0  0.102263  0.108837  0  1.034989  0
H  H33  1  0.74634291  0.41670794  0.19618354  1  0.068719  0  0.103095  0.110444  0  1.035768  0
H  H34  1  0.25029749  0.36922838  0.95571740  1  0.119629  0  0.119402  0.099982  0  1.010604  0
H  H35  1  0.20529091  0.58625233  0.95574113  1  0.128799  0  0.119654  0.100329  0  1.010978  0
H  H36  1  0.74970354  0.63076699  0.04428239  1  0.119632  0  0.119392  0.099966  0  1.010634  0
H  H37  1  0.79470678  0.41373771  0.04425489  1  0.128807  0  0.119684  0.10042  0  1.010897  0
H  H38  1  0.92346046  0.10941162  0.61879647  1  0.072895  0  0.099828  0.095082  0  1.020241  0
H  H39  1  0.19556541  0.50923075  0.61899399  1  0.044115  0  0.099829  0.09513  0  1.019199  0
H  H40  1  0.07653880  0.89059451  0.38120036  1  0.072513  0  0.099835  0.095051  0  1.020357  0
H  H41  1  0.80443348  0.49076819  0.38100416  1  0.044125  0  0.099841  0.095096  0  1.019204  0
H  H42  1  0.03183123  0.14808500  0.46570189  1  0.074094  0  0.101858  0.102601  0  1.030048  0
H  H43  1  0.93405331  0.31756576  0.46583029  1  0.093841  0  0.102252  0.103168  0  1.029287  0
H  H44  1  0.96817449  0.85191847  0.53429735  1  0.073739  0  0.101875  0.102614  0  1.030132  0
H  H45  1  0.06594975  0.68243060  0.53416555  1  0.093819  0  0.102234  0.10314  0  1.029321  0
H  H46  1  0.70424562  0.88136559  0.12900252  1  0.097046  0  0.125034  0.098127  0  0.973379  0
H  H47  1  0.92462785  0.24770107  0.12914660  1  0.104545  0  0.125026  0.098864  0  0.973151  0
H  H48  1  0.29575992  0.11863432  0.87099636  1  0.097435  0  0.125045  0.098111  0  0.973394  0
H  H49  1  0.07537624  0.75230063  0.87085101  1  0.104578  0  0.125033  0.098907  0  0.973179  0
H  H50  1  0.90536315  0.03098614  0.28073663  1  0.101246  0  0.110378  0.126003  0  1.014896  0
H  H51  1  0.87541021  0.24973593  0.28091463  1  0.127413  0  0.109994  0.124993  0  1.016454  0
H  H52  1  0.09464117  0.96901284  0.71926302  1  0.101324  0  0.110349  0.125958  0  1.014762  0
H  H53  1  0.12459173  0.75026131  0.71908115  1  0.127325  0  0.109988  0.124958  0  1.0165  0
H  H54  1  0.74821465  0.99742381  0.49524301  1  0.069045  0  0.101632  0.104146  0  1.040396  0
H  H55  1  0.24716696  0.49785448  0.49533222  1  0.074877  0  0.101788  0.104513  0  1.039087  0
H  H56  1  0.25178521  0.00257873  0.50475436  1  0.069055  0  0.1016  0.104111  0  1.040463  0
H  H57  1  0.75283893  0.50213652  0.50466563  1  0.074854  0  0.101769  0.104424  0  1.039168  0
H  H58  1  0.55578799  0.84710667  0.33554514  1  0.110517  0  0.119275  0.094285  0  1.000329  0
H  H59  1  0.27970161  0.48868988  0.33562788  1  0.126312  0  0.119336  0.094022  0  0.998965  0
H  H60  1  0.44421351  0.15289768  0.66445250  1  0.110226  0  0.119275  0.094284  0  1.00046  0
H  H61  1  0.72030609  0.51130648  0.66437128  1  0.126429  0  0.119332  0.094053  0  0.998957  0
C  C62  1  0.55094719  0.65621830  0.75950362  1  -0.035404  0  0.020144  0.019684  0  3.852602  0
C  C63  1  0.70844964  0.10329130  0.75946553  1  0.015171  0  0.020415  0.019562  0  3.854203  0
C  C64  1  0.44905233  0.34378515  0.24049322  1  -0.03581  0  0.020107  0.019604  0  3.852709  0
C  C65  1  0.29154393  0.89670944  0.24052893  1  0.015514  0  0.020396  0.019502  0  3.854199  0
C  C66  1  0.49632060  0.70196625  0.81547345  1  0.01779  0  -0.005962  -0.047659  0  3.916949  0
C  C67  1  0.81903973  0.11350180  0.81555390  1  0.010531  0  -0.006437  -0.048212  0  3.916366  0
C  C68  1  0.50367973  0.29803726  0.18452090  1  0.017712  0  -0.005873  -0.047603  0  3.916893  0
C  C69  1  0.18095468  0.88650069  0.18444332  1  0.010554  0  -0.006548  -0.048345  0  3.916296  0
C  C70  1  0.42598962  0.74643632  0.77170270  1  0.013648  0  -0.06747  -0.127096  0  3.943964  0
C  C71  1  0.84567415  0.02534457  0.77184754  1  -0.010869  0  -0.067157  -0.126351  0  3.941143  0
C  C72  1  0.57401256  0.25356625  0.22829531  1  0.013907  0  -0.067466  -0.12704  0  3.943958  0
C  C73  1  0.15431693  0.97465424  0.22815320  1  -0.01078  0  -0.067058  -0.126188  0  3.941206  0
C  C74  1  0.40819734  0.74225184  0.67176641  1  0.189139  0  0.069726  0.042765  0  3.985683  0
C  C75  1  0.76349507  0.92959245  0.67190367  1  0.164793  0  0.070355  0.044003  0  3.985282  0
C  C76  1  0.59180521  0.25774988  0.32822941  1  0.188976  0  0.069775  0.042658  0  3.985915  0
C  C77  1  0.23649463  0.07040188  0.32809681  1  0.16474  0  0.070277  0.043908  0  3.985285  0
C  C78  1  0.45906085  0.69451124  0.61366491  1  -0.016361  0  -0.075006  -0.116565  0  4.001738  0
C  C79  1  0.65452565  0.91923712  0.61368659  1  -0.009913  0  -0.075921  -0.118306  0  4.003081  0
C  C80  1  0.54093922  0.30548693  0.38632788  1  -0.01598  0  -0.07501  -0.116485  0  4.001768  0
C  C81  1  0.34546854  0.08076171  0.38631501  1  -0.010084  0  -0.075865  -0.118275  0  4.002834  0
C  C82  1  0.53045358  0.65221612  0.65833923  1  -0.00647  0  -0.080893  -0.100828  0  3.944674  0
C  C83  1  0.62779612  0.00618767  0.65828597  1  -0.035829  0  -0.080126  -0.100154  0  3.945963  0
C  C84  1  0.46954741  0.34778556  0.34165752  1  -0.006493  0  -0.080915  -0.100842  0  3.944713  0
C  C85  1  0.37219771  0.99381039  0.34170849  1  -0.035848  0  -0.080098  -0.100109  0  3.94584  0
C  C86  1  0.63114755  0.60919034  0.80138711  1  1.645599  0  0.204992  0.571031  0  4.274096  0
C  C87  1  0.67021673  0.19228506  0.80122372  1  1.655794  0  0.205284  0.570773  0  4.272038  0
C  C88  1  0.36885369  0.39080865  0.19861033  1  1.645817  0  0.204955  0.571064  0  4.273967  0
C  C89  1  0.32978192  0.80771659  0.19877306  1  1.655378  0  0.205206  0.570703  0  4.27183  0
C  C90  1  0.50723820  0.69779031  0.91941980  1  1.601364  0  0.212142  0.571586  0  4.211078  0
C  C91  1  0.91208997  0.22168870  0.91942414  1  1.60379  0  0.212231  0.57184  0  4.209392  0
C  C92  1  0.49276158  0.30221047  0.08057637  1  1.601511  0  0.212066  0.571467  0  4.211276  0
C  C93  1  0.08790507  0.77831027  0.08057023  1  1.603822  0  0.212225  0.571872  0  4.209263  0
C  C94  1  0.32008342  0.36387657  0.75900373  1  0.499872  0  0.040785  0.084693  0  3.945433  0
C  C95  1  0.93883725  0.39486600  0.75885040  1  0.448603  0  0.041684  0.085864  0  3.944519  0
C  C96  1  0.67991727  0.63612771  0.24099707  1  0.499933  0  0.040796  0.084769  0  3.945437  0
C  C97  1  0.06115779  0.60512496  0.24114242  1  0.448071  0  0.041642  0.08588  0  3.944608  0
C  C98  1  0.21154603  0.28454765  0.66945298  1  -0.028442  0  -0.086784  -0.173868  0  3.926578  0
C  C99  1  0.95786030  0.38468075  0.66933023  1  0.014673  0  -0.087079  -0.174315  0  3.929374  0
C  C100  1  0.78845330  0.71546021  0.33054640  1  -0.028596  0  -0.086767  -0.17389  0  3.926474  0
C  C101  1  0.04213957  0.61531381  0.33066424  1  0.015609  0  -0.087032  -0.17421  0  3.929358  0
C  C102  1  0.10998907  0.22949532  0.68270784  1  -0.018532  0  0.000864  0.132703  0  4.04796  0
C  C103  1  0.07271895  0.45310668  0.68271348  1  -0.006914  0  0.001889  0.134082  0  4.046046  0
C  C104  1  0.89000958  0.77050632  0.31728963  1  -0.018493  0  0.000905  0.132789  0  4.047777  0
C  C105  1  0.92728068  0.54689057  0.31728030  1  -0.006935  0  0.001939  0.134011  0  4.045924  0
C  C106  1  0.12503812  0.25955989  0.78791974  1  -0.012422  0  -0.08381  -0.176075  0  3.927755  0
C  C107  1  0.16285889  0.52829071  0.78796192  1  -0.009632  0  -0.084725  -0.178101  0  3.931051  0
C  C108  1  0.87496148  0.74043731  0.21207675  1  -0.012134  0  -0.083876  -0.17614  0  3.927845  0
C  C109  1  0.83714094  0.47170379  0.21203593  1  -0.009626  0  -0.08475  -0.177965  0  3.931034  0
C  C110  1  0.23609975  0.34160010  0.87321551  1  0.471634  0  0.052359  0.113501  0  3.922347  0
C  C111  1  0.13705449  0.53142047  0.87320809  1  0.493293  0  0.050725  0.11027  0  3.928031  0
C  C112  1  0.76390156  0.65840065  0.12678380  1  0.471244  0  0.052387  0.113545  0  3.922298  0
C  C113  1  0.86294227  0.46857405  0.12678688  1  0.493174  0  0.050685  0.110128  0  3.928055  0
C  C114  1  0.99214084  0.14587400  0.59469283  1  -0.143293  0  -0.077922  -0.104459  0  3.951638  0
C  C115  1  0.10273071  0.44873789  0.59481044  1  -0.055559  0  -0.078087  -0.104094  0  3.947405  0
C  C116  1  0.00785871  0.85412950  0.40530130  1  -0.143028  0  -0.077942  -0.104379  0  3.951587  0
C  C117  1  0.89727130  0.55126111  0.40518721  1  -0.056094  0  -0.078095  -0.103946  0  3.947351  0
C  C118  1  0.96319265  0.11187081  0.48983807  1  0.078573  0  -0.080485  -0.118724  0  3.946085  0
C  C119  1  0.02680139  0.37797389  0.48995303  1  -0.017214  0  -0.081134  -0.119977  0  3.947195  0
C  C120  1  0.03680721  0.88813175  0.51015862  1  0.079048  0  -0.080494  -0.118819  0  3.946119  0
C  C121  1  0.97319850  0.62202069  0.51004008  1  -0.01677  0  -0.081171  -0.120105  0  3.947522  0
C  C122  1  0.71853537  0.90990419  0.21171044  1  0.489692  0  0.055763  0.110116  0  3.93705  0
C  C123  1  0.99312915  0.30184972  0.21184348  1  0.481539  0  0.054607  0.106797  0  3.940646  0
C  C124  1  0.28146836  0.09009836  0.78828935  1  0.489329  0  0.055782  0.110207  0  3.936811  0
C  C125  1  0.00687761  0.69815111  0.78815463  1  0.481724  0  0.054531  0.106502  0  3.940713  0
C  C126  1  0.82992199  0.99283418  0.29633080  1  0.033398  0  -0.077585  -0.169557  0  3.90721  0
C  C127  1  0.96646364  0.30344014  0.29648747  1  -0.048658  0  -0.076912  -0.166825  0  3.908681  0
C  C128  1  0.17008348  0.00716397  0.70366620  1  0.033424  0  -0.077624  -0.169614  0  3.907012  0
C  C129  1  0.03353753  0.69655712  0.70350674  1  -0.04893  0  -0.07684  -0.166627  0  3.908595  0
C  C130  1  0.84541857  0.02677582  0.40200700  1  -0.012742  0  0.01026  0.15217  0  4.010367  0
C  C131  1  0.05671680  0.37516815  0.40214771  1  0.019137  0  0.010138  0.151689  0  4.016621  0
C  C132  1  0.15458474  0.97322588  0.59799040  1  -0.012652  0  0.01031  0.152297  0  4.010386  0
C  C133  1  0.94328670  0.62482912  0.59784782  1  0.018826  0  0.010104  0.151611  0  4.016597  0
C  C134  1  0.74390918  0.97401218  0.41599552  1  -0.051784  0  -0.08346  -0.16889  0  3.938792  0
C  C135  1  0.17217876  0.44196517  0.41609225  1  -0.03725  0  -0.083211  -0.168961  0  3.941859  0
C  C136  1  0.25609154  0.02599215  0.58400258  1  -0.051855  0  -0.083432  -0.168885  0  3.938957  0
C  C137  1  0.82782721  0.55802762  0.58390545  1  -0.036801  0  -0.083173  -0.168714  0  3.941742  0
C  C138  1  0.63595214  0.89130182  0.32762627  1  0.468118  0  0.045922  0.088173  0  3.955142  0
C  C139  1  0.19166355  0.43644094  0.32772256  1  0.450873  0  0.045785  0.088856  0  3.95434  0
C  C140  1  0.36405290  0.10870345  0.67237191  1  0.468232  0  0.046002  0.08826  0  3.955206  0
C  C141  1  0.80834294  0.56355451  0.67227670  1  0.450495  0  0.045764  0.088649  0  3.954316  0
N  N142  1  0.33344750  0.78745022  0.62583065  1  0.336098  0  0.051684  0.512864  0  4.199452  0
N  N143  1  0.79231703  0.83854358  0.62594140  1  0.340489  0  0.052835  0.513449  0  4.201987  0
N  N144  1  0.66654994  0.21255052  0.37416623  1  0.336315  0  0.051738  0.513064  0  4.199242  0
N  N145  1  0.20767341  0.16145068  0.37406336  1  0.340588  0  0.05292  0.51371  0  4.202034  0
N  N146  1  0.33243932  0.39269829  0.85932483  1  -1.254684  0  -0.321424  -0.23556  0  3.524431  0
N  N147  1  0.02677395  0.46638055  0.85920966  1  -1.252916  0  -0.321038  -0.23374  0  3.523162  0
N  N148  1  0.66756078  0.60730154  0.14067457  1  -1.254626  0  -0.321439  -0.235629  0  3.524251  0
N  N149  1  0.97322161  0.53361308  0.14078405  1  -1.252901  0  -0.321002  -0.2337  0  3.523287  0
N  N150  1  0.62275625  0.85921536  0.22654427  1  -1.256611  0  -0.327424  -0.245608  0  3.576014  0
N  N151  1  0.10372567  0.36741755  0.22664262  1  -1.246433  0  -0.326463  -0.244412  0  3.575604  0
N  N152  1  0.37724750  0.14078723  0.77345349  1  -1.256534  0  -0.327499  -0.245766  0  3.575944  0
N  N153  1  0.89627987  0.63258235  0.77335693  1  -1.246434  0  -0.32645  -0.244214  0  3.575642  0
O  O154  1  0.73888993  0.68931051  0.86791928  1  -1.152696  0  -0.32691  -0.541274  0  2.288627  0
O  O155  1  0.62921282  0.17893921  0.86791011  1  -1.157018  0  -0.326814  -0.540576  0  2.287965  0
O  O156  1  0.26111020  0.31068939  0.13207674  1  -1.152702  0  -0.326934  -0.541299  0  2.288504  0
O  O157  1  0.37078232  0.82106156  0.13208342  1  -1.156679  0  -0.326742  -0.540462  0  2.287758  0
O  O158  1  0.59006781  0.49831921  0.76100610  1  -1.170487  0  -0.314868  -0.544279  0  2.128959  0
O  O159  1  0.67071815  0.26254996  0.76059331  1  -1.177958  0  -0.314947  -0.544433  0  2.129043  0
O  O160  1  0.40993477  0.50168256  0.23898702  1  -1.170481  0  -0.314811  -0.54427  0  2.128837  0
O  O161  1  0.32928539  0.73745701  0.23940903  1  -1.178107  0  -0.314921  -0.544441  0  2.128973  0
O  O162  1  0.55699289  0.64217796  0.94916167  1  -1.17603  0  -0.29482  -0.533464  0  2.345678  0
O  O163  1  0.89192602  0.30692756  0.94912033  1  -1.179232  0  -0.294692  -0.53295  0  2.343476  0
O  O164  1  0.44300293  0.35782103  0.05083223  1  -1.176123  0  -0.294805  -0.533417  0  2.345611  0
O  O165  1  0.10806710  0.69307225  0.05087579  1  -1.179175  0  -0.294635  -0.532868  0  2.343471  0
O  O166  1  0.46193012  0.74969632  0.96813004  1  -1.169523  0  -0.321122  -0.536225  0  2.282898  0
O  O167  1  0.00624732  0.21865109  0.96814304  1  -1.173393  0  -0.320675  -0.535701  0  2.282202  0
O  O168  1  0.53806941  0.25030716  0.03186477  1  -1.169662  0  -0.321121  -0.536187  0  2.282963  0
O  O169  1  0.99374962  0.78134702  0.03185093  1  -1.173436  0  -0.320705  -0.535777  0  2.282174  0
O  O170  1  0.27996562  0.81924278  0.67381002  1  -0.476246  0  -0.130302  -0.346756  0  1.970651  0
O  O171  1  0.89381808  0.85475607  0.67388529  1  -0.483206  0  -0.131185  -0.347176  0  1.97203  0
O  O172  1  0.72003335  0.18075793  0.32618932  1  -0.476261  0  -0.130312  -0.346835  0  1.970668  0
O  O173  1  0.10616845  0.14523010  0.32611956  1  -0.483355  0  -0.131233  -0.347311  0  1.97214  0
O  O174  1  0.32584408  0.79126454  0.54016150  1  -0.485675  0  -0.135104  -0.346149  0  1.919997  0
O  O175  1  0.71424753  0.74911028  0.54023877  1  -0.477265  0  -0.13592  -0.347131  0  1.920031  0
O  O176  1  0.67415129  0.20873352  0.45983407  1  -0.485743  0  -0.13518  -0.346257  0  1.919851  0
O  O177  1  0.28574570  0.25088497  0.45976294  1  -0.477158  0  -0.135952  -0.347276  0  1.92017  0
O  O178  1  0.58046372  0.42474597  0.92601167  1  -1.227885  0  -0.594791  -0.86723  0  2.20487  0
O  O179  1  0.84550485  0.50117720  0.92582945  1  -1.222288  0  -0.594232  -0.865833  0  2.204753  0
O  O180  1  0.41953539  0.57525661  0.07398345  1  -1.22816  0  -0.594717  -0.867032  0  2.205028  0
O  O181  1  0.15449329  0.49882178  0.07416646  1  -1.222273  0  -0.594236  -0.865813  0  2.204799  0
