# generated using pymatgen
data_Co2H10C12S2O11
_symmetry_space_group_name_H-M   'P 1'
_cell_length_a   7.45457635
_cell_length_b   10.56442843
_cell_length_c   10.63958153
_cell_angle_alpha   102.04128234
_cell_angle_beta   89.98655146
_cell_angle_gamma   110.68310072
_symmetry_Int_Tables_number   1
_chemical_formula_structural   Co2H10C12S2O11
_chemical_formula_sum   'Co4 H20 C24 S4 O22'
_cell_volume   764.17644166
_cell_formula_units_Z   2
loop_
 _symmetry_equiv_pos_site_id
 _symmetry_equiv_pos_as_xyz
  1  'x, y, z'
loop_
 _atom_site_type_symbol
 _atom_site_label
 _atom_site_symmetry_multiplicity
 _atom_site_fract_x
 _atom_site_fract_y
 _atom_site_fract_z
 _atom_site_occupancy
 _atom_site_pbe_cm5_charge
 _atom_site_pbe_ddec_charge
 _atom_site_pbe_ddec_spin_density
 _atom_site_pbe_ddec_sum_bond_order
 _atom_site_pbe_magmom
Co  Co0  1  0.33230872  0.01410749  0.58401706  1  0.6537  1.073569  -2.812298  2.2856  -2.606
Co  Co1  1  0.31810205  0.98586297  0.91608755  1  0.653892  1.073421  -2.812958  2.285423  -2.605
Co  Co2  1  0.66774652  0.98585652  0.41598719  1  0.653607  1.073482  -2.812684  2.285894  -2.606
Co  Co3  1  0.68188118  0.01412603  0.08390697  1  0.653905  1.073411  -2.812771  2.285027  -2.606
H  H4  1  0.09300832  0.06820851  0.41738446  1  0.30081  0.402538  -0.00028  0.928708  -0.001
H  H5  1  0.02465990  0.93183419  0.08263386  1  0.300659  0.402039  -0.00028  0.929265  -0.001
H  H6  1  0.90701010  0.93179718  0.58259949  1  0.300894  0.402782  -0.000279  0.928433  -0.001
H  H7  1  0.97525771  0.06810406  0.91733111  1  0.300624  0.401894  -0.000282  0.929383  -0.001
H  H8  1  0.15795789  0.94017643  0.35501722  1  0.304111  0.387257  -0.000328  0.940584  -0.001
H  H9  1  0.21771644  0.05996449  0.14503063  1  0.304246  0.387207  -0.000328  0.940892  -0.001
H  H10  1  0.84208266  0.05985206  0.64497814  1  0.304091  0.38731  -0.000328  0.940531  -0.001
H  H11  1  0.78213182  0.94002017  0.85499024  1  0.304153  0.387014  -0.000327  0.941056  -0.001
H  H12  1  0.52366469  0.91703324  0.74134919  1  0.303261  0.392815  -0.00014  0.942832  -0.001
H  H13  1  0.60664542  0.08289056  0.75862966  1  0.303428  0.39329  -0.000142  0.941488  -0.001
H  H14  1  0.47636577  0.08298045  0.25868721  1  0.30323  0.3929  -0.000142  0.942868  -0.001
H  H15  1  0.39338930  0.91711019  0.24131283  1  0.303503  0.393361  -0.000141  0.941337  -0.001
H  H16  1  0.77077255  0.64083447  0.46908807  1  0.10506  0.124273  0.000126  1.017601  0.0
H  H17  1  0.12968198  0.35899106  0.03080154  1  0.105024  0.124016  0.000127  1.01827  0.0
H  H18  1  0.22924650  0.35920201  0.53095974  1  0.105006  0.124159  0.000127  1.017612  0.0
H  H19  1  0.87034811  0.64102190  0.96918395  1  0.104982  0.123911  0.000126  1.018154  0.0
H  H20  1  0.60297493  0.36602775  0.43345942  1  0.106766  0.131451  -5.8e-05  1.011124  0.0
H  H21  1  0.23620542  0.63375403  0.06636584  1  0.10675  0.131229  -5.8e-05  1.010971  0.0
H  H22  1  0.39702675  0.63397668  0.56656092  1  0.106846  0.13146  -5.9e-05  1.011215  0.0
H  H23  1  0.76378014  0.36627448  0.93362483  1  0.106803  0.13127  -5.8e-05  1.011099  0.0
C  C24  1  0.04539335  0.78293207  0.69143151  1  0.220393  0.621497  0.005986  4.157102  0.003
C  C25  1  0.26288311  0.21713327  0.80873846  1  0.220149  0.620411  0.006103  4.158449  0.003
C  C26  1  0.95458814  0.21708295  0.30855442  1  0.220294  0.621291  0.005979  4.156812  0.003
C  C27  1  0.73710515  0.78282558  0.19126000  1  0.220382  0.621119  0.006095  4.158442  0.003
C  C28  1  0.91986130  0.63695202  0.64326414  1  -0.017762  -0.117164  -0.010117  3.953207  -0.014
C  C29  1  0.28321387  0.36309587  0.85682803  1  -0.017492  -0.117463  -0.010121  3.953721  -0.014
C  C30  1  0.08014930  0.36306488  0.35675790  1  -0.017626  -0.11703  -0.010118  3.952636  -0.014
C  C31  1  0.71680750  0.63690769  0.14316486  1  -0.017663  -0.117821  -0.010115  3.95371  -0.014
C  C32  1  0.79484528  0.57880962  0.53241927  1  -0.094331  -0.108918  0.005159  3.992811  0.003
C  C33  1  0.21587539  0.42110650  0.96753307  1  -0.094636  -0.108632  0.005199  3.992686  0.003
C  C34  1  0.20516178  0.42120826  0.46761331  1  -0.094462  -0.108999  0.00516  3.992112  0.003
C  C35  1  0.78410667  0.57887745  0.03243593  1  -0.094631  -0.108572  0.005198  3.992404  0.003
C  C36  1  0.70656082  0.43374001  0.51339550  1  -0.091073  -0.096655  -0.004742  3.963388  -0.006
C  C37  1  0.27237903  0.56614592  0.98649575  1  -0.090723  -0.096061  -0.004755  3.962981  -0.006
C  C38  1  0.29344663  0.56628936  0.48662449  1  -0.091069  -0.096533  -0.004744  3.963009  -0.006
C  C39  1  0.72760622  0.43385247  0.01349135  1  -0.090918  -0.096269  -0.004744  3.963963  -0.006
C  C40  1  0.76763014  0.38367863  0.60978148  1  -0.026998  -0.136646  0.003172  3.997628  0.001
C  C41  1  0.38371319  0.61628372  0.89016432  1  -0.027345  -0.137341  0.00323  3.998695  0.002
C  C42  1  0.23239007  0.61634140  0.39023840  1  -0.02712  -0.136722  0.00317  3.998072  0.001
C  C43  1  0.61631316  0.38371372  0.10981036  1  -0.027295  -0.137122  0.00322  3.998393  0.002
C  C44  1  0.71358131  0.24086758  0.62333865  1  0.212981  0.59592  -0.00823  4.181476  -0.01
C  C45  1  0.47240630  0.75908358  0.87653047  1  0.213468  0.596601  -0.008203  4.179762  -0.01
C  C46  1  0.28645917  0.75914737  0.37666229  1  0.213008  0.595927  -0.008245  4.1816  -0.01
C  C47  1  0.52759331  0.24087647  0.12344004  1  0.213217  0.596257  -0.008218  4.180415  -0.01
S  S48  1  0.92936862  0.51417096  0.72360778  1  0.124858  0.187508  0.000278  3.043494  -0.001
S  S49  1  0.41551726  0.48595437  0.77649940  1  0.124681  0.187528  0.000323  3.044545  -0.001
S  S50  1  0.07066774  0.48586256  0.27641402  1  0.125026  0.187623  0.00028  3.043656  -0.001
S  S51  1  0.58449501  0.51403368  0.22348081  1  0.124687  0.187575  0.000319  3.044293  -0.001
O  O52  1  0.07552323  0.86406447  0.61227316  1  -0.315504  -0.596682  -0.02874  2.377781  -0.046
O  O53  1  0.21159076  0.13592649  0.88783486  1  -0.31545  -0.595526  -0.028688  2.377129  -0.046
O  O54  1  0.92444956  0.13590095  0.38766561  1  -0.315562  -0.596514  -0.028743  2.377533  -0.046
O  O55  1  0.78839677  0.86404161  0.11217872  1  -0.315368  -0.595577  -0.028677  2.377186  -0.046
O  O56  1  0.11792316  0.81696637  0.80730244  1  -0.307831  -0.550468  -0.040419  2.359701  -0.068
O  O57  1  0.30167098  0.18310330  0.69290904  1  -0.307648  -0.549968  -0.040454  2.361027  -0.068
O  O58  1  0.88202892  0.18307566  0.19268640  1  -0.307754  -0.550353  -0.040401  2.35951  -0.068
O  O59  1  0.69829651  0.81679526  0.30709262  1  -0.307752  -0.550474  -0.04043  2.36065  -0.068
O  O60  1  0.59485959  0.14455592  0.53196532  1  -0.328203  -0.617348  -0.050928  2.4731  -0.077
O  O61  1  0.44991126  0.85538958  0.96788611  1  -0.328676  -0.617512  -0.050937  2.47056  -0.077
O  O62  1  0.40520025  0.85549237  0.46802014  1  -0.328274  -0.617485  -0.051009  2.473607  -0.078
O  O63  1  0.54997874  0.14455785  0.03210524  1  -0.328359  -0.61712  -0.050945  2.472023  -0.077
O  O64  1  0.78028140  0.21568674  0.72123399  1  -0.300399  -0.523391  -0.008773  2.173311  -0.016
O  O65  1  0.56449126  0.78430874  0.77868872  1  -0.300173  -0.52359  -0.008736  2.175018  -0.016
O  O66  1  0.21974557  0.78430119  0.27876593  1  -0.300275  -0.523165  -0.008792  2.173517  -0.016
O  O67  1  0.43559886  0.21573304  0.22134423  1  -0.300149  -0.523569  -0.008759  2.174577  -0.016
O  O68  1  0.19587280  0.02912947  0.41871718  1  -0.574286  -0.761814  -0.025139  2.168605  -0.041
O  O69  1  0.16665069  0.97100507  0.08138679  1  -0.574294  -0.761046  -0.02524  2.170707  -0.041
O  O70  1  0.80416285  0.97088656  0.58127554  1  -0.574331  -0.762048  -0.025169  2.168552  -0.041
O  O71  1  0.83325529  0.02900651  0.91865293  1  -0.574123  -0.760728  -0.025261  2.17085  -0.041
O  O72  1  0.48285789  0.99996412  0.75005532  1  -0.551499  -0.816501  -0.04843  2.41911  -0.078
O  O73  1  0.51716753  0.00006097  0.24998726  1  -0.551436  -0.816488  -0.048412  2.41909  -0.078
