# generated using pymatgen
data_ZnH10C18N8(Cl2O)2
_symmetry_space_group_name_H-M   'P 1'
_cell_length_a   8.71113237
_cell_length_b   10.28729865
_cell_length_c   12.00369885
_cell_angle_alpha   98.87362543
_cell_angle_beta   90.00016367
_cell_angle_gamma   90.00021891
_symmetry_Int_Tables_number   1
_chemical_formula_structural   ZnH10C18N8(Cl2O)2
_chemical_formula_sum   'Zn2 H20 C36 N16 Cl8 O4'
_cell_volume   1062.82463825
_cell_formula_units_Z   2
loop_
 _symmetry_equiv_pos_site_id
 _symmetry_equiv_pos_as_xyz
  1  'x, y, z'
loop_
 _atom_site_type_symbol
 _atom_site_label
 _atom_site_symmetry_multiplicity
 _atom_site_fract_x
 _atom_site_fract_y
 _atom_site_fract_z
 _atom_site_occupancy
 _atom_site_hle17_bader_spin_density
 _atom_site_hle17_ddec_charge
 _atom_site_hle17_ddec_spin_density
 _atom_site_hle17_ddec_sum_bond_order
 _atom_site_hle17_magmom
 _atom_site_hse06_10hf_bader_spin_density
 _atom_site_hse06_10hf_ddec_charge
 _atom_site_hse06_10hf_ddec_spin_density
 _atom_site_hse06_10hf_ddec_sum_bond_order
 _atom_site_hse06_10hf_magmom
 _atom_site_hse06_bader_spin_density
 _atom_site_hse06_ddec_charge
 _atom_site_hse06_ddec_spin_density
 _atom_site_hse06_ddec_sum_bond_order
 _atom_site_hse06_magmom
 _atom_site_pbe_bader_spin_density
 _atom_site_pbe_cm5_charge
 _atom_site_pbe_ddec_charge
 _atom_site_pbe_ddec_spin_density
 _atom_site_pbe_ddec_sum_bond_order
 _atom_site_pbe_magmom
Zn  Zn0  1  0.50000125  0.49999926  0.99999958  1  0  0.926488  0  2.005192  0  0  0.739767  0  2.465427  0  0  0.781185  0  2.419773  0  0  0.697906  0.71173  0  2.496004  0
Zn  Zn1  1  0.99999968  0.99999914  0.00000087  1  0  0.92647  0  2.005179  0  0  0.73977  0  2.465416  0  0  0.78119  0  2.419763  0  0  0.697903  0.711716  0  2.495991  0
H  H2  1  0.63760858  0.38914504  0.29623340  1  0  0.073884  0  0.920253  0  0  0.084411  0  0.987171  0  0  0.086876  0  0.982713  0  0  0.11962  0.082537  0  0.990434  0
H  H3  1  0.13760488  0.11085275  0.70376709  1  0  0.073879  0  0.920258  0  0  0.084432  0  0.987143  0  0  0.086896  0  0.982687  0  0  0.119616  0.082555  0  0.990408  0
H  H4  1  0.36239079  0.61085820  0.70376849  1  0  0.073843  0  0.920252  0  0  0.08439  0  0.987153  0  0  0.086855  0  0.982695  0  0  0.119628  0.082515  0  0.990417  0
H  H5  1  0.86239563  0.88914657  0.29623341  1  0  0.073876  0  0.92027  0  0  0.084431  0  0.987158  0  0  0.086895  0  0.982702  0  0  0.11963  0.082556  0  0.990422  0
H  H6  1  0.62828668  0.54968679  0.44721199  1  0  0.112899  0  0.938972  0  0  0.124484  0  0.999  0  0  0.127429  0  0.99698  0  0  0.103169  0.122383  0  1.00054  0
H  H7  1  0.12828391  0.95031021  0.55278917  1  0  0.112929  0  0.938953  0  0  0.124486  0  0.99901  0  0  0.127431  0  0.996989  0  0  0.103175  0.122386  0  1.000549  0
H  H8  1  0.37170924  0.45031748  0.55278671  1  0  0.112953  0  0.939004  0  0  0.124545  0  0.998999  0  0  0.12749  0  0.996978  0  0  0.103185  0.122446  0  1.000539  0
H  H9  1  0.87171431  0.04968812  0.44721119  1  0  0.112901  0  0.938946  0  0  0.124478  0  0.998991  0  0  0.127422  0  0.996971  0  0  0.103162  0.122376  0  1.00053  0
H  H10  1  0.42724246  0.92976931  0.43244730  1  0  0.111356  0  0.965539  0  0  0.119543  0  1.032868  0  0  0.122778  0  1.029868  0  0  0.096692  0.117162  0  1.035135  0
H  H11  1  0.92724236  0.57022584  0.56755504  1  0  0.111354  0  0.965566  0  0  0.119612  0  1.032805  0  0  0.122847  0  1.029803  0  0  0.096698  0.117211  0  1.035095  0
H  H12  1  0.57275346  0.07023302  0.56754946  1  0  0.111438  0  0.965429  0  0  0.119597  0  1.032793  0  0  0.122831  0  1.029793  0  0  0.096706  0.117225  0  1.035052  0
H  H13  1  0.07275815  0.42977245  0.43244864  1  0  0.111348  0  0.965563  0  0  0.119585  0  1.032834  0  0  0.12282  0  1.029833  0  0  0.096692  0.117205  0  1.035099  0
H  H14  1  0.43506454  0.13231703  0.12744993  1  0  0.122872  0  0.934206  0  0  0.125896  0  1.006041  0  0  0.129325  0  1.002105  0  0  0.135596  0.123343  0  1.008962  0
H  H15  1  0.93506354  0.36768186  0.87255214  1  0  0.122862  0  0.934168  0  0  0.125875  0  1.006026  0  0  0.129304  0  1.002092  0  0  0.13559  0.123322  0  1.008946  0
H  H16  1  0.56493712  0.86768226  0.87255307  1  0  0.122865  0  0.934197  0  0  0.125879  0  1.006054  0  0  0.129307  0  1.00212  0  0  0.13559  0.123325  0  1.008975  0
H  H17  1  0.06493927  0.63231647  0.12744822  1  0  0.122933  0  0.934098  0  0  0.125951  0  1.005937  0  0  0.12938  0  1.002003  0  0  0.135649  0.123397  0  1.008859  0
H  H18  1  0.85231714  0.31964623  0.06746333  1  0  0.117691  0  0.954985  0  0  0.116191  0  1.037268  0  0  0.120276  0  1.032039  0  0  0.138568  0.112816  0  1.041607  0
H  H19  1  0.35231925  0.18035243  0.93253272  1  0  0.117734  0  0.954901  0  0  0.116225  0  1.037201  0  0  0.120305  0  1.03199  0  0  0.138582  0.112849  0  1.041539  0
H  H20  1  0.14768223  0.68035116  0.93253357  1  0  0.117701  0  0.954912  0  0  0.116203  0  1.037204  0  0  0.12029  0  1.031969  0  0  0.13858  0.112827  0  1.041544  0
H  H21  1  0.64768356  0.81964592  0.06746681  1  0  0.117653  0  0.954966  0  0  0.116141  0  1.037291  0  0  0.120228  0  1.03206  0  0  0.138558  0.112765  0  1.041633  0
C  C22  1  0.57512418  0.44468131  0.23957372  1  0  0.165973  0  3.672048  0  0  0.110355  0  3.947915  0  0  0.130486  0  3.953054  0  0  0.083327  0.096994  0  3.94426  0
C  C23  1  0.07512046  0.05531625  0.76042661  1  0  0.165949  0  3.671895  0  0  0.11032  0  3.947767  0  0  0.130448  0  3.952909  0  0  0.083346  0.096948  0  3.944097  0
C  C24  1  0.42487519  0.55531999  0.76042540  1  0  0.16602  0  3.671946  0  0  0.110378  0  3.947832  0  0  0.130507  0  3.952972  0  0  0.083299  0.097004  0  3.944163  0
C  C25  1  0.92487891  0.94468306  0.23957472  1  0  0.166015  0  3.671903  0  0  0.110354  0  3.947794  0  0  0.130486  0  3.952935  0  0  0.083324  0.096971  0  3.944121  0
C  C26  1  0.56681598  0.61681223  0.40099492  1  0  -0.147652  0  3.754541  0  0  -0.185704  0  4.011215  0  0  -0.182176  0  4.031809  0  0  -0.101118  -0.187878  0  3.997324  0
C  C27  1  0.06681308  0.88318452  0.59900775  1  0  -0.147636  0  3.754646  0  0  -0.185671  0  4.011328  0  0  -0.182143  0  4.031923  0  0  -0.101146  -0.187846  0  3.997436  0
C  C28  1  0.43318109  0.38319205  0.59900295  1  0  -0.147721  0  3.754574  0  0  -0.185782  0  4.01123  0  0  -0.182249  0  4.031823  0  0  -0.10109  -0.187958  0  3.997339  0
C  C29  1  0.93318513  0.11681379  0.40099427  1  0  -0.147692  0  3.754637  0  0  -0.185751  0  4.01131  0  0  -0.182224  0  4.031906  0  0  -0.10115  -0.187924  0  3.997416  0
C  C30  1  0.52532506  0.57381875  0.28680942  1  0  -0.095304  0  3.800067  0  0  -0.074591  0  4.048585  0  0  -0.089749  0  4.075896  0  0  -0.039261  -0.064725  0  4.030016  0
C  C31  1  0.02532052  0.92617786  0.71319232  1  0  -0.095244  0  3.799761  0  0  -0.074538  0  4.048291  0  0  -0.089684  0  4.075597  0  0  -0.039228  -0.064667  0  4.029717  0
C  C32  1  0.47467545  0.42618357  0.71318734  1  0  -0.095094  0  3.799969  0  0  -0.07442  0  4.04852  0  0  -0.089571  0  4.075839  0  0  -0.039186  -0.06455  0  4.029948  0
C  C33  1  0.97467654  0.07382144  0.28680985  1  0  -0.095238  0  3.799979  0  0  -0.074493  0  4.048428  0  0  -0.089646  0  4.075739  0  0  -0.03922  -0.064627  0  4.029862  0
C  C34  1  0.43884843  0.65828538  0.22406440  1  0  0.302815  0  3.871521  0  0  0.275418  0  4.134675  0  0  0.294633  0  4.148591  0  0  0.091118  0.26288  0  4.124603  0
C  C35  1  0.93884693  0.84171080  0.77593728  1  0  0.302799  0  3.871368  0  0  0.275419  0  4.134537  0  0  0.294624  0  4.14846  0  0  0.091117  0.262876  0  4.124462  0
C  C36  1  0.56115094  0.34171693  0.77593319  1  0  0.302633  0  3.871558  0  0  0.275269  0  4.13467  0  0  0.294472  0  4.148596  0  0  0.091016  0.262727  0  4.124593  0
C  C37  1  0.06115244  0.15828848  0.22406572  1  0  0.302727  0  3.871501  0  0  0.275373  0  4.134606  0  0  0.294583  0  4.148528  0  0  0.091102  0.262833  0  4.124536  0
C  C38  1  0.41252964  0.78950840  0.28177118  1  0  0.006926  0  3.792104  0  0  0.020673  0  4.062912  0  0  0.016733  0  4.083459  0  0  -0.013256  0.022783  0  4.04909  0
C  C39  1  0.91252962  0.71048768  0.71823043  1  0  0.006951  0  3.792064  0  0  0.020637  0  4.062981  0  0  0.0167  0  4.08353  0  0  -0.013262  0.022753  0  4.049147  0
C  C40  1  0.58747087  0.21049590  0.71822502  1  0  0.006993  0  3.792132  0  0  0.020704  0  4.062954  0  0  0.01677  0  4.083501  0  0  -0.013256  0.022819  0  4.04913  0
C  C41  1  0.08747089  0.28951161  0.28177174  1  0  0.007016  0  3.792142  0  0  0.020697  0  4.063031  0  0  0.016759  0  4.083581  0  0  -0.013257  0.022808  0  4.049208  0
C  C42  1  0.52946415  0.74191566  0.45289493  1  0  0.107136  0  3.85196  0  0  0.121118  0  4.124439  0  0  0.118365  0  4.148627  0  0  -0.014636  0.12257  0  4.108424  0
C  C43  1  0.02946164  0.75808095  0.54710764  1  0  0.107073  0  3.851925  0  0  0.121075  0  4.124389  0  0  0.118318  0  4.148577  0  0  -0.014659  0.122525  0  4.10837  0
C  C44  1  0.47053406  0.25808863  0.54710211  1  0  0.10713  0  3.852059  0  0  0.121139  0  4.124484  0  0  0.118378  0  4.148682  0  0  -0.014617  0.12259  0  4.108471  0
C  C45  1  0.97053543  0.24191735  0.45289521  1  0  0.107192  0  3.85178  0  0  0.121174  0  4.124268  0  0  0.118421  0  4.148456  0  0  -0.014626  0.122626  0  4.108254  0
C  C46  1  0.45433967  0.83006961  0.39255062  1  0  -0.162505  0  3.796763  0  0  -0.198932  0  4.051062  0  0  -0.196075  0  4.069044  0  0  -0.105261  -0.200533  0  4.038835  0
C  C47  1  0.95433788  0.66992563  0.60745179  1  0  -0.162491  0  3.796696  0  0  -0.198961  0  4.050965  0  0  -0.196103  0  4.068944  0  0  -0.105227  -0.200544  0  4.038735  0
C  C48  1  0.54565969  0.16993369  0.60744628  1  0  -0.162587  0  3.796826  0  0  -0.198987  0  4.051129  0  0  -0.196128  0  4.069112  0  0  -0.105287  -0.200592  0  4.038881  0
C  C49  1  0.04566263  0.33007168  0.39255093  1  0  -0.162547  0  3.796666  0  0  -0.199008  0  4.050977  0  0  -0.196152  0  4.068957  0  0  -0.105243  -0.200608  0  4.038747  0
C  C50  1  0.55480326  0.14486673  0.10638145  1  0  0.117854  0  3.656584  0  0  0.054559  0  3.945635  0  0  0.065779  0  3.956795  0  0  0.147751  0.047286  0  3.937788  0
C  C51  1  0.05480371  0.35513173  0.89361980  1  0  0.117879  0  3.656634  0  0  0.054583  0  3.945702  0  0  0.065809  0  3.956844  0  0  0.147776  0.047309  0  3.937858  0
C  C52  1  0.44519840  0.85513256  0.89362071  1  0  0.117849  0  3.656568  0  0  0.054543  0  3.945644  0  0  0.065772  0  3.956776  0  0  0.147745  0.047268  0  3.9378  0
C  C53  1  0.94520024  0.64486760  0.10637987  1  0  0.117796  0  3.656437  0  0  0.054494  0  3.945516  0  0  0.065725  0  3.956643  0  0  0.147696  0.047219  0  3.937678  0
C  C54  1  0.77141475  0.24099645  0.07483718  1  0  0.153573  0  3.603511  0  0  0.08448  0  3.881349  0  0  0.097553  0  3.891456  0  0  0.157455  0.076124  0  3.874652  0
C  C55  1  0.27141604  0.25900188  0.92516032  1  0  0.153535  0  3.603559  0  0  0.084449  0  3.881392  0  0  0.097518  0  3.891496  0  0  0.157472  0.076094  0  3.874698  0
C  C56  1  0.22858576  0.75900189  0.92516235  1  0  0.153625  0  3.603452  0  0  0.084506  0  3.881308  0  0  0.097577  0  3.89142  0  0  0.157485  0.076147  0  3.874616  0
C  C57  1  0.72858677  0.74099646  0.07483921  1  0  0.153758  0  3.603489  0  0  0.084652  0  3.881326  0  0  0.097721  0  3.891435  0  0  0.157525  0.076293  0  3.874638  0
N  N58  1  0.55476484  0.38893513  0.13502425  1  0  -0.256524  0  3.084568  0  0  -0.207803  0  3.369904  0  0  -0.221518  0  3.379509  0  0  -0.227976  -0.198995  0  3.363617  0
N  N59  1  0.05476293  0.11106334  0.86497533  1  0  -0.256501  0  3.084542  0  0  -0.207794  0  3.369896  0  0  -0.221511  0  3.379506  0  0  -0.227971  -0.198949  0  3.363567  0
N  N60  1  0.44523682  0.61106321  0.86497528  1  0  -0.256635  0  3.084637  0  0  -0.207877  0  3.369922  0  0  -0.2216  0  3.379538  0  0  -0.227968  -0.19903  0  3.363595  0
N  N61  1  0.94523873  0.88893694  0.13502614  1  0  -0.256659  0  3.084592  0  0  -0.207934  0  3.36994  0  0  -0.221656  0  3.37955  0  0  -0.228015  -0.199052  0  3.363578  0
N  N62  1  0.79096297  0.11217810  0.05232303  1  0  -0.25788  0  3.215777  0  0  -0.195369  0  3.508328  0  0  -0.20972  0  3.524334  0  0  -0.233583  -0.185893  0  3.497497  0
N  N63  1  0.29096492  0.38781932  0.94767438  1  0  -0.257872  0  3.215815  0  0  -0.195351  0  3.508344  0  0  -0.2097  0  3.524347  0  0  -0.233611  -0.185876  0  3.497516  0
N  N64  1  0.20903755  0.88781926  0.94767636  1  0  -0.257959  0  3.215796  0  0  -0.195412  0  3.508332  0  0  -0.209762  0  3.524335  0  0  -0.233646  -0.185938  0  3.497504  0
N  N65  1  0.70903903  0.61217904  0.05232348  1  0  -0.258094  0  3.215833  0  0  -0.19554  0  3.508344  0  0  -0.209892  0  3.524351  0  0  -0.233692  -0.186065  0  3.497514  0
N  N66  1  0.62419865  0.26497459  0.11035354  1  0  0.013239  0  3.601283  0  0  0.101403  0  3.820131  0  0  0.088046  0  3.845719  0  0  -0.135774  0.110259  0  3.802643  0
N  N67  1  0.12419855  0.23502415  0.88964622  1  0  0.013197  0  3.601419  0  0  0.101356  0  3.820284  0  0  0.088002  0  3.845874  0  0  -0.135813  0.110202  0  3.802792  0
N  N68  1  0.37580301  0.73502472  0.88964779  1  0  0.013271  0  3.601322  0  0  0.101433  0  3.820167  0  0  0.088079  0  3.845757  0  0  -0.135778  0.110277  0  3.802674  0
N  N69  1  0.87580426  0.76497516  0.11035428  1  0  0.013318  0  3.601244  0  0  0.101476  0  3.820096  0  0  0.088124  0  3.845689  0  0  -0.135727  0.110311  0  3.802599  0
N  N70  1  0.65531919  0.05111168  0.07248846  1  0  -0.232834  0  2.982874  0  0  -0.213468  0  3.27413  0  0  -0.222958  0  3.290546  0  0  -0.226351  -0.206793  0  3.263247  0
N  N71  1  0.15532020  0.44888716  0.92751221  1  0  -0.232826  0  2.982933  0  0  -0.213468  0  3.274176  0  0  -0.222958  0  3.290596  0  0  -0.226339  -0.206795  0  3.263294  0
N  N72  1  0.34468132  0.94888763  0.92751204  1  0  -0.232793  0  2.982847  0  0  -0.213439  0  3.274078  0  0  -0.222925  0  3.290497  0  0  -0.226318  -0.206765  0  3.263193  0
N  N73  1  0.84468376  0.55111216  0.07248829  1  0  -0.232774  0  2.982791  0  0  -0.213426  0  3.274029  0  0  -0.222916  0  3.29045  0  0  -0.226318  -0.206751  0  3.263146  0
Cl  Cl74  1  0.31942933  0.89686480  0.20833331  1  0  -0.046695  0  1.507769  0  0  -0.03509  0  1.767112  0  0  -0.038671  0  1.765378  0  0  0.013701  -0.032344  0  1.768373  0
Cl  Cl75  1  0.81942911  0.60313191  0.79166904  1  0  -0.046636  0  1.507683  0  0  -0.035025  0  1.767064  0  0  -0.038605  0  1.76533  0  0  0.013722  -0.032275  0  1.768324  0
Cl  Cl76  1  0.68056774  0.10313752  0.79166345  1  0  -0.046733  0  1.507859  0  0  -0.035132  0  1.767213  0  0  -0.03871  0  1.765475  0  0  0.013679  -0.032383  0  1.768474  0
Cl  Cl77  1  0.18057140  0.39686737  0.20833396  1  0  -0.046663  0  1.507788  0  0  -0.035043  0  1.767165  0  0  -0.038623  0  1.765427  0  0  0.013727  -0.032294  0  1.768425  0
Cl  Cl78  1  0.57344161  0.79474343  0.59375554  1  0  -0.101578  0  1.369321  0  0  -0.085963  0  1.599523  0  0  -0.091075  0  1.597287  0  0  -0.006945  -0.082371  0  1.601344  0
Cl  Cl79  1  0.07343945  0.70525532  0.40624659  1  0  -0.101591  0  1.36927  0  0  -0.085984  0  1.599473  0  0  -0.091097  0  1.597238  0  0  -0.006957  -0.082391  0  1.601292  0
Cl  Cl80  1  0.42655201  0.20526085  0.40624233  1  0  -0.101541  0  1.369371  0  0  -0.085937  0  1.599563  0  0  -0.091046  0  1.597332  0  0  -0.006937  -0.082344  0  1.601383  0
Cl  Cl81  1  0.92655647  0.29474300  0.59375460  1  0  -0.101592  0  1.3693  0  0  -0.085978  0  1.599512  0  0  -0.091091  0  1.597277  0  0  -0.006948  -0.082385  0  1.601328  0
O  O82  1  0.38537405  0.62309276  0.12383170  1  0  -0.568469  0  2.114178  0  0  -0.511498  0  2.389602  0  0  -0.536937  0  2.382962  0  0  -0.331795  -0.493466  0  2.393035  0
O  O83  1  0.88537195  0.87690422  0.87616915  1  0  -0.56856  0  2.114231  0  0  -0.51155  0  2.38956  0  0  -0.536991  0  2.382923  0  0  -0.331833  -0.493541  0  2.393043  0
O  O84  1  0.61462876  0.37690760  0.87616478  1  0  -0.568527  0  2.114305  0  0  -0.511478  0  2.38956  0  0  -0.536914  0  2.382924  0  0  -0.331782  -0.493479  0  2.393072  0
O  O85  1  0.11462741  0.12309606  0.12383315  1  0  -0.568523  0  2.114165  0  0  -0.511531  0  2.389496  0  0  -0.536969  0  2.382856  0  0  -0.331817  -0.493514  0  2.392963  0
