# generated using pymatgen
data_CuH4C6N8O
_symmetry_space_group_name_H-M   'P 1'
_cell_length_a   6.81277751
_cell_length_b   8.61719031
_cell_length_c   17.01681336
_cell_angle_alpha   76.98437015
_cell_angle_beta   78.49314580
_cell_angle_gamma   66.77496917
_symmetry_Int_Tables_number   1
_chemical_formula_structural   CuH4C6N8O
_chemical_formula_sum   'Cu4 H16 C24 N32 O4'
_cell_volume   887.60437024
_cell_formula_units_Z   4
loop_
 _symmetry_equiv_pos_site_id
 _symmetry_equiv_pos_as_xyz
  1  'x, y, z'
loop_
 _atom_site_type_symbol
 _atom_site_label
 _atom_site_symmetry_multiplicity
 _atom_site_fract_x
 _atom_site_fract_y
 _atom_site_fract_z
 _atom_site_occupancy
 _atom_site_hle17_ddec_charge
 _atom_site_hle17_ddec_spin_density
 _atom_site_hle17_ddec_sum_bond_order
 _atom_site_hle17_magmom
 _atom_site_hse06_10hf_ddec_charge
 _atom_site_hse06_10hf_ddec_spin_density
 _atom_site_hse06_10hf_ddec_sum_bond_order
 _atom_site_hse06_10hf_magmom
 _atom_site_hse06_ddec_charge
 _atom_site_hse06_ddec_spin_density
 _atom_site_hse06_ddec_sum_bond_order
 _atom_site_hse06_magmom
 _atom_site_pbe_cm5_charge
 _atom_site_pbe_ddec_charge
 _atom_site_pbe_ddec_spin_density
 _atom_site_pbe_ddec_sum_bond_order
 _atom_site_pbe_magmom
Cu  Cu0  1  0.55689899  0.77917797  0.76450317  1  0.73206  -0.544116  2.002441  -0.402  0.719255  -0.701915  2.423822  -0.565  0.80566  -0.810302  2.360354  -0.671  0.784615  0.668384  -0.588382  2.467414  -0.467
Cu  Cu1  1  0.10058704  0.72070165  0.73543802  1  0.732091  0.54421  2.002303  0.402  0.719138  0.702074  2.423885  0.565  0.806002  0.810501  2.359761  0.671  0.784723  0.668191  0.588501  2.467452  0.468
Cu  Cu2  1  0.44310585  0.22081816  0.23549529  1  0.732114  0.544119  2.002378  0.402  0.719273  0.701914  2.423747  0.565  0.805662  0.810296  2.36029  0.671  0.784623  0.66841  0.588398  2.467276  0.467
Cu  Cu3  1  0.89940918  0.27930483  0.26456499  1  0.732036  -0.544184  2.002326  -0.402  0.719131  -0.702064  2.423836  -0.565  0.805943  -0.810498  2.359747  -0.671  0.78474  0.668201  -0.58851  2.46738  -0.468
H  H4  1  0.96028585  0.09177300  0.82125276  1  0.116662  -5.5e-05  0.926561  0.0  0.124836  -7.3e-05  0.989452  0.0  0.129389  -6.2e-05  0.984759  0.0  0.128104  0.121466  -7.5e-05  0.99308  0.0
H  H5  1  0.87211469  0.40795295  0.67865513  1  0.117317  5.7e-05  0.92775  0.0  0.125848  7.4e-05  0.990036  0.0  0.13052  6.3e-05  0.985205  0.0  0.128358  0.122419  7.4e-05  0.993727  0.0
H  H6  1  0.03971288  0.90822185  0.17874650  1  0.116688  5.5e-05  0.926555  0.0  0.124847  7.2e-05  0.98947  0.0  0.129403  6.2e-05  0.98477  0.0  0.128098  0.121472  7.5e-05  0.993093  0.0
H  H7  1  0.12788094  0.59205227  0.32134916  1  0.117317  -5.7e-05  0.927819  0.0  0.125869  -7.4e-05  0.990063  0.0  0.130541  -6.3e-05  0.98523  0.0  0.128382  0.122442  -7.4e-05  0.993755  0.0
H  H8  1  0.64276344  0.01375586  0.89411204  1  0.127115  7.1e-05  0.946389  0.0  0.136427  8.1e-05  1.003867  0.0  0.140482  6.7e-05  1.001726  0.0  0.114373  0.13348  8.5e-05  1.005596  0.0
H  H9  1  0.54963490  0.48613122  0.60564782  1  0.126727  -7.1e-05  0.945433  0.0  0.136065  -8.1e-05  1.003091  0.0  0.140121  -6.7e-05  1.000949  0.0  0.114526  0.133114  -8.7e-05  1.004831  0.0
H  H10  1  0.35723511  0.98624034  0.10588969  1  0.12721  -7.1e-05  0.94634  0.0  0.136502  -8.1e-05  1.00383  0.0  0.140557  -6.7e-05  1.00169  0.0  0.114417  0.133554  -8.5e-05  1.005561  0.0
H  H11  1  0.45036368  0.51387521  0.39435284  1  0.126708  7.2e-05  0.94547  0.0  0.136087  8.1e-05  1.003108  0.0  0.140145  6.7e-05  1.000962  0.0  0.114522  0.133136  8.7e-05  1.004849  0.0
H  H12  1  0.69877910  0.77618347  0.01510255  1  0.118302  6.1e-05  0.926672  0.0  0.12876  7e-05  0.988867  0.0  0.132691  4.8e-05  0.985019  0.0  0.114791  0.125811  8e-05  0.991748  0.0
H  H13  1  0.48953451  0.72371672  0.48470641  1  0.117938  -6.1e-05  0.928441  0.0  0.128539  -7.1e-05  0.990511  0.0  0.132515  -4.8e-05  0.986596  0.0  0.11444  0.125608  -7.9e-05  0.993362  0.0
H  H14  1  0.30121316  0.22381660  0.98490039  1  0.118268  -6e-05  0.926712  0.0  0.128739  -7e-05  0.988908  0.0  0.132669  -4.8e-05  0.985059  0.0  0.114797  0.125793  -8e-05  0.991786  0.0
H  H15  1  0.51047271  0.27628453  0.51529139  1  0.11798  6.2e-05  0.928379  0.0  0.12855  7.1e-05  0.990473  0.0  0.132512  4.8e-05  0.986575  0.0  0.11442  0.125621  7.9e-05  0.993322  0.0
H  H16  1  0.37570834  0.70594415  0.97088321  1  0.124204  -4e-06  0.945847  0.0  0.126  -1.8e-05  1.019759  0.0  0.130775  -1.3e-05  1.014245  0.0  0.130244  0.122559  -1.9e-05  1.023776  0.0
H  H17  1  0.05199764  0.79391049  0.52921113  1  0.123619  4e-06  0.945233  0.0  0.125868  1.8e-05  1.018857  0.0  0.130674  1.3e-05  1.013266  0.0  0.130269  0.122428  2e-05  1.022894  0.0
H  H18  1  0.62428391  0.29405329  0.02911666  1  0.124221  4e-06  0.945858  0.0  0.125985  1.8e-05  1.019806  0.0  0.130761  1.3e-05  1.014288  0.0  0.130212  0.122541  1.9e-05  1.023825  0.0
H  H19  1  0.94800211  0.20609085  0.47079113  1  0.123518  -3e-06  0.94526  0.0  0.125755  -1.8e-05  1.01893  0.0  0.130559  -1.3e-05  1.013342  0.0  0.130225  0.122313  -2e-05  1.022966  0.0
C  C20  1  0.97264018  0.98828568  0.87243491  1  -0.016372  0.000145  3.603955  0.0  -0.066563  -0.000264  3.882414  0.0  -0.059845  -9e-05  3.892412  0.0  0.027338  -0.071085  -0.000472  3.87657  0.0
C  C21  1  0.83243936  0.51147055  0.62748725  1  -0.018273  -0.000125  3.606232  0.0  -0.068857  0.00027  3.884372  0.0  -0.062211  9.4e-05  3.89433  0.0  0.026763  -0.073335  0.000478  3.878532  0.0
C  C22  1  0.02735778  0.01170926  0.12756810  1  -0.016269  -0.000142  3.603739  0.0  -0.066442  0.000265  3.882176  0.0  -0.05972  9e-05  3.892168  0.0  0.027389  -0.070954  0.000472  3.876323  0.0
C  C23  1  0.16756098  0.48853331  0.37251304  1  -0.018269  0.000124  3.60618  0.0  -0.06887  -0.00027  3.884372  0.0  -0.062219  -9.4e-05  3.894323  0.0  0.026777  -0.073347  -0.000479  3.87853  0.0
C  C24  1  0.80084540  0.94386303  0.91436492  1  -0.086032  -0.000395  3.762015  0.0  -0.099061  -0.000183  4.02738  0.0  -0.103329  -0.000263  4.045066  0.0  -0.078885  -0.096689  -8.4e-05  4.015911  0.0
C  C25  1  0.65832885  0.55588698  0.58542210  1  -0.084599  0.000386  3.758309  0.0  -0.097544  0.00018  4.023651  0.0  -0.101825  0.00026  4.041335  0.0  -0.079201  -0.095186  7.6e-05  4.01222  0.0
C  C26  1  0.19915670  0.05613699  0.08563569  1  -0.086165  0.000393  3.762  0.0  -0.099166  0.000182  4.027382  0.0  -0.103437  0.000262  4.045072  0.0  -0.078942  -0.096798  8.3e-05  4.015915  0.0
C  C27  1  0.34167149  0.44411941  0.41457681  1  -0.084592  -0.000385  3.758305  0.0  -0.097604  -0.00018  4.023673  0.0  -0.101883  -0.000261  4.041348  0.0  -0.079211  -0.095245  -7.6e-05  4.012238  0.0
C  C28  1  0.83159922  0.81177783  0.98050800  1  -0.046228  0.000401  3.653618  0.0  -0.08782  0.000356  3.916295  0.0  -0.082576  0.000469  3.929434  0.001  -0.076015  -0.090608  8.5e-05  3.90684  0.0
C  C29  1  0.62341936  0.68796455  0.51929985  1  -0.047384  -0.000392  3.654484  0.0  -0.089223  -0.000355  3.916714  0.0  -0.084022  -0.000467  3.929978  -0.001  -0.07569  -0.091999  -6.9e-05  3.907236  0.0
C  C30  1  0.16839225  0.18822095  0.01949493  1  -0.046237  -0.000399  3.653827  0.0  -0.08785  -0.000356  3.916529  0.0  -0.082612  -0.000469  3.929684  -0.001  -0.076056  -0.090637  -8.4e-05  3.907072  0.0
C  C31  1  0.37658551  0.31204054  0.48069823  1  -0.0475  0.000388  3.654362  0.0  -0.089286  0.000355  3.916585  0.0  -0.084076  0.000468  3.929856  0.001  -0.075708  -0.092053  6.8e-05  3.907117  0.0
C  C32  1  0.04050907  0.72316605  0.00219724  1  -0.002101  -0.000114  3.804483  0.0  0.019542  -5.7e-05  4.03992  0.0  0.017106  -0.000131  4.060105  0.0  0.005641  0.020829  2.4e-05  4.026171  0.0
C  C33  1  0.76547948  0.77663863  0.49775777  1  -0.000407  0.000107  3.80543  0.0  0.021352  5.5e-05  4.039812  0.0  0.018778  0.000129  4.060185  0.0  0.005849  0.022632  -2.9e-05  4.026082  0.0
C  C34  1  0.95948654  0.27683274  0.99780605  1  -0.002008  0.000111  3.804337  0.0  0.019616  5.8e-05  4.039803  0.0  0.017177  0.000131  4.059986  0.0  0.0057  0.0209  -2.4e-05  4.026054  0.0
C  C35  1  0.23452480  0.22336394  0.50224227  1  -0.000278  -0.000106  3.805363  0.0  0.021508  -5.5e-05  4.039694  0.0  0.018933  -0.00013  4.060065  0.0  0.005894  0.022747  2.9e-05  4.02601  0.0
C  C36  1  0.20963487  0.77045787  0.95851366  1  -0.021378  0.000113  3.541552  0.0  -0.070465  -0.000102  3.798197  0.0  -0.064271  0.000133  3.810156  0.0  0.039714  -0.07422  -0.000418  3.790146  0.0
C  C37  1  0.93803022  0.72933146  0.54153138  1  -0.019838  -0.000105  3.541057  0.0  -0.07012  0.000106  3.798626  0.0  -0.063788  -0.00013  3.810441  0.0  0.039678  -0.073919  0.000426  3.790604  0.0
C  C38  1  0.79035698  0.22953834  0.04148878  1  -0.021421  -0.000108  3.541485  0.0  -0.070443  0.000102  3.798072  0.0  -0.064245  -0.000132  3.810025  0.0  0.039733  -0.0742  0.000418  3.790022  0.0
C  C39  1  0.06198013  0.27066594  0.45846685  1  -0.019841  0.000103  3.541127  0.0  -0.070158  -0.000106  3.798738  0.0  -0.063829  0.000131  3.810571  0.0  0.03969  -0.073964  -0.000427  3.790771  0.0
C  C40  1  0.08252675  0.58390985  0.07110885  1  0.253393  -0.000669  3.788824  -0.001  0.237023  1.1e-05  4.055374  0.0  0.242151  1e-06  4.072509  0.0  0.221449  0.233467  -3.3e-05  4.043882  0.0
C  C41  1  0.73737887  0.91606616  0.42891817  1  0.249634  0.000684  3.791984  0.001  0.234689  -4e-06  4.056432  0.0  0.239861  7e-06  4.073627  0.0  0.220724  0.231137  4.4e-05  4.044905  0.0
C  C42  1  0.91747062  0.41608764  0.92889337  1  0.253376  0.00067  3.788895  0.001  0.237004  -1.1e-05  4.055449  0.0  0.242134  -1e-06  4.072586  0.0  0.221444  0.23345  3.3e-05  4.04395  0.0
C  C43  1  0.26263286  0.08392999  0.57108088  1  0.24972  -0.000684  3.791866  -0.001  0.234782  3e-06  4.056306  0.0  0.239956  -4e-06  4.073499  0.0  0.220759  0.23124  -4.4e-05  4.044781  0.0
N  N44  1  0.92553470  0.54124052  0.12168427  1  -0.242248  0.002399  2.940473  0.003  -0.222636  5.2e-05  3.211095  0.0  -0.227064  4e-06  3.226065  0.0  -0.195226  -0.219509  0.000167  3.201713  0.0
N  N45  1  0.58815521  0.95883528  0.37834985  1  -0.239752  -0.002408  2.938647  -0.003  -0.220258  -5.2e-05  3.208782  0.0  -0.224696  -4e-06  3.22375  0.0  -0.194278  -0.217132  -0.000157  3.199382  0.0
N  N46  1  0.07446074  0.45876604  0.87832250  1  -0.242189  -0.0024  2.940461  -0.003  -0.222512  -5.3e-05  3.211077  0.0  -0.226946  -4e-06  3.226056  0.0  -0.195179  -0.219382  -0.000168  3.201691  0.0
N  N47  1  0.41186142  0.04115699  0.62164787  1  -0.239946  0.002408  2.938634  0.003  -0.220459  5.2e-05  3.208769  0.0  -0.2249  3e-06  3.223739  0.0  -0.19436  -0.21733  0.000157  3.199363  0.0
N  N48  1  0.02764126  0.41535223  0.17641913  1  -0.078495  -0.054587  3.31733  -0.068  -0.048481  -0.044658  3.636446  -0.06  -0.064526  -0.041152  3.655272  -0.057  -0.139981  -0.040379  -0.042267  3.627177  -0.055
N  N49  1  0.61923192  0.08473821  0.32363585  1  -0.078705  0.054585  3.318772  0.068  -0.049208  0.044673  3.638558  0.06  -0.065159  0.041167  3.657407  0.057  -0.139734  -0.04111  0.042301  3.629262  0.055
N  N50  1  0.97235496  0.58465171  0.82358526  1  -0.078437  0.054587  3.317352  0.068  -0.048532  0.044659  3.636584  0.06  -0.064595  0.041153  3.655427  0.057  -0.139968  -0.040429  0.042267  3.627311  0.055
N  N51  1  0.38077588  0.91525922  0.67636344  1  -0.078598  -0.054585  3.318667  -0.068  -0.049071  -0.044673  3.638423  -0.06  -0.065027  -0.041168  3.657284  -0.057  -0.139688  -0.040972  -0.0423  3.629141  -0.055
N  N52  1  0.23921778  0.38136628  0.16001946  1  -0.089949  0.051671  3.311875  0.065  -0.059745  0.044348  3.632839  0.059  -0.076142  0.040874  3.65261  0.057  -0.14269  -0.051347  0.041908  3.622943  0.054
N  N53  1  0.78061868  0.11865753  0.34003581  1  -0.090092  -0.051619  3.311449  -0.065  -0.060019  -0.044302  3.632882  -0.059  -0.076491  -0.040834  3.652573  -0.057  -0.143148  -0.051616  -0.041858  3.623043  -0.054
N  N54  1  0.76078213  0.61862982  0.83997793  1  -0.089867  -0.05167  3.311951  -0.065  -0.059646  -0.044347  3.632949  -0.059  -0.076041  -0.040873  3.652725  -0.057  -0.142697  -0.051248  -0.041904  3.623073  -0.054
N  N55  1  0.21938049  0.88134889  0.65996427  1  -0.089976  0.051623  3.31133  0.065  -0.059901  0.044301  3.632754  0.059  -0.076388  0.040837  3.652462  0.057  -0.143082  -0.051497  0.04186  3.622911  0.054
N  N56  1  0.27883424  0.48471853  0.09389239  1  -0.255569  -0.001805  2.940807  -0.002  -0.232444  0.000178  3.213799  0.0  -0.238498  0.000161  3.229618  0.0  -0.195989  -0.22815  0.000135  3.203737  0.0
N  N57  1  0.85748226  0.01523008  0.40615168  1  -0.254722  0.001799  2.93891  0.002  -0.232012  -0.000181  3.21178  0.0  -0.238105  -0.000165  3.227635  0.0  -0.196022  -0.227705  -0.000141  3.201713  0.0
N  N58  1  0.72116783  0.51527115  0.90610482  1  -0.255762  0.001805  2.940895  0.002  -0.232633  -0.000177  3.213904  0.0  -0.238693  -0.000159  3.229725  0.0  -0.196075  -0.228335  -0.000133  3.20384  0.0
N  N59  1  0.14251887  0.98477633  0.59384793  1  -0.254814  -0.001799  2.938983  -0.002  -0.232111  0.000181  3.211859  0.0  -0.238206  0.000166  3.22772  0.0  -0.196046  -0.227802  0.000141  3.201788  0.0
N  N60  1  0.17471778  0.90292464  0.89516916  1  0.272739  -0.000311  3.762182  0.0  0.3324  3.5e-05  4.025327  0.0  0.332188  -5.8e-05  4.050347  0.0  -0.115885  0.331837  9e-05  4.008453  0.0
N  N61  1  0.97204044  0.59680735  0.60485064  1  0.273593  0.000308  3.761804  0.0  0.333398  -3.5e-05  4.024642  0.0  0.333166  5.8e-05  4.049725  0.0  -0.11489  0.33286  -9.6e-05  4.00775  0.0
N  N62  1  0.82527900  0.09707540  0.10483226  1  0.27266  0.00031  3.762258  0.0  0.332305  -3.7e-05  4.025416  0.0  0.332093  5.6e-05  4.050432  0.0  -0.11591  0.331742  -9e-05  4.00854  0.0
N  N63  1  0.02796069  0.40319779  0.39514966  1  0.27365  -0.000306  3.761671  0.0  0.333493  3.5e-05  4.024502  0.0  0.333258  -5.9e-05  4.049582  0.0  -0.114926  0.332951  9.6e-05  4.007605  0.0
N  N64  1  0.38867967  0.62045411  0.77930315  1  -0.528949  0.021314  2.886175  0.028  -0.592338  0.003712  3.307521  0.005  -0.652213  0.002401  3.326711  0.004  -0.355358  -0.555665  0.004209  3.29614  0.006
N  N65  1  0.78870835  0.87935079  0.72061391  1  -0.529575  -0.02128  2.887987  -0.028  -0.59252  -0.003681  3.30884  -0.005  -0.652378  -0.002371  3.32805  -0.004  -0.354411  -0.555891  -0.004123  3.297573  -0.006
N  N66  1  0.61132204  0.37954586  0.22069487  1  -0.52884  -0.021331  2.886683  -0.028  -0.592193  -0.003714  3.307913  -0.005  -0.652081  -0.002404  3.3272  -0.004  -0.355296  -0.555529  -0.004214  3.296523  -0.006
N  N67  1  0.21128983  0.12065441  0.27938933  1  -0.529516  0.021297  2.888021  0.028  -0.59244  0.003682  3.308861  0.005  -0.652274  0.002373  3.328059  0.004  -0.354422  -0.555814  0.004122  3.297579  0.006
N  N68  1  0.47628602  0.46763162  0.80291888  1  0.395895  -0.010256  4.122044  -0.016  0.440983  -0.001509  4.442401  -0.002  0.463351  -0.00161  4.478531  -0.002  0.102838  0.426919  -0.001309  4.416791  -0.002
N  N69  1  0.74731223  0.03219014  0.69703253  1  0.396213  0.010265  4.123676  0.016  0.441123  0.001497  4.443998  0.002  0.463514  0.001607  4.480116  0.002  0.102453  0.42703  0.001259  4.418346  0.002
N  N70  1  0.52371957  0.53235419  0.19707688  1  0.395893  0.010273  4.122043  0.016  0.440995  0.001509  4.442411  0.002  0.463358  0.00161  4.478527  0.002  0.102836  0.426927  0.001311  4.416796  0.002
N  N71  1  0.25268457  0.96781750  0.30296474  1  0.396038  -0.010276  4.123817  -0.016  0.440934  -0.0015  4.444167  -0.002  0.46332  -0.001608  4.480289  -0.002  0.102387  0.426841  -0.001259  4.418509  -0.002
N  N72  1  0.56326322  0.32411011  0.82620255  1  -0.23965  0.030876  2.384696  0.036  -0.26939  0.005434  2.631712  0.007  -0.282554  0.004179  2.645024  0.005  -0.109979  -0.259125  0.006194  2.621372  0.008
N  N73  1  0.71419227  0.17573536  0.67378339  1  -0.239723  -0.03093  2.385504  -0.036  -0.2696  -0.005446  2.6332  -0.007  -0.282785  -0.0042  2.646463  -0.005  -0.110136  -0.259278  -0.006148  2.622852  -0.008
N  N74  1  0.43672843  0.67588841  0.17378828  1  -0.239764  -0.030945  2.384118  -0.036  -0.269562  -0.005443  2.63118  -0.007  -0.282729  -0.004182  2.644497  -0.005  -0.110084  -0.259291  -0.006206  2.620833  -0.008
N  N75  1  0.28580215  0.82426833  0.32620937  1  -0.239594  0.030965  2.385519  0.036  -0.269469  0.005449  2.633212  0.007  -0.282661  0.0042  2.646499  0.005  -0.110072  -0.259151  0.006148  2.622861  0.008
O  O76  1  0.33507557  0.94828848  0.85566889  1  -0.533198  -0.004257  1.755803  -0.007  -0.515926  -0.002363  2.002717  -0.004  -0.542604  -0.001442  2.000214  -0.003  -0.259216  -0.497574  -0.00307  2.004549  -0.005
O  O77  1  0.13830382  0.55139595  0.64436326  1  -0.53429  0.004262  1.754091  0.007  -0.517051  0.002359  2.000956  0.004  -0.543832  0.001441  1.998466  0.003  -0.260144  -0.498683  0.003061  2.002743  0.005
O  O78  1  0.66492120  0.05170639  0.14433083  1  -0.533196  0.00426  1.755789  0.007  -0.515921  0.002365  2.002707  0.004  -0.542595  0.001444  2.000203  0.003  -0.259226  -0.497562  0.003073  2.004515  0.005
O  O79  1  0.86169554  0.44860923  0.35563880  1  -0.53429  -0.004272  1.754127  -0.007  -0.517076  -0.002363  2.000991  -0.004  -0.54385  -0.001443  1.998509  -0.003  -0.260108  -0.498708  -0.003064  2.002779  -0.005
