# generated using pymatgen
data_Pr3P3H47C37(NO8)3
_symmetry_space_group_name_H-M   'P 1'
_cell_length_a   15.15909848
_cell_length_b   14.94778649
_cell_length_c   15.22912917
_cell_angle_alpha   107.85868379
_cell_angle_beta   103.23063869
_cell_angle_gamma   116.45006175
_symmetry_Int_Tables_number   1
_chemical_formula_structural   Pr3P3H47C37(NO8)3
_chemical_formula_sum   'Pr6 P6 H94 C74 N6 O48'
_cell_volume   2656.58576862
_cell_formula_units_Z   2
loop_
 _symmetry_equiv_pos_site_id
 _symmetry_equiv_pos_as_xyz
  1  'x, y, z'
loop_
 _atom_site_type_symbol
 _atom_site_label
 _atom_site_symmetry_multiplicity
 _atom_site_fract_x
 _atom_site_fract_y
 _atom_site_fract_z
 _atom_site_occupancy
 _atom_site_pbe_bader_charge
 _atom_site_pbe_bader_spin_density
 _atom_site_pbe_cm5_charge
 _atom_site_pbe_ddec_charge
 _atom_site_pbe_ddec_spin_density
 _atom_site_pbe_ddec_sum_bond_order
 _atom_site_pbe_magmom
Pr  Pr0  1  0.18173625  0.88585377  0.31694769  1  2.240896  0  1.543907  2.126352  0  2.153555  0
Pr  Pr1  1  0.81826401  0.11414580  0.68305246  1  2.240889  0  1.543891  2.126342  0  2.153587  0
Pr  Pr2  1  0.44169633  0.14113045  0.30679539  1  2.239796  0  1.532203  2.127019  0  2.118185  0
Pr  Pr3  1  0.55830370  0.85886998  0.69320496  1  2.239799  0  1.532199  2.127009  0  2.118184  0
Pr  Pr4  1  0.58094495  0.93485689  0.35227244  1  2.277428  0  1.5334  2.20031  0  2.021277  0
Pr  Pr5  1  0.41905622  0.06514438  0.64772842  1  2.277403  0  1.53344  2.200339  0  2.021258  0
P  P6  1  0.38197217  0.85299292  0.47541811  1  3.35831  0  0.330219  1.362242  0  5.383315  0
P  P7  1  0.61802787  0.14700751  0.52458224  1  3.358217  0  0.330261  1.362374  0  5.3832  0
P  P8  1  0.30298034  0.82059462  0.19280311  1  3.440677  0  0.312842  1.329239  0  5.446795  0
P  P9  1  0.69702057  0.17940493  0.80719588  1  3.440686  0  0.312849  1.3293  0  5.446762  0
P  P10  1  0.38245707  0.20527286  0.49303858  1  3.422253  0  0.303493  1.316392  0  5.501303  0
P  P11  1  0.61753998  0.79472330  0.50695789  1  3.42225  0  0.303451  1.31642  0  5.501277  0
H  H12  1  0.11489510  0.33046550  0.87315472  1  0.639996  0  0.305718  0.368354  0  0.971236  0
H  H13  1  0.88510311  0.66953405  0.12684233  1  0.640039  0  0.305755  0.368396  0  0.971155  0
H  H14  1  0.68231297  0.84297415  0.24327735  1  0.624334  0  0.322243  0.409294  0  0.885504  0
H  H15  1  0.31768681  0.15702456  0.75672180  1  0.624322  0  0.322223  0.409279  0  0.885528  0
H  H16  1  0.61220714  0.76426854  0.28120241  1  0.625991  0  0.299928  0.39602  0  0.929649  0
H  H17  1  0.38779222  0.23573189  0.71879779  1  0.625941  0  0.299941  0.396044  0  0.929614  0
H  H18  1  0.24081884  0.68035203  0.27871656  1  0.532147  0  0.317194  0.272441  0  0.975643  0
H  H19  1  0.75918186  0.31964837  0.72128263  1  0.532145  0  0.317186  0.27244  0  0.975635  0
H  H20  1  0.35164228  0.91309790  0.06975965  1  0.511115  0  0.332281  0.27398  0  0.896738  0
H  H21  1  0.64835843  0.08690252  0.93024085  1  0.511107  0  0.332265  0.27398  0  0.896744  0
H  H22  1  0.16551663  0.10453189  0.44084904  1  0.506897  0  0.334995  0.274239  0  0.894735  0
H  H23  1  0.83448249  0.89546685  0.55915061  1  0.506906  0  0.334993  0.274223  0  0.894756  0
H  H24  1  0.32346096  0.67092430  0.47065395  1  0.135862  0  0.127996  0.157879  0  1.018015  0
H  H25  1  0.67653862  0.32907528  0.52934605  1  0.135854  0  0.127989  0.157867  0  1.018072  0
H  H26  1  0.21360903  0.68973027  0.44202075  1  0.099206  0  0.127293  0.153645  0  0.986155  0
H  H27  1  0.78639167  0.31027013  0.55797844  1  0.099205  0  0.127312  0.153661  0  0.986125  0
H  H28  1  0.13784512  0.46867204  0.29545364  1  0.031016  0  0.104049  0.076818  0  0.96891  0
H  H29  1  0.86215539  0.53132926  0.70454839  1  0.030862  0  0.10407  0.076861  0  0.968872  0
H  H30  1  0.08156183  0.55102319  0.29053530  1  0.092934  0  0.112231  0.096462  0  1.013432  0
H  H31  1  0.91843821  0.44897724  0.70946505  1  0.092964  0  0.112222  0.096447  0  1.01341  0
H  H32  1  0.01183961  0.39653039  0.11452568  1  0.021479  0  0.094589  0.095379  0  0.991092  0
H  H33  1  0.98816155  0.60346836  0.88547641  1  0.021413  0  0.0946  0.095385  0  0.991087  0
H  H34  1  0.08214909  0.53316122  0.12602360  1  0.100852  0  0.106997  0.124971  0  0.993778  0
H  H35  1  0.91784777  0.46683583  0.87397505  1  0.100879  0  0.107009  0.125011  0  0.993785  0
H  H36  1  0.16176092  0.37610459  0.11554403  1  0.038856  0  0.097908  0.081659  0  0.994953  0
H  H37  1  0.83823751  0.62389412  0.88445349  1  0.038843  0  0.097925  0.081653  0  0.99491  0
H  H38  1  0.34403313  0.52410535  0.16259457  1  0.043709  0  0.107023  0.114962  0  0.952901  0
H  H39  1  0.65596508  0.47589172  0.83740571  1  0.043749  0  0.107033  0.114975  0  0.952855  0
H  H40  1  0.30829140  0.62061078  0.15871556  1  0.063883  0  0.102766  0.107637  0  1.015294  0
H  H41  1  0.69170951  0.37938876  0.84128343  1  0.063894  0  0.102777  0.107677  0  1.015312  0
H  H42  1  0.40489882  0.67564544  0.33692972  1  0.136561  0  0.123412  0.112747  0  1.022706  0
H  H43  1  0.59510211  0.32435412  0.66307058  1  0.136576  0  0.123453  0.112793  0  1.022656  0
H  H44  1  0.31702157  0.53880766  0.32115010  1  0.055442  0  0.112359  0.092613  0  0.951097  0
H  H45  1  0.68297802  0.46119195  0.67885123  1  0.055452  0  0.112409  0.092667  0  0.951151  0
H  H46  1  0.15640673  0.77681625  0.05245241  1  0.158445  0  0.130973  0.163728  0  1.019938  0
H  H47  1  0.84359309  0.22318503  0.94754814  1  0.158436  0  0.130977  0.163774  0  1.019906  0
H  H48  1  0.19226723  0.67630786  0.01398425  1  0.153975  0  0.122995  0.156097  0  1.005576  0
H  H49  1  0.80773348  0.32369255  0.98601559  1  0.153964  0  0.122996  0.156074  0  1.005619  0
H  H50  1  0.27360538  0.69043232  0.90625997  1  0.051738  0  0.110498  0.089285  0  0.986882  0
H  H51  1  0.72639533  0.30956810  0.09374054  1  0.051734  0  0.110501  0.089292  0  0.986854  0
H  H52  1  0.39040816  0.77165499  0.02609449  1  0.130055  0  0.129097  0.127028  0  0.947956  0
H  H53  1  0.60959210  0.22834459  0.97390567  1  0.130055  0  0.129113  0.127047  0  0.947988  0
H  H54  1  0.44178265  0.79854260  0.88486483  1  0.087856  0  0.110163  0.121081  0  0.994626  0
H  H55  1  0.55821784  0.20145867  0.11513587  1  0.087831  0  0.110167  0.121091  0  0.994662  0
H  H56  1  0.47946267  0.92458821  0.98398474  1  0.012906  0  0.096037  0.092486  0  1.034686  0
H  H57  1  0.52053850  0.07541306  0.01601611  1  0.013128  0  0.09602  0.092477  0  1.034678  0
H  H58  1  0.28129570  0.78150478  0.77628042  1  0.062311  0  0.106127  0.094272  0  0.968669  0
H  H59  1  0.71870547  0.21849649  0.22372044  1  0.062294  0  0.106138  0.094296  0  0.968744  0
H  H60  1  0.23130712  0.91623484  0.83283717  1  0.036243  0  0.103787  0.112525  0  0.975107  0
H  H61  1  0.76869405  0.08376642  0.16716369  1  0.036229  0  0.103811  0.112544  0  0.975107  0
H  H62  1  0.34449335  0.99915721  0.95328008  1  0.048795  0  0.104163  0.1087  0  0.989364  0
H  H63  1  0.65550668  0.00084322  0.04672027  1  0.048804  0  0.104169  0.108704  0  0.989362  0
H  H64  1  0.18528267  0.88405413  0.97420028  1  0.108448  0  0.119419  0.106677  0  1.001445  0
H  H65  1  0.81471782  0.11594713  0.02579977  1  0.108439  0  0.119406  0.106652  0  1.001457  0
H  H66  1  0.15268373  0.75584451  0.87483354  1  0.032953  0  0.110736  0.088753  0  0.963587  0
H  H67  1  0.84731743  0.24415673  0.12516599  1  0.032931  0  0.110737  0.088759  0  0.963605  0
H  H68  1  0.33319227  0.34540922  0.52285429  1  0.062152  0  0.124955  0.151557  0  0.958694  0
H  H69  1  0.66680684  0.65458949  0.47714404  1  0.062117  0  0.124963  0.151578  0  0.958645  0
H  H70  1  0.28490565  0.25219224  0.39068708  1  0.163523  0  0.133186  0.1665  0  1.007172  0
H  H71  1  0.71509392  0.74780733  0.60931227  1  0.163318  0  0.133209  0.16653  0  1.007154  0
H  H72  1  0.11750882  0.26397757  0.40347288  1  0.053367  0  0.111101  0.089843  0  0.957573  0
H  H73  1  0.88249144  0.73602202  0.59652793  1  0.053358  0  0.111082  0.089823  0  0.957576  0
H  H74  1  0.10165410  0.14333734  0.30889627  1  0.135431  0  0.121113  0.11117  0  0.994507  0
H  H75  1  0.89834640  0.85666393  0.69110444  1  0.135421  0  0.121117  0.111182  0  0.994495  0
H  H76  1  0.92272467  0.09629803  0.31638113  1  0.071402  0  0.10377  0.112789  0  0.975151  0
H  H77  1  0.07727605  0.90370241  0.68362003  1  0.071386  0  0.103766  0.11278  0  0.97514  0
H  H78  1  0.96736397  0.01325233  0.34463301  1  0.040507  0  0.102989  0.109578  0  0.9952  0
H  H79  1  0.03263628  0.98674724  0.65536714  1  0.040512  0  0.102988  0.109571  0  0.995224  0
H  H80  1  0.98442002  0.21712990  0.49708003  1  0.025936  0  0.107071  0.094605  0  0.971489  0
H  H81  1  0.01557956  0.78286969  0.50291997  1  0.026099  0  0.10707  0.094592  0  0.971483  0
H  H82  1  0.07453224  0.19102589  0.63498902  1  0.10343  0  0.106553  0.119222  0  1.013738  0
H  H83  1  0.92546756  0.80897283  0.36501078  1  0.103425  0  0.10655  0.119224  0  1.013722  0
H  H84  1  0.06151790  0.07343163  0.54661668  1  0.01512  0  0.096743  0.096461  0  1.036364  0
H  H85  1  0.93848234  0.92656793  0.45338281  1  0.014877  0  0.096744  0.096472  0  1.036354  0
H  H86  1  0.24897387  0.23751148  0.61787072  1  0.087944  0  0.119015  0.104188  0  0.979451  0
H  H87  1  0.75102638  0.76248810  0.38212944  1  0.087665  0  0.119031  0.104199  0  0.979448  0
H  H88  1  0.20173453  0.31667929  0.58237884  1  0.067958  0  0.10824  0.082697  0  1.008471  0
H  H89  1  0.79826572  0.68332028  0.41762131  1  0.067945  0  0.108238  0.082693  0  1.008449  0
H  H90  1  0.01294296  0.83319439  0.96365669  1  0.066477  0  0.09926  0.093568  0  1.023957  0
H  H91  1  0.98705775  0.16680603  0.03634381  1  0.066556  0  0.099234  0.09354  0  1.024014  0
H  H92  1  0.87220906  0.81955631  0.82462088  1  0.062964  0  0.098258  0.095845  0  1.022189  0
H  H93  1  0.12779097  0.18044412  0.17537947  1  0.062987  0  0.098258  0.095848  0  1.022186  0
H  H94  1  0.75620837  0.93135855  0.03788246  1  0.070814  0  0.102715  0.102081  0  1.037467  0
H  H95  1  0.24379233  0.06864186  0.96211738  1  0.070787  0  0.1027  0.102051  0  1.037526  0
H  H96  1  0.89702764  0.94573636  0.17673000  1  0.066509  0  0.100309  0.098245  0  1.038919  0
H  H97  1  0.10297307  0.05426405  0.82326984  1  0.066605  0  0.100312  0.09826  0  1.038916  0
H  H98  1  0.99403723  0.58070123  0.41260886  1  0.11582  0  0.102748  0.105753  0  1.009217  0
H  H99  1  0.00596122  0.41929753  0.58739131  1  0.115828  0  0.102739  0.105742  0  1.009175  0
H  H100  1  0.83429672  0.43133734  0.42172840  1  0.080361  0  0.104189  0.112351  0  1.003109  0
H  H101  1  0.16570218  0.56866225  0.57827145  1  0.08037  0  0.104218  0.112374  0  1.003124  0
H  H102  1  0.61324131  0.43223286  0.18974581  1  0.098606  0  0.113966  0.125112  0  0.977421  0
H  H103  1  0.38675985  0.56776839  0.81025438  1  0.098661  0  0.113963  0.125118  0  0.977473  0
H  H104  1  0.77083476  0.57756358  0.17738302  1  0.072163  0  0.110257  0.112648  0  1.00334  0
H  H105  1  0.22916684  0.42243597  0.82261677  1  0.072141  0  0.110257  0.112662  0  1.003335  0
C  C106  1  0.28449259  0.70044787  0.42793030  1  -0.251519  0  -0.062243  -0.371079  0  3.717761  0
C  C107  1  0.71550609  0.29955256  0.57206909  1  -0.251421  0  -0.062235  -0.371077  0  3.71776  0
C  C108  1  0.13325411  0.52603177  0.26611290  1  0.219983  0  -0.060653  -0.056397  0  3.810338  0
C  C109  1  0.86674504  0.47396953  0.73388816  1  0.220116  0  -0.06064  -0.056366  0  3.810282  0
C  C110  1  0.09303828  0.47555341  0.15067746  1  -0.016883  0  -0.160385  -0.192898  0  3.901268  0
C  C111  1  0.90696085  0.52444533  0.84932285  1  -0.016788  0  -0.160398  -0.19296  0  3.901303  0
C  C112  1  0.17035345  0.45237928  0.11343769  1  0.013277  0  -0.089208  -0.116212  0  3.870169  0
C  C113  1  0.82964524  0.54762115  0.88656169  1  0.013376  0  -0.089267  -0.116209  0  3.870221  0
C  C114  1  0.29097806  0.55196347  0.17888485  1  -0.005749  0  -0.154393  -0.188091  0  3.891962  0
C  C115  1  0.70902082  0.44803357  0.82111426  1  -0.0058  0  -0.154396  -0.18815  0  3.891948  0
C  C116  1  0.32212748  0.59952464  0.29276250  1  0.190176  0  -0.056  -0.051847  0  3.766898  0
C  C117  1  0.67787234  0.40047663  0.70723739  1  0.19014  0  -0.05606  -0.051883  0  3.766937  0
C  C118  1  0.14158061  0.43232428  0.00368225  1  1.540658  0  0.234726  0.611709  0  4.0517  0
C  C119  1  0.85841293  0.56768540  0.99631011  1  1.540603  0  0.234617  0.611499  0  4.051021  0
C  C120  1  0.22422498  0.76629516  0.05707429  1  -0.383754  0  -0.069677  -0.395772  0  3.731295  0
C  C121  1  0.77577640  0.23370524  0.94292571  1  -0.383767  0  -0.069697  -0.395845  0  3.73133  0
C  C122  1  0.34106430  0.77675576  0.96507188  1  0.202871  0  -0.055691  -0.060283  0  3.768092  0
C  C123  1  0.65893573  0.22324466  0.03492782  1  0.202851  0  -0.055709  -0.060296  0  3.768055  0
C  C124  1  0.40856074  0.84324226  0.92098950  1  -0.009663  0  -0.163342  -0.199105  0  3.925851  0
C  C125  1  0.59144089  0.15675984  0.07901104  1  -0.009561  0  -0.163306  -0.199089  0  3.92583  0
C  C126  1  0.34358453  0.86353566  0.84526248  1  -0.028371  0  -0.088081  -0.119814  0  3.866077  0
C  C127  1  0.65641618  0.13646476  0.15473803  1  -0.028379  0  -0.088111  -0.119871  0  3.866168  0
C  C128  1  0.28504243  0.91199041  0.89115461  1  0.000501  0  -0.16093  -0.196013  0  3.934283  0
C  C129  1  0.71495762  0.08801003  0.10884641  1  0.000507  0  -0.160955  -0.196027  0  3.934281  0
C  C130  1  0.21869438  0.84270803  0.93404761  1  0.223487  0  -0.055989  -0.059778  0  3.79414  0
C  C131  1  0.78130678  0.15729323  0.06595258  1  0.223523  0  -0.05599  -0.059766  0  3.794043  0
C  C132  1  0.41316845  0.93744199  0.80549589  1  1.590527  0  0.235091  0.650504  0  4.131537  0
C  C133  1  0.58683226  0.06255843  0.19450461  1  1.590551  0  0.235092  0.650516  0  4.131561  0
C  C134  1  0.29531568  0.25759135  0.46629451  1  -0.302255  0  -0.066644  -0.381343  0  3.731032  0
C  C135  1  0.70468322  0.74240822  0.53370468  1  -0.302024  0  -0.066647  -0.381379  0  3.730916  0
C  C136  1  0.09629428  0.17709856  0.38085334  1  0.190477  0  -0.055468  -0.056553  0  3.775343  0
C  C137  1  0.90370530  0.82290103  0.61914666  1  0.190499  0  -0.055444  -0.056557  0  3.775244  0
C  C138  1  0.98462862  0.09913901  0.37343336  1  -0.023368  0  -0.162051  -0.198698  0  3.927181  0
C  C139  1  0.01537209  0.90086140  0.62656649  1  -0.023367  0  -0.16206  -0.198711  0  3.927119  0
C  C140  1  0.97803701  0.13607600  0.47597751  1  0.008728  0  -0.088051  -0.114508  0  3.855683  0
C  C141  1  0.02196324  0.86392357  0.52402265  1  0.008549  0  -0.088042  -0.114412  0  3.855579  0
C  C142  1  0.07282098  0.15485933  0.55974281  1  -0.028033  0  -0.167463  -0.205839  0  3.920456  0
C  C143  1  0.92717927  0.84514024  0.44025735  1  -0.027737  0  -0.167473  -0.205882  0  3.92044  0
C  C144  1  0.18238243  0.23099907  0.56313095  1  0.196988  0  -0.05772  -0.055954  0  3.787066  0
C  C145  1  0.81761782  0.76900050  0.43686921  1  0.197219  0  -0.057741  -0.055966  0  3.787047  0
C  C146  1  0.86583879  0.05469044  0.46839332  1  1.587648  0  0.232926  0.647183  0  4.137479  0
C  C147  1  0.13416079  0.94530916  0.53160734  1  1.587638  0  0.232891  0.647042  0  4.137529  0
C  C148  1  0.04761451  0.90128918  0.16091410  1  1.53128  0  0.193802  0.573121  0  4.231687  0
C  C149  1  0.95238394  0.09870956  0.83908540  1  1.531322  0  0.193796  0.57318  0  4.231692  0
C  C150  1  0.96434422  0.89272784  0.07837449  1  -0.029992  0  -0.009776  -0.009677  0  3.964795  0
C  C151  1  0.03565603  0.10727172  0.92162501  1  -0.029944  0  -0.00976  -0.009694  0  3.964696  0
C  C152  1  0.95652370  0.85510903  0.97893266  1  -0.008491  0  -0.082109  -0.092138  0  3.989435  0
C  C153  1  0.04347567  0.14489142  0.02106820  1  -0.008569  0  -0.082138  -0.092184  0  3.98949  0
C  C154  1  0.87879443  0.84726724  0.90221917  1  -0.026403  0  -0.082614  -0.096055  0  3.986539  0
C  C155  1  0.12120607  0.15273404  0.09778154  1  -0.026426  0  -0.082575  -0.09599  0  3.9865  0
C  C156  1  0.80803858  0.87711951  0.92421954  1  -0.01486  0  -0.011005  -0.014272  0  3.955958  0
C  C157  1  0.19196327  0.12288175  0.07578147  1  -0.015057  0  -0.010976  -0.014241  0  3.955854  0
C  C158  1  0.81399589  0.91175187  0.02302862  1  -0.045523  0  -0.085584  -0.097636  0  3.981203  0
C  C159  1  0.18600641  0.08825022  0.97697207  1  -0.045408  0  -0.085572  -0.097595  0  3.981186  0
C  C160  1  0.89184853  0.91977462  0.09969659  1  -0.035308  0  -0.088368  -0.102391  0  3.983939  0
C  C161  1  0.10815263  0.08022662  0.90030294  1  -0.035493  0  -0.088386  -0.102435  0  3.98388  0
C  C162  1  0.72887076  0.87629047  0.84443735  1  1.539151  0  0.194084  0.576749  0  4.232986  0
C  C163  1  0.27112927  0.12370994  0.15556234  1  1.539295  0  0.194047  0.576745  0  4.233156  0
C  C164  1  0.98785071  0.68027358  0.29427721  1  1.559981  0  0.204095  0.566742  0  4.237893  0
C  C165  1  0.01215340  0.31972935  0.70572414  1  1.559932  0  0.204091  0.566692  0  4.237651  0
C  C166  1  0.89212552  0.58752345  0.29431289  1  -0.006831  0  -0.017598  -0.036121  0  3.977983  0
C  C167  1  0.10787427  0.41247528  0.70568692  1  -0.006739  0  -0.017562  -0.036089  0  3.978095  0
C  C168  1  0.91015504  0.54642939  0.36333902  1  -0.099718  0  -0.09128  -0.115641  0  4.011635  0
C  C169  1  0.08984589  0.45357019  0.63666195  1  -0.099666  0  -0.091248  -0.115613  0  4.011552  0
C  C170  1  0.82242554  0.46514517  0.36924911  1  -0.004796  0  -0.091163  -0.115919  0  4.002479  0
C  C171  1  0.17757517  0.53485525  0.63075139  1  -0.004797  0  -0.091201  -0.115973  0  4.002534  0
C  C172  1  0.71543038  0.42463295  0.30685684  1  -0.068348  0  -0.011538  -0.012931  0  3.957075  0
C  C173  1  0.28456920  0.57536664  0.69314316  1  -0.068538  0  -0.011543  -0.012894  0  3.957172  0
C  C174  1  0.69716120  0.46529671  0.23770657  1  -0.032341  0  -0.080734  -0.101642  0  3.957731  0
C  C175  1  0.30284042  0.53470539  0.76229397  1  -0.032257  0  -0.080764  -0.101735  0  3.957795  0
C  C176  1  0.78496496  0.54587046  0.23107386  1  -0.097372  0  -0.078447  -0.090648  0  3.960004  0
C  C177  1  0.21503528  0.45412910  0.76892564  1  -0.09747  0  -0.078407  -0.090561  0  3.959857  0
C  C178  1  0.62097827  0.33522417  0.31221230  1  1.571037  0  0.184588  0.546775  0  4.29215  0
C  C179  1  0.37902085  0.66477456  0.68778735  1  1.571027  0  0.184627  0.54681  0  4.29209  0
N  N180  1  0.24595334  0.63106122  0.31611313  1  -1.02538  0  -0.3436  0.018237  0  3.551087  0
N  N181  1  0.75404737  0.36893921  0.68388804  1  -1.02537  0  -0.343602  0.018192  0  3.551039  0
N  N182  1  0.28886565  0.83139262  0.01161118  1  -1.012707  0  -0.334383  0.046267  0  3.530748  0
N  N183  1  0.71113438  0.16860778  0.98838785  1  -1.012697  0  -0.3344  0.046266  0  3.530715  0
N  N184  1  0.18410669  0.18626606  0.46093912  1  -0.998543  0  -0.336307  0.042204  0  3.533185  0
N  N185  1  0.81589448  0.81373520  0.53906107  1  -0.99855  0  -0.336284  0.042256  0  3.533087  0
O  O186  1  0.44632814  0.90474571  0.59181781  1  -1.469255  0  -0.490936  -0.915189  0  2.307317  0
O  O187  1  0.55367323  0.09525468  0.40818153  1  -1.46917  0  -0.490936  -0.915215  0  2.307281  0
O  O188  1  0.44973890  0.86384843  0.41544095  1  -1.477464  0  -0.452174  -0.848263  0  2.325071  0
O  O189  1  0.55026180  0.13615197  0.58455823  1  -1.477508  0  -0.452232  -0.848362  0  2.32512  0
O  O190  1  0.31766288  0.90907012  0.46475251  1  -1.475592  0  -0.501962  -0.939468  0  2.297831  0
O  O191  1  0.68233737  0.09092946  0.53524764  1  -1.475592  0  -0.501969  -0.939506  0  2.29785  0
O  O192  1  0.11348054  0.48545127  0.97056674  1  -1.163344  0  -0.299923  -0.509537  0  2.096652  0
O  O193  1  0.88652037  0.51454078  0.02943861  1  -1.163003  0  -0.299938  -0.50954  0  2.095224  0
O  O194  1  0.15332785  0.35331516  0.94813799  1  -1.167278  0  -0.34191  -0.502269  0  2.281613  0
O  O195  1  0.84667150  0.64668525  0.05186089  1  -1.167718  0  -0.341839  -0.50214  0  2.281956  0
O  O196  1  0.21991029  0.74487396  0.22288786  1  -1.460072  0  -0.42376  -0.799194  0  2.22017  0
O  O197  1  0.78008974  0.25512646  0.77711183  1  -1.460091  0  -0.42376  -0.799207  0  2.220187  0
O  O198  1  0.32522077  0.93893955  0.24781326  1  -1.476877  0  -0.509337  -0.930497  0  2.404519  0
O  O199  1  0.67477949  0.06106002  0.75218689  1  -1.476894  0  -0.509339  -0.93052  0  2.404578  0
O  O200  1  0.40449677  0.81837392  0.20597706  1  -1.475216  0  -0.452645  -0.840568  0  2.210344  0
O  O201  1  0.59550167  0.18162482  0.79402244  1  -1.475207  0  -0.45264  -0.840572  0  2.210311  0
O  O202  1  0.50604695  0.95211974  0.82015875  1  -1.219987  0  -0.381513  -0.670708  0  2.298508  0
O  O203  1  0.49395330  0.04787983  0.17984141  1  -1.220026  0  -0.381505  -0.670684  0  2.298488  0
O  O204  1  0.37329583  0.97769078  0.75968344  1  -1.203274  0  -0.382507  -0.653285  0  2.220517  0
O  O205  1  0.62670488  0.02230963  0.24031640  1  -1.20328  0  -0.382488  -0.653278  0  2.22055  0
O  O206  1  0.39564945  0.20347946  0.59545202  1  -1.488724  0  -0.431804  -0.859313  0  2.21699  0
O  O207  1  0.60435060  0.79652100  0.40454965  1  -1.488744  0  -0.431783  -0.859337  0  2.217098  0
O  O208  1  0.31852349  0.08520379  0.40165735  1  -1.477536  0  -0.510128  -0.939044  0  2.387698  0
O  O209  1  0.68147701  0.91479748  0.59834335  1  -1.477476  0  -0.510157  -0.939055  0  2.387472  0
O  O210  1  0.48431655  0.27933706  0.48287852  1  -1.472073  0  -0.432055  -0.816028  0  2.09554  0
O  O211  1  0.51568415  0.72066334  0.51712066  1  -1.472094  0  -0.432009  -0.816  0  2.09561  0
O  O212  1  0.78204857  0.01167564  0.38805400  1  -1.206924  0  -0.367504  -0.667448  0  2.240888  0
O  O213  1  0.21795079  0.98832478  0.61194554  1  -1.206893  0  -0.367487  -0.667384  0  2.240882  0
O  O214  1  0.86416583  0.03711933  0.54521287  1  -1.224506  0  -0.394402  -0.677665  0  2.308174  0
O  O215  1  0.13583327  0.96287939  0.45478546  1  -1.224511  0  -0.394402  -0.677619  0  2.308181  0
O  O216  1  0.08376780  0.71620581  0.35292739  1  -1.194534  0  -0.355722  -0.609262  0  2.225219  0
O  O217  1  0.91623086  0.28379208  0.64707192  1  -1.194434  0  -0.355739  -0.609294  0  2.225082  0
O  O218  1  0.97232991  0.72708176  0.23985452  1  -1.200023  0  -0.349208  -0.630168  0  2.32328  0
O  O219  1  0.02767147  0.27291615  0.76014804  1  -1.200065  0  -0.349235  -0.630149  0  2.323007  0
O  O220  1  0.64164478  0.28996410  0.36604399  1  -1.184523  0  -0.38094  -0.630586  0  2.221085  0
O  O221  1  0.35835436  0.71003718  0.63395575  1  -1.184526  0  -0.380947  -0.630595  0  2.221049  0
O  O222  1  0.52472500  0.30496051  0.26132138  1  -1.181625  0  -0.367538  -0.61917  0  2.152546  0
O  O223  1  0.47527571  0.69503990  0.73867846  1  -1.181595  0  -0.367559  -0.619195  0  2.152536  0
O  O224  1  0.06991190  0.95786100  0.25427668  1  -1.190149  0  -0.380368  -0.634117  0  2.213503  0
O  O225  1  0.93008723  0.04213776  0.74572430  1  -1.190156  0  -0.380344  -0.634113  0  2.213505  0
O  O226  1  0.09324451  0.84961847  0.13638635  1  -1.184813  0  -0.377772  -0.632785  0  2.237574  0
O  O227  1  0.90675733  0.15038278  0.86361399  1  -1.18486  0  -0.377778  -0.632819  0  2.237596  0
O  O228  1  0.70725931  0.82437382  0.75060766  1  -1.190691  0  -0.374402  -0.637475  0  2.199312  0
O  O229  1  0.29274161  0.17562574  0.24939199  1  -1.1907  0  -0.374421  -0.637501  0  2.199438  0
O  O230  1  0.68540840  0.92936726  0.87307063  1  -1.178623  0  -0.385563  -0.633566  0  2.211846  0
O  O231  1  0.31459097  0.07063318  0.12693023  1  -1.178596  0  -0.385528  -0.633569  0  2.21188  0
O  O232  1  0.60688152  0.78989468  0.22867892  1  -1.231413  0  -0.612247  -0.79415  0  1.894842  0
O  O233  1  0.39311625  0.21010407  0.77132043  1  -1.231371  0  -0.612236  -0.794162  0  1.894822  0
