# generated using pymatgen
data_CdH16C12(N2O3)2
_symmetry_space_group_name_H-M   'P 1'
_cell_length_a   8.42934849
_cell_length_b   8.66737104
_cell_length_c   11.27163443
_cell_angle_alpha   102.85353475
_cell_angle_beta   90.00027008
_cell_angle_gamma   90.00008413
_symmetry_Int_Tables_number   1
_chemical_formula_structural   CdH16C12(N2O3)2
_chemical_formula_sum   'Cd2 H32 C24 N8 O12'
_cell_volume   802.87334245
_cell_formula_units_Z   2
loop_
 _symmetry_equiv_pos_site_id
 _symmetry_equiv_pos_as_xyz
  1  'x, y, z'
loop_
 _atom_site_type_symbol
 _atom_site_label
 _atom_site_symmetry_multiplicity
 _atom_site_fract_x
 _atom_site_fract_y
 _atom_site_fract_z
 _atom_site_occupancy
 _atom_site_hle17_bader_spin_density
 _atom_site_hle17_ddec_charge
 _atom_site_hle17_ddec_spin_density
 _atom_site_hle17_ddec_sum_bond_order
 _atom_site_hle17_magmom
 _atom_site_hse06_10hf_bader_spin_density
 _atom_site_hse06_10hf_ddec_charge
 _atom_site_hse06_10hf_ddec_spin_density
 _atom_site_hse06_10hf_ddec_sum_bond_order
 _atom_site_hse06_10hf_magmom
 _atom_site_hse06_bader_spin_density
 _atom_site_hse06_ddec_charge
 _atom_site_hse06_ddec_spin_density
 _atom_site_hse06_ddec_sum_bond_order
 _atom_site_hse06_magmom
 _atom_site_pbe_bader_spin_density
 _atom_site_pbe_cm5_charge
 _atom_site_pbe_ddec_charge
 _atom_site_pbe_ddec_spin_density
 _atom_site_pbe_ddec_sum_bond_order
 _atom_site_pbe_magmom
Cd  Cd0  1  0.49999989  0.00000113  0.50000118  1  0  1.14734  0  1.709583  0  0  0.965367  0  2.156769  0  0  1.016945  0  2.105047  0  0  0.774305  0.928705  0  2.19221  0
Cd  Cd1  1  0.99999700  0.50000068  0.00000024  1  0  1.147291  0  1.709625  0  0  0.965314  0  2.156823  0  0  1.016891  0  2.105105  0  0  0.774299  0.928653  0  2.192262  0
H  H2  1  0.48796988  0.18430057  0.26197356  1  0  0.099196  0  0.962637  0  0  0.109788  0  1.022404  0  0  0.112175  0  1.021285  0  0  0.114559  0.108079  0  1.023245  0
H  H3  1  0.98796465  0.31570714  0.23803147  1  0  0.099163  0  0.962582  0  0  0.109701  0  1.022414  0  0  0.112088  0  1.021294  0  0  0.114489  0.107999  0  1.023235  0
H  H4  1  0.51203185  0.81570167  0.73802731  1  0  0.099187  0  0.962578  0  0  0.109776  0  1.022355  0  0  0.112164  0  1.021236  0  0  0.114548  0.108067  0  1.023195  0
H  H5  1  0.01202877  0.68429392  0.76197185  1  0  0.099151  0  0.962647  0  0  0.109739  0  1.022421  0  0  0.112127  0  1.021299  0  0  0.114516  0.108031  0  1.023258  0
H  H6  1  0.31331129  0.46076184  0.26591239  1  0  0.13092  0  0.985779  0  0  0.13896  0  1.045973  0  0  0.142886  0  1.043175  0  0  0.119811  0.136035  0  1.048177  0
H  H7  1  0.81330918  0.03924067  0.23408938  1  0  0.130894  0  0.985836  0  0  0.138943  0  1.046018  0  0  0.142867  0  1.043225  0  0  0.119801  0.136017  0  1.04822  0
H  H8  1  0.68668807  0.53923802  0.73408719  1  0  0.130929  0  0.98583  0  0  0.138981  0  1.046  0  0  0.142909  0  1.043205  0  0  0.119813  0.136054  0  1.048203  0
H  H9  1  0.18669018  0.96075683  0.76591069  1  0  0.130945  0  0.985746  0  0  0.138991  0  1.045931  0  0  0.142921  0  1.043135  0  0  0.11981  0.136065  0  1.048134  0
H  H10  1  0.32050387  0.36322657  0.61814190  1  0  0.101518  0  0.966508  0  0  0.107068  0  1.038889  0  0  0.110104  0  1.034942  0  0  0.134042  0.104811  0  1.041719  0
H  H11  1  0.82050878  0.13677575  0.88185919  1  0  0.10136  0  0.966488  0  0  0.10695  0  1.038824  0  0  0.109985  0  1.034878  0  0  0.133976  0.104691  0  1.041662  0
H  H12  1  0.67949904  0.63677566  0.38185719  1  0  0.101501  0  0.966439  0  0  0.107062  0  1.038807  0  0  0.110098  0  1.034861  0  0  0.134017  0.104805  0  1.041638  0
H  H13  1  0.17949414  0.86322176  0.11814087  1  0  0.101413  0  0.966544  0  0  0.106997  0  1.038874  0  0  0.110032  0  1.034928  0  0  0.134003  0.104735  0  1.041723  0
H  H14  1  0.17117453  0.60099563  0.59734903  1  0  0.104926  0  0.948363  0  0  0.126053  0  1.011214  0  0  0.126888  0  1.011274  0  0  0.110979  0.125339  0  1.0113  0
H  H15  1  0.67117878  0.89900983  0.90265058  1  0  0.104926  0  0.948347  0  0  0.12603  0  1.011229  0  0  0.126867  0  1.011286  0  0  0.110984  0.125317  0  1.011315  0
H  H16  1  0.82882720  0.39900779  0.40265115  1  0  0.104938  0  0.948355  0  0  0.126077  0  1.011197  0  0  0.126913  0  1.011256  0  0  0.111003  0.125362  0  1.011285  0
H  H17  1  0.32883007  0.10098648  0.09734751  1  0  0.10498  0  0.948285  0  0  0.126063  0  1.011189  0  0  0.1269  0  1.011245  0  0  0.110997  0.12535  0  1.011276  0
H  H18  1  0.09084875  0.59521605  0.44875955  1  0  0.106029  0  0.932684  0  0  0.126544  0  0.994588  0  0  0.12714  0  0.994741  0  0  0.107139  0.12599  0  0.994583  0
H  H19  1  0.59085078  0.90478587  0.05123896  1  0  0.105928  0  0.93269  0  0  0.126454  0  0.994599  0  0  0.12705  0  0.99475  0  0  0.107102  0.1259  0  0.994592  0
H  H20  1  0.90915535  0.40478618  0.55124043  1  0  0.106005  0  0.932731  0  0  0.126531  0  0.99462  0  0  0.127127  0  0.994774  0  0  0.107124  0.125977  0  0.994614  0
H  H21  1  0.40915570  0.09520689  0.94875765  1  0  0.106036  0  0.932745  0  0  0.126572  0  0.994608  0  0  0.127168  0  0.994762  0  0  0.107167  0.126019  0  0.994602  0
H  H22  1  0.27090085  0.69966858  0.49628269  1  0  0.107105  0  0.964568  0  0  0.120585  0  1.038945  0  0  0.121604  0  1.038671  0  0  0.10555  0.119708  0  1.039293  0
H  H23  1  0.77090242  0.80033262  0.00371721  1  0  0.107101  0  0.964568  0  0  0.120594  0  1.038933  0  0  0.121612  0  1.038661  0  0  0.105541  0.119715  0  1.039283  0
H  H24  1  0.72910206  0.30033246  0.50371619  1  0  0.107152  0  0.964577  0  0  0.120632  0  1.03895  0  0  0.121652  0  1.038675  0  0  0.105575  0.119754  0  1.039297  0
H  H25  1  0.22910405  0.19966488  0.99628286  1  0  0.107117  0  0.964601  0  0  0.120603  0  1.038974  0  0  0.121623  0  1.038699  0  0  0.10557  0.119726  0  1.039323  0
H  H26  1  0.47630038  0.78256590  0.26076531  1  0  0.415451  0  0.890801  0  0  0.380716  0  0.96097  0  0  0.39208  0  0.944487  0  0  0.2816  0.372667  0  0.972617  0
H  H27  1  0.97629858  0.71743347  0.23923590  1  0  0.415446  0  0.890813  0  0  0.380695  0  0.960998  0  0  0.392059  0  0.944515  0  0  0.281602  0.372647  0  0.972643  0
H  H28  1  0.52370016  0.21743396  0.73923427  1  0  0.415494  0  0.890738  0  0  0.380761  0  0.960904  0  0  0.392125  0  0.944421  0  0  0.281621  0.372713  0  0.972549  0
H  H29  1  0.02369840  0.28256759  0.76076566  1  0  0.41544  0  0.890814  0  0  0.380702  0  0.960989  0  0  0.392067  0  0.944506  0  0  0.281594  0.372654  0  0.972633  0
H  H30  1  0.30225272  0.85518817  0.30342259  1  0  0.407246  0  0.905189  0  0  0.372155  0  0.976395  0  0  0.383785  0  0.959453  0  0  0.278424  0.363923  0  0.988359  0
H  H31  1  0.80225172  0.64481193  0.19657813  1  0  0.407194  0  0.905267  0  0  0.372102  0  0.976475  0  0  0.383732  0  0.959533  0  0  0.278399  0.36387  0  0.988439  0
H  H32  1  0.69774782  0.14481288  0.69657808  1  0  0.40719  0  0.90527  0  0  0.372102  0  0.976473  0  0  0.383732  0  0.95953  0  0  0.278406  0.363868  0  0.988439  0
H  H33  1  0.19774645  0.35518911  0.80342165  1  0  0.407211  0  0.905248  0  0  0.372119  0  0.976457  0  0  0.38375  0  0.959514  0  0  0.278405  0.363886  0  0.988422  0
C  C34  1  0.42682191  0.26268243  0.33606284  1  0  -0.001641  0  3.774538  0  0  -0.034747  0  4.040023  0  0  -0.033047  0  4.061523  0  0  -0.008957  -0.035913  0  4.025525  0
C  C35  1  0.92681729  0.23732039  0.16394204  1  0  -0.00155  0  3.774365  0  0  -0.034618  0  4.039871  0  0  -0.032917  0  4.061368  0  0  -0.008891  -0.035784  0  4.025374  0
C  C36  1  0.57318100  0.73731743  0.66393496  1  0  -0.001558  0  3.77456  0  0  -0.03467  0  4.040051  0  0  -0.032971  0  4.061553  0  0  -0.008947  -0.035838  0  4.02555  0
C  C37  1  0.07317495  0.76267831  0.83606177  1  0  -0.001608  0  3.774323  0  0  -0.034718  0  4.039808  0  0  -0.033017  0  4.061305  0  0  -0.008926  -0.035883  0  4.025309  0
C  C38  1  0.34248454  0.39873572  0.33696584  1  0  -0.083983  0  3.660474  0  0  -0.121919  0  3.912645  0  0  -0.121435  0  3.931596  0  0  -0.006138  -0.122177  0  3.900052  0
C  C39  1  0.84248445  0.10126807  0.16303979  1  0  -0.083885  0  3.660193  0  0  -0.121819  0  3.912354  0  0  -0.121336  0  3.931305  0  0  -0.006105  -0.122075  0  3.89976  0
C  C40  1  0.65751719  0.60126653  0.66303769  1  0  -0.084029  0  3.660227  0  0  -0.121953  0  3.912379  0  0  -0.121474  0  3.93133  0  0  -0.006159  -0.122204  0  3.899783  0
C  C41  1  0.15751609  0.89872944  0.83696294  1  0  -0.083973  0  3.660139  0  0  -0.121904  0  3.912296  0  0  -0.121427  0  3.931251  0  0  -0.006119  -0.12216  0  3.899701  0
C  C42  1  0.34302605  0.34911561  0.52161516  1  0  0.148975  0  3.670308  0  0  0.086448  0  3.935699  0  0  0.100016  0  3.949752  0  0  0.136133  0.077703  0  3.925938  0
C  C43  1  0.84302922  0.15088796  0.97838888  1  0  0.149149  0  3.67045  0  0  0.086585  0  3.93589  0  0  0.100156  0  3.949941  0  0  0.136244  0.077841  0  3.92612  0
C  C44  1  0.65697567  0.65088899  0.47838610  1  0  0.149034  0  3.67021  0  0  0.086501  0  3.935615  0  0  0.100068  0  3.949667  0  0  0.136193  0.077759  0  3.925851  0
C  C45  1  0.15697132  0.84910956  0.02161385  1  0  0.149081  0  3.670326  0  0  0.086521  0  3.935755  0  0  0.10009  0  3.949808  0  0  0.136229  0.077773  0  3.925988  0
C  C46  1  0.19997123  0.59553672  0.50184187  1  0  -0.17022  0  3.629115  0  0  -0.273399  0  3.873933  0  0  -0.270413  0  3.883716  0  0  -0.127149  -0.275105  0  3.867324  0
C  C47  1  0.69997372  0.90446527  0.99815814  1  0  -0.170122  0  3.629161  0  0  -0.273286  0  3.873931  0  0  -0.270299  0  3.883714  0  0  -0.127125  -0.274992  0  3.867323  0
C  C48  1  0.80003050  0.40446551  0.49815722  1  0  -0.170337  0  3.629221  0  0  -0.273528  0  3.874047  0  0  -0.270544  0  3.883829  0  0  -0.127228  -0.27523  0  3.867437  0
C  C49  1  0.30003157  0.09552867  0.00184044  1  0  -0.170287  0  3.629248  0  0  -0.273453  0  3.874086  0  0  -0.270466  0  3.883868  0  0  -0.127217  -0.275158  0  3.867476  0
C  C50  1  0.11212426  0.00462955  0.54076857  1  0  0.180382  0  3.905679  0  0  0.159462  0  4.186029  0  0  0.171934  0  4.199769  0  0  0.088828  0.150979  0  4.176424  0
C  C51  1  0.61211952  0.49537342  0.95923368  1  0  0.180436  0  3.90556  0  0  0.159491  0  4.185935  0  0  0.171966  0  4.19967  0  0  0.088798  0.151007  0  4.176334  0
C  C52  1  0.88787391  0.99538570  0.45923271  1  0  0.180355  0  3.905432  0  0  0.159376  0  4.185885  0  0  0.171847  0  4.199626  0  0  0.088838  0.150895  0  4.176278  0
C  C53  1  0.38787509  0.50461461  0.04076391  1  0  0.180509  0  3.905445  0  0  0.159529  0  4.185869  0  0  0.172003  0  4.199605  0  0  0.088918  0.151046  0  4.176267  0
C  C54  1  0.95232816  0.06335697  0.58190813  1  0  0.18205  0  3.877982  0  0  0.158517  0  4.15366  0  0  0.170219  0  4.167649  0  0  0.09279  0.150636  0  4.143871  0
C  C55  1  0.45232882  0.43664923  0.91809231  1  0  0.181932  0  3.877985  0  0  0.158427  0  4.153627  0  0  0.170129  0  4.167614  0  0  0.092753  0.150545  0  4.143844  0
C  C56  1  0.04766882  0.93665118  0.41809196  1  0  0.182138  0  3.877922  0  0  0.158584  0  4.153612  0  0  0.170286  0  4.167602  0  0  0.092826  0.150703  0  4.143823  0
C  C57  1  0.54766460  0.56334589  0.08190380  1  0  0.182086  0  3.877997  0  0  0.158559  0  4.153663  0  0  0.170263  0  4.167648  0  0  0.092829  0.150676  0  4.14388  0
N  N58  1  0.42615316  0.23290053  0.45148314  1  0  -0.405468  0  3.289114  0  0  -0.32767  0  3.569155  0  0  -0.349701  0  3.588042  0  0  -0.364369  -0.312576  0  3.555872  0
N  N59  1  0.92615260  0.26710465  0.04852124  1  0  -0.405509  0  3.289278  0  0  -0.327692  0  3.569304  0  0  -0.349728  0  3.588201  0  0  -0.364335  -0.312598  0  3.55602  0
N  N60  1  0.57384975  0.76710289  0.54851881  1  0  -0.405529  0  3.289273  0  0  -0.327731  0  3.569321  0  0  -0.349764  0  3.588211  0  0  -0.36437  -0.312639  0  3.556036  0
N  N61  1  0.07384201  0.73289641  0.95148119  1  0  -0.405351  0  3.289158  0  0  -0.32754  0  3.569192  0  0  -0.349573  0  3.588087  0  0  -0.364304  -0.312445  0  3.555906  0
N  N62  1  0.29038840  0.45172366  0.45540661  1  0  -0.018203  0  3.595522  0  0  0.08376  0  3.81124  0  0  0.069269  0  3.838871  0  0  -0.245622  0.093304  0  3.792382  0
N  N63  1  0.79038985  0.04827878  0.04459151  1  0  -0.01833  0  3.595355  0  0  0.083621  0  3.811142  0  0  0.069129  0  3.838771  0  0  -0.245709  0.093164  0  3.792283  0
N  N64  1  0.70961451  0.54827856  0.54459070  1  0  -0.018166  0  3.595192  0  0  0.083777  0  3.810943  0  0  0.069288  0  3.838571  0  0  -0.245613  0.093313  0  3.792084  0
N  N65  1  0.20961069  0.95171752  0.95540480  1  0  -0.018353  0  3.595521  0  0  0.083613  0  3.811274  0  0  0.069121  0  3.838906  0  0  -0.245741  0.093157  0  3.792414  0
O  O66  1  0.24492473  0.00971159  0.59283970  1  0  -0.512926  0  2.110741  0  0  -0.454415  0  2.352611  0  0  -0.477384  0  2.347554  0  0  -0.311761  -0.438208  0  2.355575  0
O  O67  1  0.74492558  0.49028815  0.90715803  1  0  -0.512947  0  2.110512  0  0  -0.45445  0  2.35241  0  0  -0.477419  0  2.347351  0  0  -0.311755  -0.438241  0  2.355374  0
O  O68  1  0.75507107  0.99029420  0.40716176  1  0  -0.512947  0  2.110537  0  0  -0.454422  0  2.352446  0  0  -0.47739  0  2.347388  0  0  -0.311824  -0.438214  0  2.355408  0
O  O69  1  0.25507021  0.50970815  0.09283917  1  0  -0.512965  0  2.110391  0  0  -0.454457  0  2.352316  0  0  -0.477425  0  2.347256  0  0  -0.311843  -0.438247  0  2.35528  0
O  O70  1  0.89675959  0.14245295  0.68119488  1  0  -0.514869  0  2.125269  0  0  -0.451085  0  2.339238  0  0  -0.473366  0  2.335062  0  0  -0.294216  -0.435449  0  2.34171  0
O  O71  1  0.39675595  0.35754836  0.81880188  1  0  -0.514932  0  2.125216  0  0  -0.451136  0  2.33916  0  0  -0.473419  0  2.334987  0  0  -0.294218  -0.435493  0  2.34162  0
O  O72  1  0.10323858  0.85755402  0.31880678  1  0  -0.515034  0  2.125321  0  0  -0.451212  0  2.339275  0  0  -0.473494  0  2.3351  0  0  -0.294257  -0.435576  0  2.341744  0
O  O73  1  0.60324104  0.64244558  0.18119404  1  0  -0.514978  0  2.125142  0  0  -0.451182  0  2.339101  0  0  -0.473465  0  2.334927  0  0  -0.294225  -0.435544  0  2.341574  0
O  O74  1  0.41768395  0.88028802  0.30040741  1  0  -0.850053  0  1.859186  0  0  -0.789393  0  2.058368  0  0  -0.811115  0  2.023119  0  0  -0.59876  -0.77399  0  2.082871  0
O  O75  1  0.91768175  0.61971120  0.19959267  1  0  -0.85001  0  1.859258  0  0  -0.789326  0  2.058461  0  0  -0.811048  0  2.023215  0  0  -0.598751  -0.773926  0  2.08296  0
O  O76  1  0.58231896  0.11971067  0.69959285  1  0  -0.850068  0  1.859206  0  0  -0.789416  0  2.058398  0  0  -0.811139  0  2.023148  0  0  -0.598777  -0.774015  0  2.082901  0
O  O77  1  0.08231642  0.38028868  0.80040868  1  0  -0.850021  0  1.859243  0  0  -0.789354  0  2.058426  0  0  -0.811077  0  2.023178  0  0  -0.598739  -0.773951  0  2.08293  0
