# generated using pymatgen
data_ZnH15C21N2O5
_symmetry_space_group_name_H-M   'P 1'
_cell_length_a   10.26077123
_cell_length_b   10.49075609
_cell_length_c   22.40545855
_cell_angle_alpha   94.47433829
_cell_angle_beta   89.99992481
_cell_angle_gamma   89.99981486
_symmetry_Int_Tables_number   1
_chemical_formula_structural   ZnH15C21N2O5
_chemical_formula_sum   'Zn4 H60 C84 N8 O20'
_cell_volume   2404.44608491
_cell_formula_units_Z   4
loop_
 _symmetry_equiv_pos_site_id
 _symmetry_equiv_pos_as_xyz
  1  'x, y, z'
loop_
 _atom_site_type_symbol
 _atom_site_label
 _atom_site_symmetry_multiplicity
 _atom_site_fract_x
 _atom_site_fract_y
 _atom_site_fract_z
 _atom_site_occupancy
 _atom_site_pbe_bader_charge
 _atom_site_pbe_bader_spin_density
 _atom_site_pbe_cm5_charge
 _atom_site_pbe_ddec_charge
 _atom_site_pbe_ddec_spin_density
 _atom_site_pbe_ddec_sum_bond_order
 _atom_site_pbe_magmom
Zn  Zn0  1  0.87824290  0.93778169  0.98585806  1  1.294936  0  0.672945  0.833044  0  2.370767  0
Zn  Zn1  1  0.37824182  0.56222011  0.51414367  1  1.295049  0  0.672926  0.833002  0  2.370754  0
Zn  Zn2  1  0.12175778  0.06222273  0.01414225  1  1.294921  0  0.672897  0.832994  0  2.370892  0
Zn  Zn3  1  0.62175691  0.43777766  0.48585822  1  1.294919  0  0.672904  0.833001  0  2.370793  0
H  H4  1  0.71192040  0.24695832  0.90407568  1  0.07242  0  0.100683  0.099678  0  1.027683  0
H  H5  1  0.21192236  0.25304388  0.59592482  1  0.072422  0  0.100677  0.099648  0  1.027704  0
H  H6  1  0.28807832  0.75304792  0.09592111  1  0.072316  0  0.100655  0.099598  0  1.027767  0
H  H7  1  0.78807344  0.74694626  0.40407772  1  0.07228  0  0.10065  0.099614  0  1.027729  0
H  H8  1  0.62270465  0.43405603  0.85557606  1  0.10137  0  0.108711  0.124993  0  0.981605  0
H  H9  1  0.12270319  0.06595512  0.64442701  1  0.101312  0  0.108764  0.12502  0  0.981687  0
H  H10  1  0.37729993  0.56595789  0.14442232  1  0.101292  0  0.108741  0.125018  0  0.981729  0
H  H11  1  0.87729944  0.93403695  0.35557648  1  0.101351  0  0.108754  0.125032  0  0.981634  0
H  H12  1  0.96884585  0.64887447  0.90351253  1  0.144013  0  0.108002  0.133146  0  1.015724  0
H  H13  1  0.46883968  0.85112510  0.59648818  1  0.144053  0  0.108006  0.133167  0  1.015683  0
H  H14  1  0.03116848  0.35112897  0.09648685  1  0.143887  0  0.107961  0.133047  0  1.015765  0
H  H15  1  0.53116880  0.14887171  0.40351368  1  0.143942  0  0.107974  0.13306  0  1.015735  0
H  H16  1  0.06100888  0.45722456  0.95045044  1  0.101865  0  0.103046  0.103876  0  1.025513  0
H  H17  1  0.56100472  0.04277332  0.54954869  1  0.101912  0  0.103062  0.103853  0  1.025468  0
H  H18  1  0.93899667  0.54277699  0.04954978  1  0.101933  0  0.103066  0.103843  0  1.025503  0
H  H19  1  0.43899596  0.95722731  0.45045284  1  0.101912  0  0.103081  0.103872  0  1.02553  0
H  H20  1  0.85126547  0.49117175  0.76708384  1  0.067379  0  0.107318  0.123138  0  0.998064  0
H  H21  1  0.35126200  0.00883288  0.73291711  1  0.067404  0  0.10733  0.123163  0  0.998099  0
H  H22  1  0.14873520  0.50883551  0.23291522  1  0.067318  0  0.107323  0.123177  0  0.998042  0
H  H23  1  0.64873186  0.99115724  0.26708454  1  0.067253  0  0.10733  0.123174  0  0.997965  0
H  H24  1  0.77612513  0.45811475  0.66107683  1  0.07478  0  0.103403  0.104376  0  1.015525  0
H  H25  1  0.27612611  0.04187966  0.83892608  1  0.074784  0  0.103387  0.104386  0  1.015474  0
H  H26  1  0.22386775  0.54189067  0.33892530  1  0.074619  0  0.103357  0.104305  0  1.015463  0
H  H27  1  0.72386677  0.95810947  0.16107420  1  0.074575  0  0.103368  0.104302  0  1.015494  0
H  H28  1  0.47507805  0.73784208  0.69580488  1  0.101144  0  0.10349  0.108043  0  1.021589  0
H  H29  1  0.97508218  0.76215750  0.80419716  1  0.101107  0  0.10346  0.10801  0  1.021694  0
H  H30  1  0.52491873  0.26216332  0.30419635  1  0.101188  0  0.103507  0.108068  0  1.021642  0
H  H31  1  0.02492045  0.23782974  0.19580395  1  0.101263  0  0.103483  0.108036  0  1.02162  0
H  H32  1  0.55069301  0.77395581  0.80234747  1  0.059386  0  0.101748  0.117505  0  1.015125  0
H  H33  1  0.05068891  0.72604513  0.69765354  1  0.059315  0  0.101728  0.117489  0  1.015212  0
H  H34  1  0.44931157  0.22604957  0.19765331  1  0.059383  0  0.101672  0.11742  0  1.015074  0
H  H35  1  0.94931372  0.27394498  0.30234766  1  0.059102  0  0.101663  0.117366  0  1.015095  0
H  H36  1  0.67041792  0.07706574  0.92977856  1  0.133611  0  0.116324  0.090483  0  1.048535  0
H  H37  1  0.17041841  0.42293184  0.57022272  1  0.133783  0  0.116277  0.090425  0  1.048481  0
H  H38  1  0.32958276  0.92293290  0.07021978  1  0.133625  0  0.116263  0.090402  0  1.048473  0
H  H39  1  0.82958032  0.57706503  0.42978137  1  0.133595  0  0.116341  0.090441  0  1.04865  0
H  H40  1  0.43624265  0.04057539  0.89755869  1  0.097673  0  0.111607  0.116993  0  1.001224  0
H  H41  1  0.93623891  0.45942607  0.60244166  1  0.097661  0  0.111598  0.116956  0  1.001252  0
H  H42  1  0.56375998  0.95942518  0.10244061  1  0.097697  0  0.111574  0.116946  0  1.001163  0
H  H43  1  0.06375495  0.54057838  0.39755999  1  0.097699  0  0.111582  0.116934  0  1.001251  0
H  H44  1  0.33327050  0.83162763  0.91271699  1  0.086514  0  0.110715  0.111961  0  1.024963  0
H  H45  1  0.83326679  0.66837713  0.58728263  1  0.086444  0  0.110669  0.111914  0  1.024986  0
H  H46  1  0.66673018  0.16837872  0.08728427  1  0.08649  0  0.110684  0.111942  0  1.02498  0
H  H47  1  0.16672804  0.33162727  0.41271679  1  0.086543  0  0.110727  0.111983  0  1.024972  0
H  H48  1  0.69666139  0.71633783  0.99049618  1  0.149525  0  0.125643  0.097214  0  1.014374  0
H  H49  1  0.19665667  0.78366258  0.50950249  1  0.149584  0  0.12562  0.097182  0  1.014437  0
H  H50  1  0.30334319  0.28366271  0.00950177  1  0.149563  0  0.125611  0.097169  0  1.014467  0
H  H51  1  0.80333913  0.21633512  0.49049672  1  0.1495  0  0.125652  0.097198  0  1.014377  0
H  H52  1  0.30158139  0.49155852  0.94332697  1  0.111476  0  0.101447  0.147626  0  1.022152  0
H  H53  1  0.80158123  0.00844524  0.55667086  1  0.110983  0  0.101452  0.147651  0  1.022068  0
H  H54  1  0.69841929  0.50844296  0.05667013  1  0.111024  0  0.101446  0.147621  0  1.022067  0
H  H55  1  0.19841945  0.99155821  0.44332898  1  0.111015  0  0.101435  0.147616  0  1.022105  0
H  H56  1  0.32877613  0.59881873  0.88593599  1  0.05315  0  0.100808  0.147048  0  0.97993  0
H  H57  1  0.82877548  0.90118313  0.61406175  1  0.053222  0  0.100788  0.147058  0  0.980012  0
H  H58  1  0.67122747  0.40118467  0.11406205  1  0.05324  0  0.100777  0.14701  0  0.980022  0
H  H59  1  0.17122520  0.09881842  0.38593847  1  0.053216  0  0.100753  0.146997  0  0.98002  0
H  H60  1  0.24727915  0.65362944  0.95261366  1  0.050749  0  0.101989  0.154134  0  0.99063  0
H  H61  1  0.74727107  0.84637272  0.54738548  1  0.050733  0  0.101994  0.154162  0  0.990732  0
H  H62  1  0.75272738  0.34637208  0.04738522  1  0.050653  0  0.101984  0.15418  0  0.990666  0
H  H63  1  0.25272279  0.15362979  0.45261521  1  0.050641  0  0.101981  0.154186  0  0.990662  0
C  C64  1  0.94595443  0.22539442  0.95847832  1  1.564803  0  0.208685  0.582027  0  4.187985  0
C  C65  1  0.44595257  0.27460510  0.54152151  1  1.565214  0  0.208717  0.582029  0  4.18793  0
C  C66  1  0.05404333  0.77460419  0.04151868  1  1.564698  0  0.208625  0.581971  0  4.18779  0
C  C67  1  0.55404129  0.72539465  0.45848312  1  1.564671  0  0.208648  0.582005  0  4.187814  0
C  C68  1  0.89296411  0.33963966  0.93008209  1  0.003114  0  -0.027054  -0.061636  0  3.981496  0
C  C69  1  0.39296255  0.16036196  0.56991873  1  0.002996  0  -0.027106  -0.061689  0  3.981616  0
C  C70  1  0.10703949  0.66036181  0.06991455  1  0.003187  0  -0.027104  -0.061776  0  3.98153  0
C  C71  1  0.60703715  0.83963392  0.43008444  1  0.003203  0  -0.027077  -0.061782  0  3.981565  0
C  C72  1  0.76886725  0.33426117  0.90353940  1  -0.018178  0  -0.086096  -0.069983  0  3.995835  0
C  C73  1  0.26887339  0.16574177  0.59645976  1  -0.018233  0  -0.086048  -0.069897  0  3.995904  0
C  C74  1  0.23112953  0.66574508  0.09645740  1  -0.018013  0  -0.086017  -0.069795  0  3.995701  0
C  C75  1  0.73112924  0.83424925  0.40353969  1  -0.017854  0  -0.086059  -0.069836  0  3.995837  0
C  C76  1  0.71858434  0.43832870  0.87658432  1  -0.075671  0  -0.101732  -0.20309  0  4.020436  0
C  C77  1  0.21858198  0.06168304  0.62341649  1  -0.075514  0  -0.101775  -0.203132  0  4.020249  0
C  C78  1  0.28141926  0.56168433  0.12341626  1  -0.075653  0  -0.101773  -0.203192  0  4.020163  0
C  C79  1  0.78141870  0.93831185  0.37658487  1  -0.075908  0  -0.101787  -0.203189  0  4.020174  0
C  C80  1  0.79302593  0.54987252  0.87616649  1  0.355317  0  0.084954  0.255138  0  4.041167  0
C  C81  1  0.29302033  0.95013430  0.62383411  1  0.355565  0  0.084887  0.255119  0  4.041033  0
C  C82  1  0.20698157  0.45013860  0.12383448  1  0.355738  0  0.084889  0.255183  0  4.040908  0
C  C83  1  0.70698327  0.04985961  0.37616632  1  0.355756  0  0.084894  0.255114  0  4.040945  0
C  C84  1  0.91535294  0.55911578  0.90323697  1  -0.035239  0  -0.097739  -0.191428  0  3.959291  0
C  C85  1  0.41534550  0.94088587  0.59676383  1  -0.036154  0  -0.09775  -0.19151  0  3.959382  0
C  C86  1  0.08465456  0.44089056  0.09676384  1  -0.035789  0  -0.097784  -0.191474  0  3.959385  0
C  C87  1  0.58465810  0.05911000  0.40323844  1  -0.035806  0  -0.097807  -0.191444  0  3.959377  0
C  C88  1  0.96503453  0.45311234  0.92966426  1  -0.023779  0  -0.079866  -0.066168  0  3.971103  0
C  C89  1  0.46503237  0.04688816  0.57033916  1  -0.023037  0  -0.079874  -0.066104  0  3.970998  0
C  C90  1  0.03496712  0.54689119  0.07033870  1  -0.023241  0  -0.079839  -0.066007  0  3.970911  0
C  C91  1  0.53496539  0.95310960  0.42966228  1  -0.023175  0  -0.079871  -0.066081  0  3.971045  0
C  C92  1  0.70454134  0.63429688  0.79056719  1  0.428851  0  0.088021  0.266822  0  4.045162  0
C  C93  1  0.20453480  0.86570929  0.70943389  1  0.428822  0  0.088084  0.266948  0  4.045079  0
C  C94  1  0.29546226  0.36571517  0.20943247  1  0.428757  0  0.088038  0.266871  0  4.045314  0
C  C95  1  0.79546198  0.13428271  0.29056648  1  0.429054  0  0.08811  0.266992  0  4.045314  0
C  C96  1  0.76997620  0.54600931  0.75111556  1  -0.077199  0  -0.107568  -0.218078  0  4.021531  0
C  C97  1  0.26997315  0.95399474  0.74888541  1  -0.077196  0  -0.107583  -0.218126  0  4.021606  0
C  C98  1  0.23002643  0.45399798  0.24888484  1  -0.077181  0  -0.107598  -0.218173  0  4.02171  0
C  C99  1  0.73002461  0.04599917  0.25111502  1  -0.077182  0  -0.107632  -0.218207  0  4.02168  0
C  C100  1  0.72844727  0.52817476  0.69212300  1  0.067213  0  -0.086433  -0.069914  0  4.008768  0
C  C101  1  0.22844496  0.97182179  0.80787821  1  0.067314  0  -0.08638  -0.069967  0  4.008699  0
C  C102  1  0.27155049  0.47182970  0.30787910  1  0.06738  0  -0.086377  -0.06982  0  4.008605  0
C  C103  1  0.77154792  0.02816922  0.19212034  1  0.067415  0  -0.086363  -0.069815  0  4.00851  0
C  C104  1  0.62254969  0.59695421  0.67152729  1  -0.046992  0  -0.032029  -0.068267  0  3.998382  0
C  C105  1  0.12255340  0.90303409  0.82847418  1  -0.047181  0  -0.032045  -0.067998  0  3.998193  0
C  C106  1  0.37744904  0.40304832  0.32847386  1  -0.04737  0  -0.03206  -0.068268  0  3.998497  0
C  C107  1  0.87744923  0.09694831  0.17152411  1  -0.047332  0  -0.03203  -0.068183  0  3.998432  0
C  C108  1  0.55877747  0.68588254  0.71151892  1  -0.008838  0  -0.08258  -0.068099  0  3.977032  0
C  C109  1  0.05877672  0.81410977  0.78848226  1  -0.009171  0  -0.082581  -0.068308  0  3.977032  0
C  C110  1  0.44122223  0.31412290  0.28848410  1  -0.008788  0  -0.082604  -0.068157  0  3.977124  0
C  C111  1  0.94121811  0.18587738  0.21151528  1  -0.009013  0  -0.082566  -0.068142  0  3.977181  0
C  C112  1  0.59990584  0.70562763  0.77081978  1  -0.045202  0  -0.105358  -0.204707  0  3.986234  0
C  C113  1  0.09990240  0.79437406  0.72917944  1  -0.044625  0  -0.10533  -0.204613  0  3.986225  0
C  C114  1  0.40009679  0.29437966  0.22918062  1  -0.044998  0  -0.105277  -0.204583  0  3.985971  0
C  C115  1  0.90009340  0.20561789  0.27081914  1  -0.044873  0  -0.1053  -0.204583  0  3.986195  0
C  C116  1  0.57847711  0.57119531  0.60813527  1  1.548047  0  0.21035  0.582643  0  4.187832  0
C  C117  1  0.07847958  0.92879504  0.89186629  1  1.547897  0  0.210321  0.582479  0  4.187535  0
C  C118  1  0.42151967  0.42881010  0.39186641  1  1.548274  0  0.210294  0.582474  0  4.18791  0
C  C119  1  0.92151428  0.07118923  0.10813071  1  1.548135  0  0.21024  0.582436  0  4.188017  0
C  C120  1  0.61936761  0.98778367  0.93504636  1  0.502346  0  0.048857  0.088544  0  3.918697  0
C  C121  1  0.11936168  0.51221606  0.56495323  1  0.502173  0  0.048857  0.088498  0  3.918877  0
C  C122  1  0.38063794  0.01221688  0.06495205  1  0.50239  0  0.048877  0.088566  0  3.918732  0
C  C123  1  0.88063120  0.48778551  0.43504788  1  0.502305  0  0.048823  0.088546  0  3.918863  0
C  C124  1  0.49143285  0.96596376  0.91728932  1  -0.024974  0  -0.081595  -0.127127  0  4.003762  0
C  C125  1  0.99143155  0.53403475  0.58271000  1  -0.025082  0  -0.081619  -0.127127  0  4.003831  0
C  C126  1  0.50856783  0.03403485  0.08270813  1  -0.025087  0  -0.081568  -0.127084  0  4.003729  0
C  C127  1  0.00856621  0.46596779  0.41729159  1  -0.024858  0  -0.081587  -0.127069  0  4.003718  0
C  C128  1  0.43420049  0.84843332  0.92599988  1  -0.061907  0  -0.058266  -0.057572  0  3.914395  0
C  C129  1  0.93419688  0.65156821  0.57399823  1  -0.061834  0  -0.058191  -0.057474  0  3.914357  0
C  C130  1  0.56580117  0.15156720  0.07399718  1  -0.061811  0  -0.058184  -0.057493  0  3.914281  0
C  C131  1  0.06579893  0.34843527  0.42600294  1  -0.062054  0  -0.058253  -0.057593  0  3.914457  0
C  C132  1  0.50681795  0.75542316  0.95296379  1  -0.046192  0  -0.001289  -0.026702  0  3.973235  0
C  C133  1  0.00681325  0.74457405  0.54703534  1  -0.046243  0  -0.001293  -0.026695  0  3.973475  0
C  C134  1  0.49318468  0.24457643  0.04703458  1  -0.046268  0  -0.001294  -0.026654  0  3.973446  0
C  C135  1  0.99318255  0.25542464  0.45296524  1  -0.046319  0  -0.001278  -0.026699  0  3.973334  0
C  C136  1  0.63577602  0.78571044  0.96982034  1  0.525419  0  0.06951  0.079762  0  3.873247  0
C  C137  1  0.13577147  0.71428827  0.53017920  1  0.525464  0  0.069466  0.079643  0  3.873383  0
C  C138  1  0.36422856  0.21429012  0.03017851  1  0.5254  0  0.069485  0.079664  0  3.873543  0
C  C139  1  0.86422141  0.28570944  0.46982045  1  0.525695  0  0.069468  0.079733  0  3.87315  0
C  C140  1  0.45300640  0.62868181  0.96283950  1  0.649763  0  0.150697  0.272749  0  3.924363  0
C  C141  1  0.95300314  0.87131874  0.53716036  1  0.649755  0  0.150745  0.272875  0  3.92407  0
C  C142  1  0.54699525  0.37132071  0.03716120  1  0.649661  0  0.15074  0.272804  0  3.924271  0
C  C143  1  0.04699559  0.12868279  0.46283942  1  0.650335  0  0.150723  0.27286  0  3.924182  0
C  C144  1  0.32536308  0.58986709  0.93452440  1  -0.096227  0  -0.235844  -0.458249  0  3.934619  0
C  C145  1  0.82535864  0.91013482  0.56547468  1  -0.095855  0  -0.235844  -0.458376  0  3.934674  0
C  C146  1  0.67464150  0.41013249  0.06547353  1  -0.095806  0  -0.235817  -0.458293  0  3.934618  0
C  C147  1  0.17463912  0.08986673  0.43452554  1  -0.095739  0  -0.235756  -0.458265  0  3.934611  0
N  N148  1  0.68986145  0.89854626  0.96102876  1  -1.246141  0  -0.324113  -0.201236  0  3.54579  0
N  N149  1  0.18985920  0.60144942  0.53897110  1  -1.246057  0  -0.324018  -0.201002  0  3.545622  0
N  N150  1  0.31013923  0.10145333  0.03896916  1  -1.246079  0  -0.324074  -0.201099  0  3.545645  0
N  N151  1  0.81013661  0.39854927  0.46102947  1  -1.246212  0  -0.324052  -0.201106  0  3.545744  0
N  N152  1  0.52454593  0.55946500  0.99600189  1  -0.744359  0  -0.209733  -0.222008  0  3.335333  0
N  N153  1  0.02454363  0.94053692  0.50399693  1  -0.766059  0  -0.209698  -0.221951  0  3.335192  0
N  N154  1  0.47545573  0.44053650  0.00399654  1  -0.766009  0  -0.209716  -0.221979  0  3.335249  0
N  N155  1  0.97545510  0.05946460  0.49600195  1  -0.744922  0  -0.209787  -0.222124  0  3.335267  0
O  O156  1  0.87016788  0.12909094  0.96006404  1  -1.19165  0  -0.31994  -0.575729  0  2.352774  0
O  O157  1  0.37015694  0.37090696  0.53993758  1  -1.191738  0  -0.319925  -0.575709  0  2.352627  0
O  O158  1  0.12984254  0.87090868  0.03993523  1  -1.191688  0  -0.31988  -0.575668  0  2.35237  0
O  O159  1  0.62983692  0.62908994  0.46006785  1  -1.191627  0  -0.319907  -0.575674  0  2.352511  0
O  O160  1  0.06149943  0.23149335  0.97936673  1  -1.161901  0  -0.316046  -0.535002  0  2.292941  0
O  O161  1  0.56149363  0.26850932  0.52063300  1  -1.16221  0  -0.316069  -0.534995  0  2.292954  0
O  O162  1  0.93850223  0.76850822  0.02063439  1  -1.161899  0  -0.316006  -0.534915  0  2.292939  0
O  O163  1  0.43850022  0.73149415  0.47936773  1  -1.162102  0  -0.316008  -0.53494  0  2.292998  0
O  O164  1  0.74311727  0.65541032  0.84960459  1  -1.092067  0  -0.153363  -0.220592  0  2.547251  0
O  O165  1  0.24310902  0.84459662  0.65039381  1  -1.092185  0  -0.153355  -0.220637  0  2.547108  0
O  O166  1  0.25689316  0.34460073  0.15039325  1  -1.092312  0  -0.153268  -0.220587  0  2.547148  0
O  O167  1  0.75689264  0.15539443  0.34960653  1  -1.092328  0  -0.153287  -0.22058  0  2.54717  0
O  O168  1  0.65542665  0.50572583  0.57303858  1  -1.171275  0  -0.317643  -0.555679  0  2.366817  0
O  O169  1  0.15543270  0.99426909  0.92696440  1  -1.171045  0  -0.317628  -0.555657  0  2.366515  0
O  O170  1  0.34456916  0.49427573  0.42696208  1  -1.171375  0  -0.317568  -0.555534  0  2.366741  0
O  O171  1  0.84456700  0.00572295  0.07303730  1  -1.171304  0  -0.317523  -0.555466  0  2.366971  0
O  O172  1  0.46836253  0.61575847  0.59367654  1  -1.166215  0  -0.314672  -0.539723  0  2.343558  0
O  O173  1  0.96836693  0.88423445  0.90632574  1  -1.166333  0  -0.314662  -0.53967  0  2.343482  0
O  O174  1  0.53163523  0.38424216  0.40632499  1  -1.166155  0  -0.314689  -0.539702  0  2.343409  0
O  O175  1  0.03163180  0.11576224  0.09367120  1  -1.165966  0  -0.314656  -0.539727  0  2.343406  0
