# generated using pymatgen
data_CuH10C10NO4
_symmetry_space_group_name_H-M   'P 1'
_cell_length_a   8.58234536
_cell_length_b   12.34035195
_cell_length_c   12.31855367
_cell_angle_alpha   65.21713338
_cell_angle_beta   81.85493700
_cell_angle_gamma   81.83585973
_symmetry_Int_Tables_number   1
_chemical_formula_structural   CuH10C10NO4
_chemical_formula_sum   'Cu4 H40 C40 N4 O16'
_cell_volume   1167.57986714
_cell_formula_units_Z   4
loop_
 _symmetry_equiv_pos_site_id
 _symmetry_equiv_pos_as_xyz
  1  'x, y, z'
loop_
 _atom_site_type_symbol
 _atom_site_label
 _atom_site_symmetry_multiplicity
 _atom_site_fract_x
 _atom_site_fract_y
 _atom_site_fract_z
 _atom_site_occupancy
 _atom_site_pbe_bader_charge
 _atom_site_pbe_bader_spin_density
 _atom_site_pbe_cm5_charge
 _atom_site_pbe_ddec_charge
 _atom_site_pbe_ddec_spin_density
 _atom_site_pbe_ddec_sum_bond_order
 _atom_site_pbe_magmom
Cu  Cu0  1  0.07298168  0.90400848  0.49099235  1  1.05946  -0.538294  0.675236  0.743916  -0.719071  2.391943  -0.536
Cu  Cu1  1  0.42767403  0.50875750  0.09527424  1  1.067168  0.57787  0.678809  0.750078  0.743274  2.385148  0.579
Cu  Cu2  1  0.92700423  0.09600902  0.50901177  1  1.059808  0.538619  0.675342  0.74415  0.688769  2.391657  0.536
Cu  Cu3  1  0.57232075  0.49124563  0.90473194  1  1.066744  0.577894  0.67876  0.750098  0.743333  2.385261  0.579
H  H4  1  0.34945690  0.10430532  0.67858558  1  0.011063  -0.001998  0.094617  0.107773  -0.001019  0.98021  -0.001
H  H5  1  0.15017087  0.32063776  0.89559818  1  0.04825  0.002284  0.093988  0.106936  0.001186  0.979498  0.001
H  H6  1  0.65055731  0.89568345  0.32141910  1  0.010948  0.002168  0.094608  0.107753  0.001032  0.980069  0.001
H  H7  1  0.84983319  0.67935735  0.10441130  1  0.048136  0.002096  0.093965  0.106953  0.001064  0.979414  0.001
H  H8  1  0.47476700  0.09542413  0.55440673  1  0.078908  0.000802  0.105862  0.131948  0.000428  0.990633  0.0
H  H9  1  0.02316206  0.44411635  0.90392306  1  0.093906  -0.000504  0.105649  0.132232  -0.00029  0.991302  0.0
H  H10  1  0.52523419  0.90456448  0.44559208  1  0.079026  9.7e-05  0.105851  0.131931  -1.6e-05  0.990632  0.0
H  H11  1  0.97684041  0.55588134  0.09607898  1  0.093846  0.000113  0.105627  0.13223  4.5e-05  0.991322  0.0
H  H12  1  0.51091031  0.87619767  0.65102203  1  0.049673  4.5e-05  0.093907  0.093001  3e-05  0.996239  0.0
H  H13  1  0.98916168  0.34857983  0.12406300  1  0.051266  0.000432  0.094135  0.093833  0.000319  0.995877  0.0
H  H14  1  0.48910401  0.12379126  0.34899231  1  0.049093  0.000412  0.093897  0.093008  0.000319  0.996386  0.0
H  H15  1  0.01085465  0.65142075  0.87594446  1  0.051245  -0.000145  0.09408  0.093743  -0.000138  0.995814  0.0
H  H16  1  0.56339151  0.93805469  0.74507121  1  0.035294  0.000952  0.090716  0.086833  0.000469  1.002055  0.001
H  H17  1  0.93581732  0.25467686  0.06248632  1  0.036845  0.001032  0.09032  0.085932  0.000532  1.003268  0.001
H  H18  1  0.43661353  0.06194226  0.25493982  1  0.035689  -0.000707  0.090749  0.086885  -0.000459  1.002003  0.0
H  H19  1  0.06418480  0.74532458  0.93752388  1  0.036702  0.000959  0.090309  0.085926  0.000492  1.003284  0.001
H  H20  1  0.24319477  0.84310711  0.76543051  1  0.083942  0.000283  0.106458  0.130207  8.2e-05  0.989796  0.0
H  H21  1  0.25683802  0.23470439  0.15642667  1  0.077684  -0.000457  0.106177  0.129449  -0.000265  0.990032  0.0
H  H22  1  0.75679326  0.15691323  0.23458189  1  0.0838  0.000127  0.106414  0.130209  -2e-05  0.989792  0.0
H  H23  1  0.74318909  0.76528332  0.84356331  1  0.077655  0.000396  0.106239  0.129466  0.000152  0.989977  0.0
H  H24  1  0.30025901  0.89281611  0.86864040  1  0.050409  0.002231  0.096804  0.111839  0.001164  0.969457  0.001
H  H25  1  0.19988796  0.13179365  0.10637421  1  0.043591  0.001596  0.096174  0.11061  0.000725  0.970925  0.001
H  H26  1  0.69976755  0.10718823  0.13137328  1  0.050311  0.002249  0.096879  0.111909  0.001169  0.969357  0.001
H  H27  1  0.80010001  0.86819768  0.89363049  1  0.043654  -0.001556  0.096257  0.11064  -0.000767  0.970917  -0.001
H  H28  1  0.30884832  0.83497713  0.31211822  1  0.095268  8.3e-05  0.116961  0.091089  3.1e-05  0.991281  0.0
H  H29  1  0.19170178  0.68754426  0.16457660  1  0.093977  -2e-05  0.117312  0.091788  2.2e-05  0.990377  0.0
H  H30  1  0.69114318  0.16503103  0.68786500  1  0.095567  -8.1e-05  0.116921  0.091005  -4e-05  0.991165  0.0
H  H31  1  0.80828834  0.31244891  0.83542951  1  0.093711  -2.1e-05  0.117316  0.09182  2e-05  0.99044  0.0
H  H32  1  0.50429843  0.66721909  0.30971811  1  0.084242  3e-05  0.110833  0.119961  1.8e-05  1.003544  0.0
H  H33  1  0.99629406  0.69007635  0.33255712  1  0.100183  -1.3e-05  0.110942  0.119997  -4e-06  1.003202  0.0
H  H34  1  0.49569289  0.33278988  0.69025910  1  0.08418  -4e-05  0.110772  0.11992  -2.2e-05  1.00346  0.0
H  H35  1  0.00369937  0.30991864  0.66744866  1  0.100241  -7e-06  0.110943  0.119989  5e-06  1.003165  0.0
H  H36  1  0.35003719  0.47423163  0.68636131  1  0.099423  0.000139  0.105743  0.119872  0.000195  1.044391  0.0
H  H37  1  0.14990754  0.31381835  0.52573745  1  0.097162  9.6e-05  0.105853  0.119603  0.000149  1.043394  0.0
H  H38  1  0.64997985  0.52576934  0.31361424  1  0.09911  0.000108  0.105693  0.119793  0.000186  1.044462  0.0
H  H39  1  0.85007800  0.68617286  0.47426106  1  0.096538  -0.000131  0.10586  0.119602  -0.000173  1.043305  0.0
H  H40  1  0.15939731  0.64822573  0.66927971  1  0.114738  1.3e-05  0.117619  0.094142  -1.5e-05  0.996596  0.0
H  H41  1  0.34044147  0.33088258  0.35135793  1  0.115471  -1e-05  0.117742  0.09452  2.4e-05  0.99731  0.0
H  H42  1  0.84061362  0.35176913  0.33071130  1  0.114772  -3.1e-05  0.117686  0.094167  -1.4e-05  0.9968  0.0
H  H43  1  0.65954941  0.66911319  0.64864129  1  0.115359  -1e-06  0.117784  0.094489  3.3e-05  0.997282  0.0
C  C44  1  0.24458911  0.03959180  0.57245474  1  1.541716  -0.00059  0.212194  0.623236  -0.000623  4.119912  -0.001
C  C45  1  0.25323883  0.42803942  0.95962265  1  1.539811  -0.001193  0.211864  0.624748  0.000556  4.11846  -0.004
C  C46  1  0.75541058  0.96040058  0.42755477  1  1.541538  0.000752  0.212258  0.623392  0.000512  4.119654  0.001
C  C47  1  0.74675166  0.57197004  0.04038529  1  1.540051  -0.001139  0.211933  0.624757  0.000608  4.118227  -0.004
C  C48  1  0.38707591  0.04846856  0.62799434  1  -0.008139  0.001109  -0.161057  -0.29028  0.00072  3.898488  0.001
C  C49  1  0.11179458  0.37153452  0.95110943  1  -0.054982  0.017166  -0.163136  -0.292951  0.012285  3.899311  0.013
C  C50  1  0.61293443  0.95152290  0.37201039  1  -0.00815  0.000956  -0.161114  -0.290368  0.000562  3.898457  0.0
C  C51  1  0.88820779  0.62846408  0.04889304  1  -0.055005  0.018767  -0.163122  -0.293084  0.013374  3.899272  0.015
C  C52  1  0.46302388  0.92508850  0.70687753  1  0.004309  0.003746  -0.16388  -0.097566  0.0025  3.924183  0.003
C  C53  1  0.03649784  0.29284968  0.07495266  1  -0.006029  0.000778  -0.16426  -0.098376  0.000627  3.925372  0.0
C  C54  1  0.53698713  0.07490753  0.29313083  1  0.004653  0.000406  -0.163837  -0.09758  0.000389  3.924411  0.0
C  C55  1  0.96350893  0.70715171  0.92505301  1  -0.004701  0.003588  -0.164164  -0.098176  0.002397  3.925272  0.002
C  C56  1  0.34534727  0.85035633  0.80638002  1  -0.059855  0.017718  -0.163759  -0.290836  0.012697  3.899287  0.014
C  C57  1  0.15484403  0.19366218  0.14921802  1  -0.043383  -0.001089  -0.162641  -0.287601  -0.000948  3.897866  -0.001
C  C58  1  0.65465568  0.14964780  0.19362893  1  -0.059303  0.017563  -0.163781  -0.290878  0.012615  3.899214  0.014
C  C59  1  0.84516314  0.80633552  0.85078272  1  -0.044562  0.001236  -0.162803  -0.287683  0.000796  3.898037  0.001
C  C60  1  0.40734963  0.72210332  0.87934941  1  1.541986  -0.001141  0.216103  0.629596  0.000766  4.109182  -0.004
C  C61  1  0.09364687  0.12044024  0.27800885  1  1.541568  0.000367  0.215062  0.628911  0.000127  4.116785  0.001
C  C62  1  0.59263599  0.27789800  0.12066013  1  1.542014  -0.001168  0.215965  0.629589  0.000725  4.109313  -0.004
C  C63  1  0.90635545  0.87956830  0.72199419  1  1.541443  -0.000366  0.215132  0.628991  -0.000369  4.11655  -0.001
C  C64  1  0.32180049  0.75204358  0.39269207  1  0.486762  0.000635  0.045644  0.093299  0.000437  3.975764  0.0
C  C65  1  0.17856694  0.60709349  0.24761303  1  0.48255  -0.000484  0.045967  0.092891  -0.000344  3.97467  0.0
C  C66  1  0.67819363  0.24796284  0.60729408  1  0.486913  -0.00067  0.045724  0.093526  -0.000487  3.975621  0.0
C  C67  1  0.82142752  0.39290237  0.75238984  1  0.482829  -0.000481  0.045956  0.09288  -0.00034  3.974864  0.0
C  C68  1  0.43173758  0.65777448  0.39268363  1  -0.050665  -0.000308  -0.08247  -0.176428  -0.000205  3.95107  0.0
C  C69  1  0.06862326  0.60715604  0.34203362  1  -0.026769  0.000176  -0.082518  -0.175897  0.000125  3.948981  0.0
C  C70  1  0.56826056  0.34223629  0.60729127  1  -0.050785  0.000308  -0.08243  -0.176462  0.000182  3.950963  0.0
C  C71  1  0.93136546  0.39283894  0.65797348  1  -0.02674  0.000159  -0.082519  -0.17592  0.000108  3.949103  0.0
C  C72  1  0.44395952  0.55209614  0.49787247  1  0.009759  0.000655  0.009379  0.095892  0.000411  3.982873  0.0
C  C73  1  0.05611316  0.50206298  0.44785056  1  -0.064529  -0.000539  0.009661  0.095619  -0.000364  3.981913  0.0
C  C74  1  0.55604248  0.44791193  0.50210157  1  -0.030806  -0.000641  0.009327  0.095914  -0.000426  3.982895  0.0
C  C75  1  0.94387706  0.49792929  0.55215512  1  -0.024495  -0.000532  0.009636  0.095634  -0.00036  3.981831  0.0
C  C76  1  0.34472776  0.54991942  0.59950472  1  0.002873  -1.4e-05  -0.081929  -0.168365  -2.6e-05  3.926429  0.0
C  C77  1  0.15522987  0.40054894  0.44996450  1  0.006592  0.000469  -0.081236  -0.167425  0.000291  3.925475  0.0
C  C78  1  0.65527762  0.45008165  0.40048175  1  0.002868  0.000509  -0.081801  -0.168123  0.000324  3.926553  0.0
C  C79  1  0.84475408  0.59944594  0.55003746  1  0.007949  6.7e-05  -0.081207  -0.167359  5.7e-05  3.925306  0.0
C  C80  1  0.23797590  0.64804734  0.59157181  1  0.476707  0.00054  0.048453  0.108196  0.00035  3.934785  0.0
C  C81  1  0.26199301  0.40843808  0.35166493  1  0.472563  -0.000366  0.048273  0.107715  -0.000255  3.932213  0.0
C  C82  1  0.76203508  0.35195547  0.40840844  1  0.476552  -0.000571  0.048377  0.108102  -0.000395  3.934748  0.0
C  C83  1  0.73799942  0.59155504  0.64833690  1  0.472745  -0.000388  0.048121  0.107606  -0.000267  3.932454  0.0
N  N84  1  0.22430046  0.74763150  0.48968045  1  -1.21776  0.001372  -0.338209  -0.244697  0.000563  3.513057  0.0
N  N85  1  0.27580516  0.51019378  0.25197582  1  -1.214405  -0.00041  -0.337302  -0.243711  0.00034  3.50939  0.001
N  N86  1  0.77570110  0.25237232  0.51031010  1  -1.217969  -0.001229  -0.338268  -0.244813  -0.0005  3.513033  0.0
N  N87  1  0.72418792  0.48980392  0.74802964  1  -1.214688  -0.000501  -0.337209  -0.243609  0.000277  3.509471  0.001
O  O88  1  0.25498002  0.95351720  0.53988929  1  -1.119141  -0.077506  -0.309572  -0.520059  -0.052704  2.384661  -0.07
O  O89  1  0.24301240  0.46120856  0.04541550  1  -1.120626  0.088288  -0.310297  -0.52325  0.05676  2.373977  0.081
O  O90  1  0.74502253  0.04647956  0.46011071  1  -1.11911  0.077653  -0.309669  -0.520231  0.050439  2.38484  0.07
O  O91  1  0.75698449  0.53879529  0.95457796  1  -1.120221  0.088363  -0.310238  -0.523146  0.056818  2.373396  0.081
O  O92  1  0.12590310  0.11663286  0.56468703  1  -1.119643  0.080911  -0.316843  -0.532939  0.052539  2.346808  0.074
O  O93  1  0.37237709  0.43653527  0.88251133  1  -1.121345  0.093423  -0.318278  -0.537136  0.060169  2.338399  0.085
O  O94  1  0.87410325  0.88335428  0.43533136  1  -1.119665  -0.08076  -0.316834  -0.532902  -0.054854  2.346467  -0.073
O  O95  1  0.62761629  0.56348647  0.11747311  1  -1.121848  0.093399  -0.318346  -0.537205  0.060146  2.338973  0.085
O  O96  1  0.49254113  0.66485313  0.82339725  1  -1.125951  0.090074  -0.312257  -0.52795  0.058135  2.35079  0.082
O  O97  1  0.00913217  0.17659630  0.33519428  1  -1.128453  0.07781  -0.312555  -0.52942  0.050626  2.353134  0.07
O  O98  1  0.50744371  0.33514450  0.17660748  1  -1.126258  0.089977  -0.312139  -0.527829  0.058046  2.351005  0.082
O  O99  1  0.99087267  0.82341036  0.66480281  1  -1.128163  -0.077794  -0.312528  -0.52932  -0.052957  2.352867  -0.07
O  O100  1  0.36551072  0.67979326  0.99192026  1  -1.104748  0.10585  -0.315664  -0.529476  0.068346  2.354312  0.096
O  O101  1  0.13603876  0.00828718  0.31956297  1  -1.108655  -0.091315  -0.316584  -0.531469  -0.062127  2.355728  -0.083
O  O102  1  0.63446564  0.32020612  0.00808379  1  -1.104674  0.105883  -0.315675  -0.529603  0.068363  2.354141  0.096
O  O103  1  0.86396723  0.99172052  0.68044248  1  -1.108581  0.091409  -0.316708  -0.531613  0.059483  2.35564  0.083
