# generated using pymatgen
data_Zn4H16C21O13
_symmetry_space_group_name_H-M   'P 1'
_cell_length_a   10.88614990
_cell_length_b   10.90885751
_cell_length_c   10.82549552
_cell_angle_alpha   76.45561405
_cell_angle_beta   88.48811834
_cell_angle_gamma   80.40482827
_symmetry_Int_Tables_number   1
_chemical_formula_structural   Zn4H16C21O13
_chemical_formula_sum   'Zn4 H16 C21 O13'
_cell_volume   1232.24053001
_cell_formula_units_Z   1
loop_
 _symmetry_equiv_pos_site_id
 _symmetry_equiv_pos_as_xyz
  1  'x, y, z'
loop_
 _atom_site_type_symbol
 _atom_site_label
 _atom_site_symmetry_multiplicity
 _atom_site_fract_x
 _atom_site_fract_y
 _atom_site_fract_z
 _atom_site_occupancy
 _atom_site_pbe_bader_charge
 _atom_site_pbe_bader_spin_density
 _atom_site_pbe_cm5_charge
 _atom_site_pbe_ddec_charge
 _atom_site_pbe_ddec_spin_density
 _atom_site_pbe_ddec_sum_bond_order
 _atom_site_pbe_magmom
Zn  Zn0  1  0.60968798  0.39236230  0.40431759  1  1.317824  0  0.673684  0.967007  0  2.365717  0
Zn  Zn1  1  0.41678876  0.37227748  0.63463465  1  1.313127  0  0.671676  0.960179  0  2.358197  0
Zn  Zn2  1  0.37939110  0.62232127  0.39874389  1  1.315528  0  0.675944  0.963428  0  2.357898  0
Zn  Zn3  1  0.60203748  0.57824366  0.59201570  1  1.314869  0  0.672689  0.956723  0  2.420714  0
H  H4  1  0.02292741  0.35541393  0.47084670  1  0.121184  0  0.11678  0.138206  0  0.975466  0
H  H5  1  0.45610953  0.70967255  0.86766262  1  0.061143  0  0.097158  0.101306  0  0.980274  0
H  H6  1  0.31173583  0.65899591  0.90126140  1  0.02896  0  0.096029  0.093326  0  0.967436  0
H  H7  1  0.52151472  0.96703248  0.19533954  1  0.054702  0  0.10158  0.100352  0  0.998589  0
H  H8  1  0.43153744  0.12371824  0.00113960  1  0.070061  0  0.103553  0.103441  0  0.994621  0
H  H9  1  0.27072150  0.30833853  0.01892461  1  0.069824  0  0.101472  0.101312  0  0.998366  0
H  H10  1  0.19856756  0.33650178  0.23309514  1  0.051419  0  0.100372  0.097834  0  0.995337  0
H  H11  1  0.28952806  0.18083246  0.42739541  1  0.068059  0  0.098708  0.09921  0  1.010318  0
H  H12  1  0.98262661  0.60972410  0.55786004  1  0.132189  0  0.123912  0.145884  0  0.963363  0
H  H13  1  0.55444047  0.36826355  0.04685591  1  0.113832  0  0.119285  0.150589  0  0.981387  0
H  H14  1  0.55203962  0.94689735  0.62311896  1  0.110353  0  0.119452  0.147501  0  0.981082  0
H  H15  1  0.37294902  0.94546917  0.83577415  1  0.016118  0  0.079842  0.105956  0  1.017777  0
H  H16  1  0.22406867  0.89823337  0.84594163  1  0.017923  0  0.082717  0.106145  0  1.005404  0
H  H17  1  0.26220868  0.99544386  0.94497078  1  0.035793  0  0.085317  0.113125  0  1.014969  0
H  H18  1  0.27541716  0.77363201  0.07382160  1  0.044256  0  0.088938  0.087622  0  0.983664  0
H  H19  1  0.42532846  0.81422140  0.05822300  1  0.014431  0  0.084904  0.075364  0  0.982054  0
C  C20  1  0.51111851  0.45834081  0.84539123  1  1.557444  0  0.233741  0.66774  0  4.148323  0
C  C21  1  0.97402168  0.43960296  0.49996174  1  -0.000441  0  -0.082183  -0.195035  0  3.896531  0
C  C22  1  0.03472974  0.52350596  0.53495830  1  -0.081046  0  -0.065355  -0.147206  0  3.868744  0
C  C23  1  0.45997885  0.55755281  0.03025369  1  0.041163  0  -0.005905  0.010311  0  3.875664  0
C  C24  1  0.39269533  0.68086230  0.94629919  1  -0.013696  0  -0.156664  -0.170246  0  3.937146  0
C  C25  1  0.34859153  0.79565055  0.00446678  1  -0.016468  0  -0.170389  -0.092248  0  3.966154  0
C  C26  1  0.29956967  0.91520642  0.90226978  1  -0.068826  0  -0.247094  -0.3565  0  3.985676  0
C  C27  1  0.41313386  0.06440739  0.32468127  1  -0.009823  0  -0.012288  0.086615  0  4.005256  0
C  C28  1  0.45070022  0.04796731  0.20367567  1  -0.036858  0  -0.085733  -0.117157  0  3.961676  0
C  C29  1  0.40007768  0.13579271  0.09466896  1  -0.038192  0  -0.091408  -0.085108  0  4.029426  0
C  C30  1  0.30949986  0.23999903  0.10470712  1  -0.053741  0  -0.089981  -0.084747  0  4.022343  0
C  C31  1  0.51143269  0.45728923  0.98312504  1  -0.048921  0  -0.080652  -0.249347  0  3.85478  0
C  C32  1  0.26987357  0.25596368  0.22455874  1  -0.012282  0  -0.09606  -0.085251  0  4.039919  0
C  C33  1  0.32139386  0.16888436  0.33377822  1  -0.068485  0  -0.093761  -0.134126  0  3.976245  0
C  C34  1  0.47175483  0.97664262  0.44116608  1  0.00706  0  -0.001863  -0.037929  0  3.925118  0
C  C35  1  0.51784968  0.01692796  0.53645245  1  -0.002977  0  -0.071157  -0.217785  0  3.829149  0
C  C36  1  0.46945531  0.53736228  0.17150806  1  1.55658  0  0.231636  0.605931  0  4.152028  0
C  C37  1  0.52349088  0.15233527  0.53483572  1  1.55252  0  0.227181  0.653906  0  4.175705  0
C  C38  1  0.47791698  0.83485394  0.45971628  1  1.557315  0  0.229257  0.603937  0  4.153995  0
C  C39  1  0.17263588  0.51222758  0.53416039  1  1.60384  0  0.228522  0.647837  0  4.164566  0
C  C40  1  0.83587272  0.45972679  0.49450200  1  1.524297  0  0.224712  0.647663  0  4.169949  0
O  O41  1  0.50026216  0.48957279  0.50802096  1  -1.237077  0  -0.574292  -1.033669  0  2.54811  0
O  O42  1  0.23659919  0.40594691  0.59064693  1  -1.169555  0  -0.311111  -0.541758  0  2.282696  0
O  O43  1  0.77729857  0.54563106  0.54665722  1  -1.168997  0  -0.318648  -0.554313  0  2.327175  0
O  O44  1  0.21368138  0.61299794  0.47582682  1  -1.162738  0  -0.314683  -0.544656  0  2.275824  0
O  O45  1  0.78749455  0.38835545  0.43806249  1  -1.151706  0  -0.313643  -0.542002  0  2.277493  0
O  O46  1  0.58182295  0.21384885  0.44430880  1  -1.164664  0  -0.305125  -0.533773  0  2.315008  0
O  O47  1  0.54672532  0.76335800  0.55105465  1  -1.180359  0  -0.31679  -0.550842  0  2.36372  0
O  O48  1  0.44103076  0.39022033  0.80896364  1  -1.160958  0  -0.308029  -0.543929  0  2.288946  0
O  O49  1  0.37829034  0.59034320  0.22793020  1  -1.172044  0  -0.310517  -0.545451  0  2.354325  0
O  O50  1  0.58327674  0.52602197  0.77685867  1  -1.171415  0  -0.307722  -0.539462  0  2.316032  0
O  O51  1  0.56887970  0.46770661  0.22477844  1  -1.170305  0  -0.316959  -0.551463  0  2.340944  0
O  O52  1  0.47151996  0.19284412  0.62836907  1  -1.155538  0  -0.316272  -0.550728  0  2.288748  0
O  O53  1  0.41382125  0.79679794  0.38332523  1  -1.154701  0  -0.304776  -0.533719  0  2.330883  0
