# generated using pymatgen
data_LaH26C31(NO4)3
_symmetry_space_group_name_H-M   'P 1'
_cell_length_a   9.77202995
_cell_length_b   11.52132563
_cell_length_c   17.22367732
_cell_angle_alpha   74.13913171
_cell_angle_beta   83.27297281
_cell_angle_gamma   68.11357275
_symmetry_Int_Tables_number   1
_chemical_formula_structural   LaH26C31(NO4)3
_chemical_formula_sum   'La2 H52 C62 N6 O24'
_cell_volume   1730.63296550
_cell_formula_units_Z   2
loop_
 _symmetry_equiv_pos_site_id
 _symmetry_equiv_pos_as_xyz
  1  'x, y, z'
loop_
 _atom_site_type_symbol
 _atom_site_label
 _atom_site_symmetry_multiplicity
 _atom_site_fract_x
 _atom_site_fract_y
 _atom_site_fract_z
 _atom_site_occupancy
 _atom_site_pbe_bader_charge
 _atom_site_pbe_bader_spin_density
 _atom_site_pbe_cm5_charge
 _atom_site_pbe_ddec_charge
 _atom_site_pbe_ddec_spin_density
 _atom_site_pbe_ddec_sum_bond_order
 _atom_site_pbe_magmom
La  La0  1  0.77351832  0.96661828  0.99127036  1  2.280182  0  1.395149  1.956223  0  2.379782  0
La  La1  1  0.22647942  0.03338705  0.00872602  1  2.28021  0  1.395144  1.956309  0  2.379789  0
H  H2  1  0.37697783  0.27150674  0.51505159  1  0.65904  0  0.300717  0.350058  0  0.994958  0
H  H3  1  0.62302105  0.72848601  0.48494826  1  0.659031  0  0.300692  0.350045  0  0.994983  0
H  H4  1  0.84985347  0.14740120  0.24835054  1  0.621835  0  0.352307  0.379778  0  0.845045  0
H  H5  1  0.15014051  0.85260322  0.75165091  1  0.621888  0  0.352329  0.379825  0  0.844997  0
H  H6  1  0.11938732  0.80451527  0.48066895  1  0.60981  0  0.345912  0.379562  0  0.855453  0
H  H7  1  0.88062194  0.19547967  0.51933677  1  0.609781  0  0.345917  0.37964  0  0.855455  0
H  H8  1  0.59647073  0.07999924  0.12380957  1  0.639303  0  0.28897  0.37398  0  0.978463  0
H  H9  1  0.40353448  0.92000046  0.87619319  1  0.639296  0  0.289009  0.373992  0  0.978441  0
H  H10  1  0.46224200  0.14098422  0.06337495  1  0.619207  0  0.300996  0.375751  0  0.965394  0
H  H11  1  0.53776762  0.85901735  0.93662079  1  0.619113  0  0.300981  0.375701  0  0.96544  0
H  H12  1  0.00828848  0.02110924  0.86843276  1  0.648124  0  0.29748  0.381387  0  0.970858  0
H  H13  1  0.99170228  0.97889308  0.13156348  1  0.648062  0  0.297468  0.381329  0  0.970945  0
H  H14  1  0.98835196  0.90187573  0.85001492  1  0.626043  0  0.304827  0.381078  0  0.952798  0
H  H15  1  0.01164833  0.09811610  0.14998675  1  0.626086  0  0.304866  0.38113  0  0.952735  0
H  H16  1  0.79615865  0.73435782  0.90915953  1  0.636816  0  0.308926  0.346317  0  0.97586  0
H  H17  1  0.20383648  0.26564867  0.09084782  1  0.636732  0  0.308878  0.346231  0  0.975929  0
H  H18  1  0.05820725  0.75945958  0.20169386  1  0.127414  0  0.116381  0.11572  0  1.000603  0
H  H19  1  0.94179134  0.24054376  0.79829993  1  0.127527  0  0.116396  0.115736  0  1.000577  0
H  H20  1  0.27422682  0.58979873  0.22246362  1  0.073938  0  0.096658  0.085688  0  1.051723  0
H  H21  1  0.72578305  0.41020473  0.77752942  1  0.073846  0  0.096633  0.085633  0  1.051785  0
H  H22  1  0.45332193  0.39451911  0.30881381  1  0.084075  0  0.100231  0.115349  0  1.030718  0
H  H23  1  0.54667700  0.60548335  0.69118420  1  0.084146  0  0.10023  0.115337  0  1.030623  0
H  H24  1  0.16479774  0.45386824  0.51471459  1  0.08183  0  0.102023  0.113849  0  1.046916  0
H  H25  1  0.83520287  0.54614005  0.48528220  1  0.082006  0  0.102015  0.113816  0  1.046783  0
H  H26  1  0.98634246  0.64551440  0.42966448  1  0.090394  0  0.100539  0.096969  0  1.047709  0
H  H27  1  0.01365590  0.35449679  0.57033249  1  0.09054  0  0.10058  0.097002  0  1.047761  0
H  H28  1  0.39007998  0.70786492  0.04093895  1  0.158916  0  0.120392  0.118388  0  1.026687  0
H  H29  1  0.60992349  0.29214146  0.95905801  1  0.159054  0  0.120403  0.118414  0  1.026689  0
H  H30  1  0.64778004  0.60903331  0.04804668  1  0.108034  0  0.110534  0.116066  0  0.999126  0
H  H31  1  0.35222403  0.39096920  0.95195098  1  0.108079  0  0.110557  0.116123  0  0.999138  0
H  H32  1  0.87389070  0.42910501  0.10760672  1  0.113102  0  0.112502  0.13516  0  0.998159  0
H  H33  1  0.12611623  0.57089559  0.89239112  1  0.113137  0  0.112469  0.13511  0  0.998186  0
H  H34  1  0.60816247  0.20261396  0.22632810  1  0.117365  0  0.11082  0.131169  0  1.015288  0
H  H35  1  0.39183342  0.79738841  0.77366722  1  0.117321  0  0.110819  0.131168  0  1.015303  0
H  H36  1  0.38509683  0.37778715  0.16460633  1  0.079115  0  0.102846  0.094291  0  1.043868  0
H  H37  1  0.61490627  0.62222015  0.83538817  1  0.079224  0  0.102821  0.094337  0  1.0438  0
H  H38  1  0.20852445  0.35741524  0.83054985  1  0.110644  0  0.115329  0.115461  0  1.000079  0
H  H39  1  0.79147454  0.64257472  0.16945633  1  0.108371  0  0.115286  0.115389  0  1.000196  0
H  H40  1  0.01169372  0.52762336  0.76447319  1  0.061609  0  0.099783  0.096271  0  1.025482  0
H  H41  1  0.98829677  0.47237710  0.23552748  1  0.061685  0  0.099742  0.096274  0  1.025445  0
H  H42  1  0.90342355  0.71846967  0.65105550  1  0.091801  0  0.111709  0.131282  0  0.97952  0
H  H43  1  0.09657537  0.28153279  0.34894308  1  0.091819  0  0.111702  0.131229  0  0.979474  0
H  H44  1  0.32961965  0.63970890  0.53106006  1  0.101453  0  0.109442  0.127589  0  1.000789  0
H  H45  1  0.67038954  0.36028127  0.46895064  1  0.101627  0  0.109418  0.127543  0  1.000828  0
H  H46  1  0.43528857  0.44596704  0.64063471  1  0.115141  0  0.104717  0.109055  0  1.029102  0
H  H47  1  0.56470052  0.55402193  0.35937636  1  0.114972  0  0.104672  0.108978  0  1.029082  0
H  H48  1  0.68249435  0.80247805  0.78944043  1  0.032782  0  0.094323  0.090403  0  1.000772  0
H  H49  1  0.31750547  0.19751974  0.21056712  1  0.032759  0  0.09437  0.090397  0  1.000883  0
H  H50  1  0.82394667  0.86998900  0.77824592  1  0.039374  0  0.096517  0.093609  0  1.009135  0
H  H51  1  0.17604438  0.13003209  0.22176300  1  0.039267  0  0.096477  0.093443  0  1.009328  0
H  H52  1  0.63665553  0.96586216  0.79457777  1  0.102391  0  0.108287  0.120398  0  1.01096  0
H  H53  1  0.36332151  0.03414322  0.20543329  1  0.102664  0  0.10835  0.120355  0  1.010894  0
C  C54  1  0.78859950  0.91831651  0.20188467  1  1.584171  0  0.213579  0.581137  0  4.245761  0
C  C55  1  0.21139857  0.08167328  0.79811347  1  1.585056  0  0.213512  0.581057  0  4.245934  0
C  C56  1  0.86957418  0.81396262  0.27153312  1  0.049378  0  -0.032818  -0.172547  0  4.076353  0
C  C57  1  0.13042494  0.18602226  0.72846239  1  0.048649  0  -0.032796  -0.172504  0  4.076521  0
C  C58  1  0.78309810  0.79802725  0.34257142  1  0.844074  0  0.200704  0.30833  0  4.059849  0
C  C59  1  0.21690943  0.20196457  0.65742514  1  0.844297  0  0.200686  0.308466  0  4.059862  0
C  C60  1  0.01385898  0.73624033  0.26286641  1  -0.012769  0  -0.040999  -0.040967  0  3.886618  0
C  C61  1  0.98614753  0.26375146  0.73712964  1  -0.012527  0  -0.041093  -0.041134  0  3.887114  0
C  C62  1  0.11314071  0.62969256  0.31807580  1  0.03173  0  -0.028249  0.05538  0  4.07245  0
C  C63  1  0.88687032  0.37030319  0.68192095  1  0.031682  0  -0.028253  0.055277  0  4.072765  0
C  C64  1  0.24908328  0.55771163  0.28627422  1  -0.067228  0  -0.078314  -0.078296  0  3.977265  0
C  C65  1  0.75092492  0.44228599  0.71372004  1  -0.067022  0  -0.078307  -0.078177  0  3.977345  0
C  C66  1  0.34934366  0.44942765  0.33378492  1  0.029274  0  -0.107966  -0.21716  0  3.979477  0
C  C67  1  0.65066534  0.55057295  0.66621162  1  0.029443  0  -0.107973  -0.217188  0  3.979474  0
C  C68  1  0.31845066  0.40863124  0.41656697  1  0.482939  0  0.102285  0.358183  0  4.042777  0
C  C69  1  0.68154870  0.59137023  0.58343003  1  0.482265  0  0.102396  0.358318  0  4.042758  0
C  C70  1  0.18592601  0.48193543  0.45016884  1  -0.04074  0  -0.10659  -0.225752  0  3.982362  0
C  C71  1  0.81407888  0.51806513  0.54982798  1  -0.04055  0  -0.106653  -0.225768  0  3.982133  0
C  C72  1  0.08595606  0.58966014  0.40184407  1  -0.007648  0  -0.081398  -0.085318  0  3.963357  0
C  C73  1  0.91404921  0.41034438  0.59815603  1  -0.0078  0  -0.081392  -0.085272  0  3.963652  0
C  C74  1  0.11015328  0.75436331  0.02948540  1  1.597425  0  0.224281  0.617844  0  4.233007  0
C  C75  1  0.88983418  0.24563705  0.97051200  1  1.596886  0  0.224195  0.617725  0  4.233236  0
C  C76  1  0.22855941  0.62657986  0.06219253  1  0.059164  0  -0.018251  -0.153405  0  4.043806  0
C  C77  1  0.77144960  0.37342072  0.93780285  1  0.059865  0  -0.018248  -0.153314  0  4.044025  0
C  C78  1  0.18085823  0.51996576  0.08202495  1  0.833721  0  0.205585  0.308242  0  4.042935  0
C  C79  1  0.81914070  0.48003182  0.91797282  1  0.833641  0  0.205599  0.308282  0  4.042971  0
C  C80  1  0.37149272  0.61703354  0.06726884  1  0.024153  0  -0.037197  -0.050551  0  3.875901  0
C  C81  1  0.62850699  0.38297193  0.93273319  1  0.024154  0  -0.037248  -0.050726  0  3.87586  0
C  C82  1  0.49868930  0.50764418  0.10109295  1  -0.062203  0  -0.022578  0.055254  0  4.048491  0
C  C83  1  0.50131135  0.49235916  0.89889955  1  -0.062203  0  -0.022539  0.055289  0  4.04836  0
C  C84  1  0.63904048  0.51944355  0.08648168  1  -0.041421  0  -0.071983  -0.084186  0  3.945415  0
C  C85  1  0.36095354  0.48055589  0.91351489  1  -0.041466  0  -0.071976  -0.084208  0  3.945402  0
C  C86  1  0.76574565  0.42014300  0.11994862  1  0.045758  0  -0.093933  -0.193688  0  3.951676  0
C  C87  1  0.23425366  0.57985854  0.88005186  1  0.045686  0  -0.093925  -0.193642  0  3.951769  0
C  C88  1  0.75257533  0.30764323  0.17175541  1  0.38125  0  0.097094  0.334755  0  4.018831  0
C  C89  1  0.24741954  0.69235913  0.82823998  1  0.38126  0  0.097157  0.334926  0  4.01879  0
C  C90  1  0.61549102  0.29247937  0.18729720  1  -0.005438  0  -0.09945  -0.221515  0  3.989936  0
C  C91  1  0.38450141  0.70752390  0.81269701  1  -0.005004  0  -0.099474  -0.221645  0  3.990048  0
C  C92  1  0.49079600  0.39070815  0.15144560  1  -0.023927  0  -0.073614  -0.067221  0  3.946745  0
C  C93  1  0.50920214  0.60929621  0.84855093  1  -0.02434  0  -0.073575  -0.067194  0  3.946674  0
C  C94  1  0.45425935  0.17662521  0.87651990  1  1.631792  0  0.231527  0.625623  0  4.210147  0
C  C95  1  0.54575269  0.82337546  0.12347818  1  1.631746  0  0.231507  0.625676  0  4.210185  0
C  C96  1  0.42164061  0.26642815  0.79416450  1  0.10218  0  -0.019823  -0.141854  0  4.019656  0
C  C97  1  0.57836279  0.73356856  0.20583605  1  0.102182  0  -0.019806  -0.141919  0  4.019363  0
C  C98  1  0.53847411  0.24459116  0.73618207  1  0.795273  0  0.18114  0.285592  0  4.041376  0
C  C99  1  0.46151862  0.75540641  0.26381900  1  0.795637  0  0.181134  0.285614  0  4.041554  0
C  C100  1  0.28600102  0.36272142  0.77957888  1  -0.047712  0  -0.047953  -0.070759  0  3.93237  0
C  C101  1  0.71399372  0.63727133  0.22042356  1  -0.045353  0  -0.047933  -0.070608  0  3.932362  0
C  C102  1  0.23108999  0.47025142  0.71098619  1  -0.002382  0  -0.029288  0.050991  0  4.063624  0
C  C103  1  0.76890739  0.52974239  0.28901877  1  -0.001975  0  -0.029277  0.050966  0  4.063825  0
C  C104  1  0.08079954  0.55074135  0.71251094  1  0.036488  0  -0.077461  -0.083254  0  3.972985  0
C  C105  1  0.91920236  0.44924664  0.28749251  1  0.031773  0  -0.077481  -0.083498  0  3.973194  0
C  C106  1  0.01969094  0.65816147  0.64993439  1  -0.020439  0  -0.103817  -0.209235  0  3.975697  0
C  C107  1  0.98030828  0.34183532  0.35007222  1  -0.015926  0  -0.103721  -0.208916  0  3.975533  0
C  C108  1  0.10946896  0.68979977  0.58402937  1  0.43004  0  0.090753  0.333181  0  4.069792  0
C  C109  1  0.89052925  0.31019698  0.41597557  1  0.42988  0  0.090755  0.333243  0  4.069764  0
C  C110  1  0.25980669  0.61312764  0.58178423  1  -0.05525  0  -0.105103  -0.232788  0  4.008818  0
C  C111  1  0.74019435  0.38686724  0.41822320  1  -0.054886  0  -0.105162  -0.232983  0  4.008718  0
C  C112  1  0.31897152  0.50442647  0.64381210  1  -0.035722  0  -0.079013  -0.07435  0  3.940726  0
C  C113  1  0.68102472  0.49557014  0.35618718  1  -0.036145  0  -0.078898  -0.074084  0  3.940546  0
C  C114  1  0.71964260  0.86865200  0.80932194  1  0.407929  0  -0.144068  -0.114161  0  3.869845  0
C  C115  1  0.28033902  0.13136212  0.19068543  1  0.407604  0  -0.144083  -0.113875  0  3.870052  0
N  N116  1  0.70780017  0.78368890  0.39953169  1  -1.224383  0  -0.298742  -0.386532  0  2.897684  0
N  N117  1  0.29219139  0.21629684  0.60046300  1  -1.224638  0  -0.298688  -0.386565  0  2.897819  0
N  N118  1  0.14009717  0.43268866  0.09639983  1  -1.217301  0  -0.297917  -0.391423  0  2.863197  0
N  N119  1  0.85989904  0.56731288  0.90360259  1  -1.217278  0  -0.297922  -0.391471  0  2.862988  0
N  N120  1  0.63343470  0.22291291  0.68803959  1  -1.145476  0  -0.324903  -0.394795  0  2.704935  0
N  N121  1  0.36657600  0.77707619  0.31196541  1  -1.145792  0  -0.32491  -0.39481  0  2.705417  0
O  O122  1  0.85589155  0.92654226  0.13243444  1  -1.220908  0  -0.387139  -0.649241  0  2.345429  0
O  O123  1  0.14410822  0.07346311  0.86756296  1  -1.221375  0  -0.387107  -0.649245  0  2.345476  0
O  O124  1  0.65999460  0.99269679  0.21415734  1  -1.174153  0  -0.305726  -0.539254  0  2.185742  0
O  O125  1  0.34000723  0.00730859  0.78583935  1  -1.17424  0  -0.305669  -0.539151  0  2.185808  0
O  O126  1  0.41862690  0.30251719  0.46029860  1  -1.172104  0  -0.343246  -0.440516  0  2.286575  0
O  O127  1  0.58136793  0.69748524  0.53970025  1  -1.171983  0  -0.343267  -0.440552  0  2.286575  0
O  O128  1  0.98688423  0.75211268  0.01491198  1  -1.181408  0  -0.368011  -0.608038  0  2.212572  0
O  O129  1  0.01313010  0.24788504  0.98508360  1  -1.18124  0  -0.368101  -0.608176  0  2.212009  0
O  O130  1  0.13795670  0.85699426  0.01978409  1  -1.212515  0  -0.388649  -0.645641  0  2.32049  0
O  O131  1  0.86203340  0.14301693  0.98021748  1  -1.212799  0  -0.388494  -0.645444  0  2.320992  0
O  O132  1  0.87801881  0.21245264  0.20740047  1  -1.13847  0  -0.323533  -0.430832  0  2.309919  0
O  O133  1  0.12197846  0.78754885  0.79259899  1  -1.138649  0  -0.323589  -0.430945  0  2.309943  0
O  O134  1  0.58819777  0.10408121  0.89066763  1  -1.211271  0  -0.388467  -0.622443  0  2.299387  0
O  O135  1  0.41180693  0.89591737  0.10932783  1  -1.211068  0  -0.388437  -0.622448  0  2.299217  0
O  O136  1  0.34933642  0.17901358  0.92828872  1  -1.224828  0  -0.391534  -0.642175  0  2.291598  0
O  O137  1  0.65067025  0.82097536  0.07171076  1  -1.225001  0  -0.391485  -0.642164  0  2.291772  0
O  O138  1  0.04612693  0.79576346  0.52342908  1  -1.11527  0  -0.34313  -0.439496  0  2.234374  0
O  O139  1  0.95388211  0.20423445  0.47657900  1  -1.115462  0  -0.343205  -0.439691  0  2.234376  0
O  O140  1  0.56991617  0.11675476  0.06491031  1  -1.276309  0  -0.63187  -0.827867  0  2.11  0
O  O141  1  0.43008644  0.88325364  0.93509040  1  -1.27619  0  -0.631909  -0.827837  0  2.110079  0
O  O142  1  0.93294847  0.98281978  0.86562588  1  -1.268651  0  -0.638483  -0.814818  0  2.090587  0
O  O143  1  0.06704999  0.01717398  0.13437554  1  -1.268645  0  -0.638506  -0.814845  0  2.090504  0
O  O144  1  0.73707687  0.82833500  0.89605457  1  -1.190568  0  -0.424045  -0.495284  0  2.414182  0
O  O145  1  0.26291677  0.17166765  0.10395651  1  -1.190379  0  -0.424065  -0.495325  0  2.414197  0
