# generated using pymatgen
data_SmH16C15O11
_symmetry_space_group_name_H-M   'P 1'
_cell_length_a   7.58071566
_cell_length_b   9.45738279
_cell_length_c   13.05176140
_cell_angle_alpha   103.06968162
_cell_angle_beta   99.40820110
_cell_angle_gamma   107.58737718
_symmetry_Int_Tables_number   1
_chemical_formula_structural   SmH16C15O11
_chemical_formula_sum   'Sm2 H32 C30 O22'
_cell_volume   841.37704175
_cell_formula_units_Z   2
loop_
 _symmetry_equiv_pos_site_id
 _symmetry_equiv_pos_as_xyz
  1  'x, y, z'
loop_
 _atom_site_type_symbol
 _atom_site_label
 _atom_site_symmetry_multiplicity
 _atom_site_fract_x
 _atom_site_fract_y
 _atom_site_fract_z
 _atom_site_occupancy
 _atom_site_hle17_bader_spin_density
 _atom_site_hle17_ddec_charge
 _atom_site_hle17_ddec_spin_density
 _atom_site_hle17_ddec_sum_bond_order
 _atom_site_hle17_magmom
 _atom_site_hse06_10hf_bader_spin_density
 _atom_site_hse06_10hf_ddec_charge
 _atom_site_hse06_10hf_ddec_spin_density
 _atom_site_hse06_10hf_ddec_sum_bond_order
 _atom_site_hse06_10hf_magmom
 _atom_site_hse06_bader_spin_density
 _atom_site_hse06_ddec_charge
 _atom_site_hse06_ddec_spin_density
 _atom_site_hse06_ddec_sum_bond_order
 _atom_site_hse06_magmom
 _atom_site_pbe_bader_spin_density
 _atom_site_pbe_cm5_charge
 _atom_site_pbe_ddec_charge
 _atom_site_pbe_ddec_spin_density
 _atom_site_pbe_ddec_sum_bond_order
 _atom_site_pbe_magmom
Sm  Sm0  1  0.85149536  0.28360759  0.48732136  1  0  2.272479  0  1.60595  0  0  2.116581  0  2.069888  0  0  2.226657  0  1.905652  0  0  1.493532  2.083304  0  2.101093  0
Sm  Sm1  1  0.14850505  0.71639944  0.51268246  1  0  2.272447  0  1.60603  0  0  2.116505  0  2.070056  0  0  2.22663  0  1.905736  0  0  1.493591  2.083228  0  2.1013  0
H  H2  1  0.41990213  0.28069546  0.32268712  1  0  0.120474  0  0.938657  0  0  0.129107  0  1.001362  0  0  0.131556  0  0.999537  0  0  0.12224  0.127281  0  1.002993  0
H  H3  1  0.58009108  0.71931361  0.67731724  1  0  0.120461  0  0.938636  0  0  0.129075  0  1.001379  0  0  0.131523  0  0.999559  0  0  0.122255  0.127247  0  1.003003  0
H  H4  1  0.22304330  0.25464140  0.21899891  1  0  0.088128  0  0.971464  0  0  0.097461  0  1.037262  0  0  0.0985  0  1.03713  0  0  0.109902  0.096734  0  1.03726  0
H  H5  1  0.77695186  0.74536203  0.78100696  1  0  0.088045  0  0.971456  0  0  0.097367  0  1.037283  0  0  0.098405  0  1.037152  0  0  0.109858  0.096641  0  1.037282  0
H  H6  1  0.14281099  0.29723688  0.08579746  1  0  0.094979  0  1.012822  0  0  0.104549  0  1.077637  0  0  0.106071  0  1.079258  0  0  0.095717  0.103396  0  1.076661  0
H  H7  1  0.85718903  0.70274949  0.91419520  1  0  0.094966  0  1.012829  0  0  0.104524  0  1.077664  0  0  0.106049  0  1.079288  0  0  0.095694  0.103366  0  1.076695  0
H  H8  1  0.07320791  0.38032121  0.92592832  1  0  0.107835  0  0.962558  0  0  0.118549  0  1.023375  0  0  0.121499  0  1.022464  0  0  0.10362  0.116435  0  1.024135  0
H  H9  1  0.92677592  0.61967148  0.07406567  1  0  0.107803  0  0.962713  0  0  0.118533  0  1.02352  0  0  0.121473  0  1.022607  0  0  0.103633  0.116417  0  1.024281  0
H  H10  1  0.54921553  0.81058461  0.07096480  1  0  0.105069  0  0.955194  0  0  0.116989  0  1.014817  0  0  0.119926  0  1.013154  0  0  0.103423  0.114794  0  1.016213  0
H  H11  1  0.45076776  0.18941034  0.92902799  1  0  0.104983  0  0.955359  0  0  0.116906  0  1.014973  0  0  0.119842  0  1.013314  0  0  0.103399  0.114711  0  1.01637  0
H  H12  1  0.61364098  0.72654530  0.23891656  1  0  0.08363  0  0.993099  0  0  0.094124  0  1.060904  0  0  0.097983  0  1.057207  0  0  0.096546  0.09135  0  1.06358  0
H  H13  1  0.38634116  0.27345650  0.76108111  1  0  0.083609  0  0.993283  0  0  0.09411  0  1.061056  0  0  0.097971  0  1.057358  0  0  0.096499  0.091332  0  1.063725  0
H  H14  1  0.01817408  0.51145095  0.79908391  1  0  0.092124  0  0.922478  0  0  0.101045  0  0.987518  0  0  0.102498  0  0.987012  0  0  0.113747  0.100086  0  0.987844  0
H  H15  1  0.98180801  0.48855084  0.20091300  1  0  0.092134  0  0.922483  0  0  0.101014  0  0.987553  0  0  0.102462  0  0.987055  0  0  0.1137  0.100059  0  0.987874  0
H  H16  1  0.20506801  0.43732682  0.78382123  1  0  0.088976  0  0.943533  0  0  0.096638  0  1.014314  0  0  0.098054  0  1.013254  0  0  0.113014  0.09569  0  1.014954  0
H  H17  1  0.79491687  0.56267508  0.21617744  1  0  0.089104  0  0.943423  0  0  0.096755  0  1.014189  0  0  0.09818  0  1.013116  0  0  0.113005  0.095804  0  1.014837  0
H  H18  1  0.97235010  0.94977897  0.69513404  1  0  0.104527  0  0.963556  0  0  0.111486  0  1.031836  0  0  0.115002  0  1.02922  0  0  0.117271  0.108824  0  1.034283  0
H  H19  1  0.02764240  0.05021174  0.30486183  1  0  0.104579  0  0.963462  0  0  0.11149  0  1.031762  0  0  0.115006  0  1.029139  0  0  0.117249  0.108804  0  1.034235  0
H  H20  1  0.14287105  0.13228609  0.78011186  1  0  0.07343  0  0.961912  0  0  0.083487  0  1.032156  0  0  0.084311  0  1.031556  0  0  0.109004  0.082923  0  1.032424  0
H  H21  1  0.85714073  0.86769610  0.21988103  1  0  0.073423  0  0.96196  0  0  0.083458  0  1.032153  0  0  0.084286  0  1.03156  0  0  0.108966  0.082887  0  1.03242  0
H  H22  1  0.16066938  0.95080705  0.85101828  1  0  0.113391  0  0.962098  0  0  0.12336  0  1.023681  0  0  0.127132  0  1.020992  0  0  0.107249  0.12069  0  1.025598  0
H  H23  1  0.83936262  0.04919532  0.14898647  1  0  0.11339  0  0.962019  0  0  0.123373  0  1.023604  0  0  0.127126  0  1.020933  0  0  0.107279  0.120708  0  1.02552  0
H  H24  1  0.73659116  0.10425684  0.97881844  1  0  0.121478  0  0.949398  0  0  0.130966  0  1.0096  0  0  0.134771  0  1.006944  0  0  0.110031  0.128305  0  1.011458  0
H  H25  1  0.26344500  0.89574226  0.02118761  1  0  0.121572  0  0.949055  0  0  0.131003  0  1.009327  0  0  0.134811  0  1.006655  0  0  0.110016  0.128355  0  1.011196  0
H  H26  1  0.61045921  0.94795657  0.34476895  1  0  0.453299  0  0.791084  0  0  0.436704  0  0.839986  0  0  0.444514  0  0.832334  0  0  0.341048  0.431128  0  0.846214  0
H  H27  1  0.38954328  0.05205623  0.65523292  1  0  0.453252  0  0.791084  0  0  0.43664  0  0.840033  0  0  0.444452  0  0.832377  0  0  0.340989  0.431064  0  0.846259  0
H  H28  1  0.80277522  0.93026217  0.40815931  1  0  0.445368  0  0.855285  0  0  0.411989  0  0.922235  0  0  0.424045  0  0.90501  0  0  0.299641  0.403579  0  0.934311  0
H  H29  1  0.19722138  0.06973898  0.59183939  1  0  0.445267  0  0.855439  0  0  0.411926  0  0.922312  0  0  0.423982  0  0.905088  0  0  0.299614  0.403519  0  0.934378  0
H  H30  1  0.42451152  0.10523859  0.49889106  1  0  0.435279  0  0.853479  0  0  0.411263  0  0.905097  0  0  0.421355  0  0.890482  0  0  0.307548  0.404284  0  0.91532  0
H  H31  1  0.57548824  0.89476037  0.50110752  1  0  0.435231  0  0.853542  0  0  0.411208  0  0.905174  0  0  0.421299  0  0.89056  0  0  0.307536  0.404228  0  0.915398  0
H  H32  1  0.50706064  0.28584492  0.52462743  1  0  0.439601  0  0.837674  0  0  0.413878  0  0.899326  0  0  0.424635  0  0.883573  0  0  0.313515  0.405955  0  0.911079  0
H  H33  1  0.49293185  0.71415266  0.47536958  1  0  0.43953  0  0.837778  0  0  0.413846  0  0.899373  0  0  0.424589  0  0.883637  0  0  0.31352  0.405923  0  0.911128  0
C  C34  1  0.23099011  0.39237029  0.37639336  1  0  0.743181  0  3.795918  0  0  0.695569  0  4.095873  0  0  0.729853  0  4.088633  0  0  0.235721  0.672538  0  4.102303  0
C  C35  1  0.76901008  0.60764356  0.62360775  1  0  0.743082  0  3.796172  0  0  0.695621  0  4.095877  0  0  0.729927  0  4.088609  0  0  0.235746  0.672577  0  4.102328  0
C  C36  1  0.33057550  0.34077918  0.29037560  1  0  -0.08102  0  3.606094  0  0  -0.132999  0  3.852906  0  0  -0.130207  0  3.852696  0  0  -0.064844  -0.134705  0  3.852025  0
C  C37  1  0.66941502  0.65922294  0.70962739  1  0  -0.080868  0  3.606094  0  0  -0.132862  0  3.852819  0  0  -0.13008  0  3.852609  0  0  -0.06481  -0.134546  0  3.851925  0
C  C38  1  0.38672584  0.50691625  0.17361047  1  0  0.254491  0  3.803562  0  0  0.244259  0  4.066498  0  0  0.254575  0  4.081476  0  0  0.072167  0.237098  0  4.056225  0
C  C39  1  0.61326661  0.49307788  0.82638519  1  0  0.254489  0  3.803432  0  0  0.244218  0  4.066396  0  0  0.254534  0  4.081375  0  0  0.072118  0.237056  0  4.056125  0
C  C40  1  0.23325618  0.41100233  0.08577649  1  0  -0.176835  0  3.770896  0  0  -0.197706  0  4.023352  0  0  -0.201725  0  4.044614  0  0  -0.112486  -0.194946  0  4.00914  0
C  C41  1  0.76674030  0.58899194  0.91421875  1  0  -0.176695  0  3.770778  0  0  -0.197565  0  4.023259  0  0  -0.201591  0  4.044521  0  0  -0.112449  -0.194809  0  4.009048  0
C  C42  1  0.19469725  0.45788454  0.99268630  1  0  -0.172966  0  3.773816  0  0  -0.19237  0  4.027883  0  0  -0.196236  0  4.049673  0  0  -0.108168  -0.189769  0  4.013271  0
C  C43  1  0.80529257  0.54210952  0.00731068  1  0  -0.173083  0  3.773949  0  0  -0.192512  0  4.028068  0  0  -0.196367  0  4.049837  0  0  -0.1082  -0.189909  0  4.013455  0
C  C44  1  0.31044026  0.60054279  0.98651201  1  0  0.245122  0  3.804805  0  0  0.235206  0  4.066517  0  0  0.243363  0  4.084977  0  0  0.072446  0.22951  0  4.053922  0
C  C45  1  0.68954742  0.39945578  0.01348785  1  0  0.245118  0  3.804934  0  0  0.235154  0  4.066701  0  0  0.243324  0  4.08514  0  0  0.072468  0.229438  0  4.054106  0
C  C46  1  0.45965742  0.69954953  0.07650714  1  0  -0.150804  0  3.772995  0  0  -0.172996  0  4.029568  0  0  -0.174993  0  4.048321  0  0  -0.101853  -0.171459  0  4.016845  0
C  C47  1  0.54033335  0.30045028  0.92349164  1  0  -0.150661  0  3.772776  0  0  -0.172833  0  4.029352  0  0  -0.174835  0  4.048106  0  0  -0.101814  -0.171302  0  4.016638  0
C  C48  1  0.49569440  0.65319940  0.16897707  1  0  -0.172504  0  3.800664  0  0  -0.196926  0  4.062509  0  0  -0.199612  0  4.079259  0  0  -0.111581  -0.194988  0  4.051068  0
C  C49  1  0.50428785  0.34680007  0.83101409  1  0  -0.172539  0  3.800744  0  0  -0.196958  0  4.062548  0  0  -0.199637  0  4.07928  0  0  -0.111522  -0.195014  0  4.05111  0
C  C50  1  0.17085208  0.54421365  0.79831247  1  0  -0.058976  0  3.633099  0  0  -0.111641  0  3.886777  0  0  -0.108175  0  3.887122  0  0  -0.057756  -0.113843  0  3.886114  0
C  C51  1  0.82913128  0.45579161  0.20168358  1  0  -0.059134  0  3.633215  0  0  -0.111725  0  3.886705  0  0  -0.108267  0  3.887064  0  0  -0.057727  -0.113956  0  3.886042  0
C  C52  1  0.19450968  0.60587377  0.70208297  1  0  0.721439  0  3.825772  0  0  0.671104  0  4.130024  0  0  0.704771  0  4.126177  0  0  0.215544  0.647813  0  4.136923  0
C  C53  1  0.80548489  0.39414221  0.29792264  1  0  0.721364  0  3.82595  0  0  0.671176  0  4.129941  0  0  0.704857  0  4.126071  0  0  0.21562  0.647895  0  4.136831  0
C  C54  1  0.94084403  0.14710270  0.65451378  1  0  0.671331  0  3.878234  0  0  0.625281  0  4.177714  0  0  0.656832  0  4.176363  0  0  0.198913  0.603263  0  4.1823  0
C  C55  1  0.05916581  0.85289091  0.34548699  1  0  0.671395  0  3.878239  0  0  0.625159  0  4.177908  0  0  0.656741  0  4.176535  0  0  0.198857  0.603155  0  4.182467  0
C  C56  1  0.99054565  0.07023026  0.73814414  1  0  -0.084234  0  3.679215  0  0  -0.139195  0  3.935779  0  0  -0.136554  0  3.935811  0  0  -0.070355  -0.140648  0  3.934854  0
C  C57  1  0.00946270  0.92975985  0.26185363  1  0  -0.084332  0  3.679288  0  0  -0.139053  0  3.935608  0  0  -0.136426  0  3.935646  0  0  -0.070242  -0.140487  0  3.93466  0
C  C58  1  0.94117048  0.03389622  0.90418548  1  0  0.235178  0  3.827432  0  0  0.225716  0  4.091772  0  0  0.234303  0  4.10891  0  0  0.070456  0.219668  0  4.080061  0
C  C59  1  0.05885883  0.96609921  0.09581790  1  0  0.235123  0  3.82781  0  0  0.225665  0  4.092135  0  0  0.234251  0  4.109272  0  0  0.070457  0.219607  0  4.080427  0
C  C60  1  0.09104799  0.97580172  0.91598772  1  0  -0.196304  0  3.788077  0  0  -0.215475  0  4.044954  0  0  -0.218773  0  4.063084  0  0  -0.108735  -0.213061  0  4.032507  0
C  C61  1  0.90898086  0.02419597  0.08401600  1  0  -0.196172  0  3.788183  0  0  -0.215345  0  4.045054  0  0  -0.218631  0  4.063205  0  0  -0.108827  -0.212933  0  4.032591  0
C  C62  1  0.85018141  0.05663143  0.98792786  1  0  -0.140681  0  3.745772  0  0  -0.164618  0  4.00141  0  0  -0.166072  0  4.017436  0  0  -0.098812  -0.163413  0  3.990361  0
C  C63  1  0.14984753  0.94336519  0.01208565  1  0  -0.14062  0  3.74561  0  0  -0.164489  0  4.001166  0  0  -0.165943  0  4.017199  0  0  -0.098796  -0.1633  0  3.990142  0
O  O64  1  0.10332765  0.28604892  0.39551856  1  0  -0.722059  0  2.020725  0  0  -0.671071  0  2.275052  0  0  -0.705419  0  2.262638  0  0  -0.38607  -0.653123  0  2.281578  0
O  O65  1  0.89667045  0.71395916  0.60448448  1  0  -0.721985  0  2.020926  0  0  -0.671073  0  2.275196  0  0  -0.705434  0  2.262774  0  0  -0.386104  -0.653131  0  2.281745  0
O  O66  1  0.28153406  0.53657629  0.42356131  1  0  -0.739216  0  2.085069  0  0  -0.682357  0  2.334331  0  0  -0.716012  0  2.320832  0  0  -0.386545  -0.664545  0  2.341972  0
O  O67  1  0.71846158  0.46343283  0.57643788  1  0  -0.739243  0  2.085063  0  0  -0.682424  0  2.334239  0  0  -0.716087  0  2.32074  0  0  -0.386533  -0.664607  0  2.341883  0
O  O68  1  0.45176395  0.46771275  0.26442140  1  0  -0.255827  0  2.340455  0  0  -0.188824  0  2.574213  0  0  -0.204342  0  2.574889  0  0  -0.181673  -0.177504  0  2.572857  0
O  O69  1  0.54822669  0.53228704  0.73557507  1  0  -0.25584  0  2.340393  0  0  -0.188778  0  2.574116  0  0  -0.204293  0  2.574789  0  0  -0.181634  -0.177471  0  2.572763  0
O  O70  1  0.29034179  0.65445781  0.89697860  1  0  -0.256774  0  2.32522  0  0  -0.190429  0  2.556853  0  0  -0.206728  0  2.559563  0  0  -0.181072  -0.178958  0  2.554553  0
O  O71  1  0.70964079  0.34554515  0.10301930  1  0  -0.256693  0  2.325496  0  0  -0.190376  0  2.557117  0  0  -0.206679  0  2.559829  0  0  -0.181098  -0.178851  0  2.554782  0
O  O72  1  0.28290736  0.74557381  0.71005639  1  0  -0.652212  0  1.908254  0  0  -0.609743  0  2.139152  0  0  -0.638791  0  2.127493  0  0  -0.352606  -0.594287  0  2.14589  0
O  O73  1  0.71708057  0.25442481  0.28994810  1  0  -0.652213  0  1.908006  0  0  -0.609823  0  2.138825  0  0  -0.638871  0  2.127154  0  0  -0.352629  -0.594373  0  2.14556  0
O  O74  1  0.10891656  0.50527037  0.60771973  1  0  -0.855627  0  2.153792  0  0  -0.80002  0  2.42576  0  0  -0.841232  0  2.413283  0  0  -0.456978  -0.781656  0  2.432588  0
O  O75  1  0.89108282  0.49474118  0.39228246  1  0  -0.855586  0  2.15409  0  0  -0.800029  0  2.425976  0  0  -0.841249  0  2.413501  0  0  -0.457008  -0.781678  0  2.432813  0
O  O76  1  0.04847459  0.15912308  0.58718437  1  0  -0.703793  0  1.983751  0  0  -0.646101  0  2.216096  0  0  -0.678106  0  2.206275  0  0  -0.364028  -0.627741  0  2.22191  0
O  O77  1  0.95152517  0.84087246  0.41281364  1  0  -0.703872  0  1.983564  0  0  -0.64614  0  2.216023  0  0  -0.678163  0  2.206194  0  0  -0.364053  -0.627785  0  2.221845  0
O  O78  1  0.80383029  0.19681492  0.64890036  1  0  -0.661221  0  1.944098  0  0  -0.620787  0  2.182722  0  0  -0.64963  0  2.172232  0  0  -0.371031  -0.605512  0  2.188821  0
O  O79  1  0.19618786  0.80319958  0.35110839  1  0  -0.66114  0  1.944248  0  0  -0.620618  0  2.182883  0  0  -0.649474  0  2.172382  0  0  -0.37096  -0.605351  0  2.188987  0
O  O80  1  0.87721538  0.07419417  0.81405792  1  0  -0.246033  0  2.318705  0  0  -0.179728  0  2.548628  0  0  -0.194861  0  2.549818  0  0  -0.182538  -0.168817  0  2.547047  0
O  O81  1  0.12280727  0.92580105  0.18594719  1  0  -0.246085  0  2.318826  0  0  -0.179858  0  2.548713  0  0  -0.194992  0  2.549907  0  0  -0.182622  -0.168931  0  2.547106  0
O  O82  1  0.71353178  0.99269264  0.41106461  1  0  -0.911299  0  1.862732  0  0  -0.857068  0  2.054073  0  0  -0.88439  0  2.021853  0  0  -0.604447  -0.843238  0  2.073595  0
O  O83  1  0.28647569  0.00731232  0.58893635  1  0  -0.911183  0  1.862813  0  0  -0.85696  0  2.054174  0  0  -0.884291  0  2.02195  0  0  -0.604385  -0.843144  0  2.073717  0
O  O84  1  0.49467776  0.18865402  0.47143553  1  0  -0.87248  0  1.827557  0  0  -0.825327  0  2.005493  0  0  -0.850429  0  1.970297  0  0  -0.620699  -0.812485  0  2.027202  0
O  O85  1  0.50532524  0.81134622  0.52856505  1  0  -0.872369  0  1.82769  0  0  -0.825237  0  2.005568  0  0  -0.850326  0  1.970405  0  0  -0.620676  -0.812387  0  2.027275  0
