# generated using pymatgen
data_CuH7C5IN2
_symmetry_space_group_name_H-M   'P 1'
_cell_length_a   4.31163663
_cell_length_b   8.74282405
_cell_length_c   19.16795540
_cell_angle_alpha   89.99955920
_cell_angle_beta   90.00023403
_cell_angle_gamma   93.32494495
_symmetry_Int_Tables_number   1
_chemical_formula_structural   CuH7C5IN2
_chemical_formula_sum   'Cu4 H28 C20 I4 N8'
_cell_volume   721.33665274
_cell_formula_units_Z   4
loop_
 _symmetry_equiv_pos_site_id
 _symmetry_equiv_pos_as_xyz
  1  'x, y, z'
loop_
 _atom_site_type_symbol
 _atom_site_label
 _atom_site_symmetry_multiplicity
 _atom_site_fract_x
 _atom_site_fract_y
 _atom_site_fract_z
 _atom_site_occupancy
 _atom_site_hle17_bader_spin_density
 _atom_site_hle17_ddec_charge
 _atom_site_hle17_ddec_spin_density
 _atom_site_hle17_ddec_sum_bond_order
 _atom_site_hle17_magmom
 _atom_site_hse06_10hf_bader_spin_density
 _atom_site_hse06_10hf_ddec_charge
 _atom_site_hse06_10hf_ddec_spin_density
 _atom_site_hse06_10hf_ddec_sum_bond_order
 _atom_site_hse06_10hf_magmom
 _atom_site_hse06_bader_spin_density
 _atom_site_hse06_ddec_charge
 _atom_site_hse06_ddec_spin_density
 _atom_site_hse06_ddec_sum_bond_order
 _atom_site_hse06_magmom
 _atom_site_pbe_bader_spin_density
 _atom_site_pbe_cm5_charge
 _atom_site_pbe_ddec_charge
 _atom_site_pbe_ddec_spin_density
 _atom_site_pbe_ddec_sum_bond_order
 _atom_site_pbe_magmom
Cu  Cu0  1  0.69275905  0.53580493  0.54989840  1  0  0.243264  0  2.148296  0  0  0.163463  0  2.625027  0  0  0.177365  0  2.570538  0  0  0.246599  0.155262  0  2.662022  0
Cu  Cu1  1  0.30723631  0.96419371  0.04989735  1  0  0.243198  0  2.148293  0  0  0.163407  0  2.625023  0  0  0.177369  0  2.570528  0  0  0.24659  0.1552  0  2.662047  0
Cu  Cu2  1  0.30724467  0.46419049  0.45010837  1  0  0.243261  0  2.14821  0  0  0.163462  0  2.624926  0  0  0.177432  0  2.570436  0  0  0.246622  0.155264  0  2.66191  0
Cu  Cu3  1  0.69274945  0.03580845  0.95010681  1  0  0.243223  0  2.148312  0  0  0.163432  0  2.625041  0  0  0.177339  0  2.570555  0  0  0.246621  0.155227  0  2.662076  0
H  H4  1  0.78760339  0.91160984  0.51600998  1  0  0.068405  0  0.976616  0  0  0.086104  0  1.042185  0  0  0.086592  0  1.043334  0  0  0.081182  0.085663  0  1.041448  0
H  H5  1  0.21239637  0.58839282  0.01600755  1  0  0.068418  0  0.976609  0  0  0.086155  0  1.042145  0  0  0.086651  0  1.043287  0  0  0.081215  0.085712  0  1.041411  0
H  H6  1  0.21240811  0.08839479  0.48399105  1  0  0.068486  0  0.976562  0  0  0.086234  0  1.042081  0  0  0.086708  0  1.043248  0  0  0.081251  0.085793  0  1.041339  0
H  H7  1  0.78758929  0.41160819  0.98398930  1  0  0.068436  0  0.976562  0  0  0.086157  0  1.042108  0  0  0.086649  0  1.04325  0  0  0.081194  0.085711  0  1.041371  0
H  H8  1  0.67269471  0.07543523  0.56244358  1  0  0.066345  0  0.955194  0  0  0.08121  0  1.022885  0  0  0.082155  0  1.023398  0  0  0.076588  0.080379  0  1.02278  0
H  H9  1  0.32730423  0.42456442  0.06244164  1  0  0.0664  0  0.955172  0  0  0.081251  0  1.022889  0  0  0.082197  0  1.023402  0  0  0.076584  0.080415  0  1.022785  0
H  H10  1  0.32731205  0.92456822  0.43755693  1  0  0.066407  0  0.95519  0  0  0.081243  0  1.022928  0  0  0.082191  0  1.023436  0  0  0.076574  0.080408  0  1.022819  0
H  H11  1  0.67268597  0.57543549  0.93755469  1  0  0.066419  0  0.955202  0  0  0.081287  0  1.02289  0  0  0.082234  0  1.0234  0  0  0.076599  0.080451  0  1.022783  0
H  H12  1  0.18526213  0.93058172  0.59965239  1  0  0.082256  0  0.922339  0  0  0.097874  0  0.984765  0  0  0.098342  0  0.985497  0  0  0.111117  0.097569  0  0.984175  0
H  H13  1  0.81474090  0.56941500  0.09964902  1  0  0.082232  0  0.922292  0  0  0.097871  0  0.984716  0  0  0.098343  0  0.985445  0  0  0.111132  0.097568  0  0.984128  0
H  H14  1  0.81473968  0.06941826  0.40034603  1  0  0.082259  0  0.922285  0  0  0.097911  0  0.984674  0  0  0.098382  0  0.9854  0  0  0.111119  0.097603  0  0.984085  0
H  H15  1  0.18525395  0.43058493  0.90034418  1  0  0.08223  0  0.922277  0  0  0.097867  0  0.984705  0  0  0.098339  0  0.985432  0  0  0.111093  0.09756  0  0.984117  0
H  H16  1  0.28086825  0.77048009  0.54836921  1  0  0.073134  0  0.957864  0  0  0.078169  0  1.046439  0  0  0.08148  0  1.041089  0  0  0.096  0.075525  0  1.050464  0
H  H17  1  0.71913163  0.72951746  0.04836623  1  0  0.073152  0  0.957768  0  0  0.0782  0  1.046356  0  0  0.08151  0  1.04101  0  0  0.096024  0.075554  0  1.05039  0
H  H18  1  0.71914738  0.22951884  0.45163026  1  0  0.073142  0  0.957859  0  0  0.078168  0  1.04645  0  0  0.081485  0  1.041087  0  0  0.096003  0.075509  0  1.050506  0
H  H19  1  0.28084718  0.27048465  0.95162958  1  0  0.073129  0  0.957878  0  0  0.078183  0  1.046458  0  0  0.081507  0  1.041083  0  0  0.096033  0.075533  0  1.0505  0
H  H20  1  0.00989810  0.57401223  0.69847621  1  0  0.093898  0  0.963305  0  0  0.105509  0  1.02535  0  0  0.107432  0  1.02401  0  0  0.108923  0.104068  0  1.026309  0
H  H21  1  0.99011814  0.92598295  0.19847592  1  0  0.093899  0  0.96334  0  0  0.105516  0  1.025368  0  0  0.107448  0  1.024005  0  0  0.108936  0.104078  0  1.026329  0
H  H22  1  0.99010674  0.42599578  0.30152796  1  0  0.093872  0  0.963212  0  0  0.105481  0  1.025274  0  0  0.107404  0  1.023937  0  0  0.108898  0.104039  0  1.026232  0
H  H23  1  0.00988033  0.07400556  0.80152772  1  0  0.093907  0  0.963207  0  0  0.10552  0  1.02525  0  0  0.107447  0  1.0239  0  0  0.108931  0.104082  0  1.026211  0
H  H24  1  0.84852115  0.79565469  0.79287855  1  0  0.11916  0  1.004657  0  0  0.126813  0  1.069416  0  0  0.130047  0  1.06895  0  0  0.088756  0.124325  0  1.070196  0
H  H25  1  0.15149842  0.70433324  0.29287618  1  0  0.119149  0  1.0048  0  0  0.126848  0  1.06947  0  0  0.130085  0  1.068995  0  0  0.088752  0.124346  0  1.070274  0
H  H26  1  0.15148178  0.20435789  0.20712248  1  0  0.119184  0  1.004648  0  0  0.12683  0  1.069398  0  0  0.130067  0  1.068924  0  0  0.088808  0.124344  0  1.070179  0
H  H27  1  0.84850629  0.29564730  0.70712172  1  0  0.119252  0  1.004565  0  0  0.126905  0  1.069321  0  0  0.130141  0  1.068848  0  0  0.088812  0.124425  0  1.070095  0
H  H28  1  0.45737550  0.97137552  0.71646824  1  0  0.110194  0  0.94521  0  0  0.123659  0  1.004369  0  0  0.126227  0  1.00215  0  0  0.123203  0.121803  0  1.005888  0
H  H29  1  0.54262942  0.52861929  0.21646477  1  0  0.110308  0  0.945333  0  0  0.123745  0  1.004497  0  0  0.126312  0  1.002281  0  0  0.123264  0.121888  0  1.006014  0
H  H30  1  0.54263398  0.02863253  0.28352966  1  0  0.110128  0  0.945191  0  0  0.123538  0  1.004417  0  0  0.126104  0  1.002201  0  0  0.123148  0.121682  0  1.005928  0
H  H31  1  0.45736471  0.47137262  0.78352896  1  0  0.110151  0  0.945169  0  0  0.123596  0  1.004354  0  0  0.126166  0  1.002131  0  0  0.123184  0.121735  0  1.005864  0
C  C32  1  0.58642729  0.97446621  0.53222434  1  0  -0.132854  0  3.69413  0  0  -0.169511  0  3.943535  0  0  -0.172144  0  3.95879  0  0  -0.175849  -0.167473  0  3.932878  0
C  C33  1  0.41357263  0.52553504  0.03222180  1  0  -0.132987  0  3.694164  0  0  -0.169704  0  3.943674  0  0  -0.172347  0  3.958934  0  0  -0.17587  -0.167655  0  3.933007  0
C  C34  1  0.41358168  0.02553611  0.46777565  1  0  -0.133047  0  3.694177  0  0  -0.169784  0  3.943669  0  0  -0.172408  0  3.958925  0  0  -0.175871  -0.167721  0  3.93299  0
C  C35  1  0.58641535  0.47446599  0.96777402  1  0  -0.132974  0  3.694185  0  0  -0.169651  0  3.943607  0  0  -0.172284  0  3.958867  0  0  -0.175833  -0.167585  0  3.932923  0
C  C36  1  0.37888145  0.86950109  0.57813908  1  0  -0.014253  0  3.632352  0  0  -0.088056  0  3.88961  0  0  -0.08445  0  3.899986  0  0  -0.056213  -0.090076  0  3.882419  0
C  C37  1  0.62112134  0.63049714  0.07813740  1  0  -0.01414  0  3.632313  0  0  -0.088047  0  3.889715  0  0  -0.084446  0  3.900102  0  0  -0.056245  -0.090069  0  3.88252  0
C  C38  1  0.62113217  0.13050127  0.42186039  1  0  -0.01428  0  3.632364  0  0  -0.088075  0  3.889658  0  0  -0.084468  0  3.900032  0  0  -0.056232  -0.090103  0  3.882463  0
C  C39  1  0.37886180  0.36950157  0.92185893  1  0  -0.014272  0  3.63238  0  0  -0.088122  0  3.889678  0  0  -0.084517  0  3.900063  0  0  -0.05627  -0.090152  0  3.882493  0
C  C40  1  0.85804822  0.66755061  0.69178558  1  0  0.04415  0  3.736142  0  0  0.001102  0  4.01275  0  0  0.009097  0  4.027851  0  0  0.006415  -0.003829  0  4.002115  0
C  C41  1  0.14196579  0.83244696  0.19178432  1  0  0.044111  0  3.736045  0  0  0.001071  0  4.012711  0  0  0.009074  0  4.027813  0  0  0.00643  -0.003868  0  4.002083  0
C  C42  1  0.14196066  0.33245057  0.30821754  1  0  0.044164  0  3.73627  0  0  0.001102  0  4.012903  0  0  0.009106  0  4.027992  0  0  0.006428  -0.00383  0  4.002274  0
C  C43  1  0.85802895  0.16755183  0.80821671  1  0  0.044081  0  3.736133  0  0  0.001029  0  4.012784  0  0  0.009037  0  4.02786  0  0  0.006399  -0.003908  0  4.00217  0
C  C44  1  0.77554812  0.78095628  0.73904390  1  0  -0.225232  0  3.819443  0  0  -0.238298  0  4.086267  0  0  -0.248193  0  4.107137  0  0  -0.127906  -0.231777  0  4.072105  0
C  C45  1  0.22446191  0.71903934  0.23904520  1  0  -0.225186  0  3.819338  0  0  -0.238279  0  4.086113  0  0  -0.248173  0  4.106981  0  0  -0.127996  -0.231749  0  4.071959  0
C  C46  1  0.22445450  0.21905287  0.26096078  1  0  -0.225361  0  3.819826  0  0  -0.238404  0  4.086613  0  0  -0.248296  0  4.107482  0  0  -0.12796  -0.231883  0  4.072453  0
C  C47  1  0.77553202  0.28095028  0.76095948  1  0  -0.225351  0  3.819676  0  0  -0.238415  0  4.086489  0  0  -0.248306  0  4.107356  0  0  -0.127958  -0.231898  0  4.07232  0
C  C48  1  0.57717102  0.87057630  0.70187276  1  0  -0.005262  0  3.690171  0  0  -0.063994  0  3.94463  0  0  -0.055702  0  3.959192  0  0  0.016302  -0.068984  0  3.934512  0
C  C49  1  0.42284930  0.62941199  0.20187091  1  0  -0.005526  0  3.690197  0  0  -0.064252  0  3.944637  0  0  -0.055955  0  3.95919  0  0  0.016266  -0.069235  0  3.934508  0
C  C50  1  0.42282706  0.12943396  0.29812670  1  0  -0.005101  0  3.690384  0  0  -0.063782  0  3.944854  0  0  -0.055484  0  3.959413  0  0  0.01639  -0.068774  0  3.934727  0
C  C51  1  0.57716481  0.37056976  0.79812543  1  0  -0.005141  0  3.690132  0  0  -0.063851  0  3.944598  0  0  -0.055551  0  3.959151  0  0  0.016349  -0.068833  0  3.934458  0
I  I52  1  0.81811649  0.64048826  0.42398031  1  0  -0.358491  0  1.730202  0  0  -0.301095  0  2.180072  0  0  -0.314345  0  2.135282  0  0  -0.163175  -0.291938  0  2.211625  0
I  I53  1  0.18187889  0.85951451  0.92398027  1  0  -0.358492  0  1.730303  0  0  -0.301092  0  2.180179  0  0  -0.314325  0  2.135378  0  0  -0.163169  -0.291928  0  2.211755  0
I  I54  1  0.18188501  0.35950829  0.57602542  1  0  -0.358514  0  1.730232  0  0  -0.301134  0  2.180125  0  0  -0.314362  0  2.135318  0  0  -0.163187  -0.291979  0  2.211692  0
I  I55  1  0.81810960  0.14049225  0.07602284  1  0  -0.358508  0  1.730239  0  0  -0.301105  0  2.180113  0  0  -0.314357  0  2.135319  0  0  -0.163181  -0.291938  0  2.21168  0
N  N56  1  0.71836796  0.68533029  0.62974131  1  0  -0.225919  0  3.22759  0  0  -0.185429  0  3.524707  0  0  -0.196246  0  3.535116  0  0  -0.280298  -0.178328  0  3.5175  0
N  N57  1  0.28163798  0.81466710  0.12973971  1  0  -0.225654  0  3.227427  0  0  -0.185235  0  3.524575  0  0  -0.196064  0  3.535006  0  0  -0.28023  -0.178134  0  3.517375  0
N  N58  1  0.28163900  0.31467545  0.37026129  1  0  -0.225777  0  3.227486  0  0  -0.185273  0  3.524602  0  0  -0.196103  0  3.535039  0  0  -0.280287  -0.178166  0  3.517384  0
N  N59  1  0.71835404  0.18532709  0.87026132  1  0  -0.225687  0  3.227404  0  0  -0.185228  0  3.524552  0  0  -0.196036  0  3.534958  0  0  -0.280282  -0.178129  0  3.517363  0
N  N60  1  0.54696154  0.80996358  0.63697861  1  0  0.061234  0  3.556827  0  0  0.182532  0  3.728694  0  0  0.172351  0  3.756131  0  0  -0.15166  0.187857  0  3.71246  0
N  N61  1  0.45304442  0.69003255  0.13697500  1  0  0.061137  0  3.557003  0  0  0.182539  0  3.728805  0  0  0.172345  0  3.756273  0  0  -0.151672  0.187869  0  3.712566  0
N  N62  1  0.45304764  0.19004103  0.36302138  1  0  0.061162  0  3.556911  0  0  0.182432  0  3.728815  0  0  0.172231  0  3.756292  0  0  -0.151691  0.187766  0  3.712569  0
N  N63  1  0.54694770  0.30996278  0.86302081  1  0  0.061076  0  3.556806  0  0  0.182399  0  3.72869  0  0  0.172174  0  3.756213  0  0  -0.151699  0.187733  0  3.712445  0
