# generated using pymatgen
data_CuH20C22N4O7
_symmetry_space_group_name_H-M   'P 1'
_cell_length_a   8.81057553
_cell_length_b   11.35311972
_cell_length_c   11.35285586
_cell_angle_alpha   89.38665364
_cell_angle_beta   88.58436175
_cell_angle_gamma   88.58640672
_symmetry_Int_Tables_number   1
_chemical_formula_structural   CuH20C22N4O7
_chemical_formula_sum   'Cu2 H40 C44 N8 O14'
_cell_volume   1134.84800115
_cell_formula_units_Z   2
loop_
 _symmetry_equiv_pos_site_id
 _symmetry_equiv_pos_as_xyz
  1  'x, y, z'
loop_
 _atom_site_type_symbol
 _atom_site_label
 _atom_site_symmetry_multiplicity
 _atom_site_fract_x
 _atom_site_fract_y
 _atom_site_fract_z
 _atom_site_occupancy
 _atom_site_pbe_cm5_charge
 _atom_site_pbe_ddec_charge
 _atom_site_pbe_ddec_spin_density
 _atom_site_pbe_ddec_sum_bond_order
 _atom_site_pbe_magmom
Cu  Cu0  1  0.09954645  0.39363256  0.83621015  1  0.744085  0.788825  -0.738042  2.277855  -0.576
Cu  Cu1  1  0.59954475  0.83621008  0.39363245  1  0.744146  0.788811  -0.738054  2.277847  -0.575
H  H2  1  0.33232140  0.11421598  0.70491399  1  0.104443  0.106462  -0.000295  1.041395  0.0
H  H3  1  0.83229576  0.70492512  0.11424141  1  0.104473  0.106631  -0.000295  1.041172  0.0
H  H4  1  0.41892534  0.74290127  0.73991229  1  0.100702  0.098492  -0.000485  1.042305  0.0
H  H5  1  0.91891428  0.73992350  0.74290100  1  0.100673  0.098487  -0.000485  1.042427  0.0
H  H6  1  0.27059110  0.74158296  0.93150632  1  0.097629  0.100385  -0.000105  1.002383  0.0
H  H7  1  0.77058022  0.93150464  0.74157820  1  0.097644  0.100335  -0.000105  1.002437  0.0
H  H8  1  0.15972981  0.93037057  0.00937247  1  0.096443  0.091524  1.8e-05  1.053426  0.0
H  H9  1  0.65970888  0.00935694  0.93037918  1  0.09642  0.09148  1.8e-05  1.053313  0.0
H  H10  1  0.86992853  0.41279920  0.65789640  1  0.126767  0.100662  -0.00106  0.999708  -0.002
H  H11  1  0.36993576  0.65790837  0.41278815  1  0.12675  0.10057  -0.001061  0.999646  -0.002
H  H12  1  0.41057343  0.39231773  0.42534502  1  0.112009  0.092199  -1.3e-05  0.984867  0.0
H  H13  1  0.91057378  0.42535720  0.39232074  1  0.112011  0.092229  -1.3e-05  0.984846  0.0
H  H14  1  0.34186139  0.24606141  0.42260516  1  0.107134  0.090216  -1.3e-05  1.011706  0.0
H  H15  1  0.84187341  0.42260519  0.24605406  1  0.10713  0.090233  -1.3e-05  1.011677  0.0
H  H16  1  0.65982359  0.31506104  0.33454626  1  0.109241  0.08144  1e-06  1.017259  0.0
H  H17  1  0.15981910  0.33454907  0.31507172  1  0.109201  0.081471  1e-06  1.017202  0.0
H  H18  1  0.57306851  0.17666029  0.31141433  1  0.108411  0.093598  -0.000185  1.000832  0.0
H  H19  1  0.07308131  0.31141208  0.17665538  1  0.108373  0.093581  -0.000185  1.000646  0.0
H  H20  1  0.67635306  0.55856328  0.01189920  1  0.112731  0.11588  3.1e-05  1.024738  0.0
H  H21  1  0.17634213  0.01188507  0.55856803  1  0.112704  0.115866  3.2e-05  1.024919  0.0
H  H22  1  0.60209062  0.60782438  0.80339238  1  0.117213  0.126829  -0.000517  0.986553  -0.001
H  H23  1  0.10207731  0.80339097  0.60781904  1  0.117175  0.126809  -0.000517  0.98651  -0.001
H  H24  1  0.47977465  0.22317748  0.78678501  1  0.111902  0.116171  -2.7e-05  1.024994  0.0
H  H25  1  0.97979974  0.78678511  0.22316044  1  0.111848  0.116173  -2.7e-05  1.024871  0.0
H  H26  1  0.62171965  0.18316266  0.97402902  1  0.109964  0.115607  -0.000631  1.012515  -0.001
H  H27  1  0.12174673  0.97402362  0.18316439  1  0.110026  0.11568  -0.000631  1.012543  -0.001
H  H28  1  0.88847868  0.25256259  0.98686755  1  0.119768  0.096107  -0.000931  1.00856  -0.001
H  H29  1  0.38849672  0.98686474  0.25257530  1  0.119766  0.09605  -0.000931  1.008646  -0.001
H  H30  1  0.26211112  0.36485506  0.04974568  1  0.118202  0.081386  -0.000898  1.046896  -0.001
H  H31  1  0.76210635  0.04973240  0.36486778  1  0.118169  0.081322  -0.000898  1.046931  -0.001
H  H32  1  0.35332688  0.53264964  0.73233818  1  0.129602  0.112425  -0.001121  0.978951  -0.002
H  H33  1  0.85331385  0.73234765  0.53264794  1  0.129571  0.112297  -0.001122  0.979095  -0.002
H  H34  1  0.51824174  0.18443322  0.56298411  1  0.300485  0.281928  -1.3e-05  1.000649  0.0
H  H35  1  0.01824082  0.56297652  0.18441760  1  0.300454  0.281763  -1.3e-05  1.000967  0.0
H  H36  1  0.44284051  0.25833279  0.15502655  1  0.326771  0.283846  -6.5e-05  0.923789  0.0
H  H37  1  0.94284365  0.15503866  0.25832828  1  0.326704  0.283967  -6.5e-05  0.92374  0.0
H  H38  1  0.15640347  0.33347174  0.59825199  1  0.294514  0.398021  2.5e-05  0.931557  0.0
H  H39  1  0.65640525  0.59826294  0.33345842  1  0.294572  0.39813  2.5e-05  0.931406  0.0
H  H40  1  0.14200062  0.46839342  0.58050580  1  0.290401  0.397467  3.6e-05  0.933328  0.0
H  H41  1  0.64200155  0.58052411  0.46840115  1  0.290418  0.3974  3.6e-05  0.933408  0.0
C  C42  1  0.18029015  0.15050893  0.91095174  1  0.19561  0.567545  -0.000864  4.234567  0.0
C  C43  1  0.68026536  0.91095433  0.15054264  1  0.195442  0.56734  -0.000859  4.235372  0.0
C  C44  1  0.24438830  0.03502221  0.86482849  1  -0.021911  -0.031293  -0.007188  3.96058  -0.008
C  C45  1  0.74435611  0.86482921  0.03504191  1  -0.021912  -0.031148  -0.007195  3.960287  -0.008
C  C46  1  0.32417187  0.03338162  0.75674498  1  -0.084992  -0.120043  -4.7e-05  3.962647  0.0
C  C47  1  0.82414309  0.75675746  0.03340027  1  -0.084762  -0.120107  -4.7e-05  3.962129  0.0
C  C48  1  0.38900329  0.92900249  0.71280999  1  -0.026043  -0.047285  -0.006381  3.997094  -0.007
C  C49  1  0.88897748  0.71283327  0.92901387  1  -0.026206  -0.047086  -0.006373  3.996918  -0.007
C  C50  1  0.47333309  0.93055463  0.59633407  1  0.194856  0.557901  0.002119  4.24055  0.003
C  C51  1  0.97331094  0.59637575  0.93057435  1  0.194891  0.557648  0.002114  4.240333  0.003
C  C52  1  0.36953675  0.82369314  0.77638663  1  -0.082771  -0.087459  0.000727  3.965275  0.0
C  C53  1  0.86952202  0.77639404  0.82368679  1  -0.082719  -0.087632  0.000727  3.965035  0.0
C  C54  1  0.28725901  0.82383812  0.88284848  1  -0.092897  -0.085055  -0.000615  4.005337  -0.001
C  C55  1  0.78723835  0.88285107  0.82383838  1  -0.092848  -0.084836  -0.000615  4.004889  -0.001
C  C56  1  0.22543235  0.92926173  0.92715328  1  -0.080192  -0.077453  1e-06  3.958751  -0.001
C  C57  1  0.72542028  0.92714049  0.92927208  1  -0.080378  -0.077759  1e-06  3.958803  -0.001
C  C58  1  0.81218543  0.35873454  0.72415382  1  0.060738  0.077967  0.002862  3.892255  0.002
C  C59  1  0.31218117  0.72415915  0.35872806  1  0.060758  0.078145  0.002862  3.892309  0.002
C  C60  1  0.66654240  0.31746494  0.70613274  1  -0.003983  -0.06291  -0.003486  3.979598  -0.004
C  C61  1  0.16655216  0.70613042  0.31744805  1  -0.003882  -0.062918  -0.003486  3.980003  -0.004
C  C62  1  0.59158102  0.35458003  0.59426423  1  0.243604  0.47519  -0.000565  4.166277  -0.001
C  C63  1  0.09159104  0.59428279  0.35456490  1  0.243574  0.475024  -0.000565  4.165817  -0.001
C  C64  1  0.44428679  0.29859307  0.42576485  1  -0.062516  -0.033948  -0.000125  3.896353  0.0
C  C65  1  0.94429317  0.42577161  0.29859329  1  -0.062509  -0.034055  -0.000125  3.896507  0.0
C  C66  1  0.55184255  0.27191269  0.32019974  1  -0.060823  -0.034984  -0.000287  3.891522  0.0
C  C67  1  0.05184139  0.32020056  0.27191859  1  -0.060779  -0.034879  -0.000287  3.891368  0.0
C  C68  1  0.52735414  0.42450258  0.16661934  1  0.244219  0.474331  -0.000714  4.161766  -0.001
C  C69  1  0.02735566  0.16660240  0.42451550  1  0.244291  0.47442  -0.000714  4.161297  -0.001
C  C70  1  0.47722716  0.45633701  0.04566322  1  -0.009847  -0.074712  -0.003262  4.008049  -0.004
C  C71  1  0.97722651  0.04565603  0.45633548  1  -0.009807  -0.074627  -0.003262  4.008262  -0.004
C  C72  1  0.57127970  0.52789433  0.97575864  1  -0.053616  -0.035885  0.004254  3.897959  0.002
C  C73  1  0.07127372  0.97575246  0.52789609  1  -0.053474  -0.035827  0.004255  3.898292  0.002
C  C74  1  0.52936243  0.55577532  0.86157075  1  -0.071124  -0.112456  -0.003604  3.950719  -0.004
C  C75  1  0.02935176  0.86156526  0.55577166  1  -0.071099  -0.11248  -0.003604  3.951034  -0.004
C  C76  1  0.59553657  0.25267582  0.79620125  1  -0.061309  -0.053085  0.004156  3.91295  0.002
C  C77  1  0.09555328  0.79620090  0.25266266  1  -0.061195  -0.052862  0.004156  3.912858  0.002
C  C78  1  0.67308126  0.23123905  0.90020426  1  -0.080919  -0.12214  -0.003629  3.978064  -0.004
C  C79  1  0.17309878  0.90020286  0.23124293  1  -0.080943  -0.122295  -0.003629  3.978328  -0.004
C  C80  1  0.82022610  0.27126122  0.90976458  1  0.053112  0.096864  0.001344  3.904243  0.0
C  C81  1  0.32023522  0.90976505  0.27126828  1  0.053059  0.096925  0.001343  3.90445  0.0
C  C82  1  0.34167727  0.41925087  0.99965158  1  0.049477  0.05052  0.001954  3.937302  0.001
C  C83  1  0.84167780  0.99964396  0.41925416  1  0.049541  0.050655  0.001954  3.937376  0.001
C  C84  1  0.39188599  0.51511145  0.82143313  1  0.062858  0.101676  0.002428  3.888048  0.002
C  C85  1  0.89188562  0.82144004  0.51510665  1  0.062879  0.101924  0.002427  3.888737  0.002
N  N86  1  0.88779456  0.33413646  0.82272824  1  -0.340708  -0.216303  -0.054458  3.620968  -0.072
N  N87  1  0.38780201  0.82272845  0.33413577  1  -0.340758  -0.216419  -0.054456  3.621209  -0.072
N  N88  1  0.51787892  0.27170238  0.53607959  1  -0.412404  -0.34173  -0.0004  3.541166  0.0
N  N89  1  0.01789350  0.53606972  0.27167698  1  -0.412405  -0.341511  -0.000401  3.54092  0.0
N  N90  1  0.49338021  0.31578483  0.20863414  1  -0.414114  -0.34793  -0.000144  3.538894  0.0
N  N91  1  0.99336271  0.20864728  0.31579281  1  -0.414075  -0.348402  -0.000145  3.538569  0.0
N  N92  1  0.29998587  0.44972702  0.89021672  1  -0.34253  -0.208012  -0.054599  3.626151  -0.072
N  N93  1  0.79998369  0.89021306  0.44973145  1  -0.342565  -0.208141  -0.054595  3.626359  -0.072
O  O94  1  0.18248659  0.23276761  0.83116410  1  -0.33877  -0.557714  -0.06471  2.401497  -0.092
O  O95  1  0.68249106  0.83115828  0.23277178  1  -0.338619  -0.557497  -0.064719  2.402105  -0.092
O  O96  1  0.17164795  0.40786962  0.63900838  1  -0.601496  -0.793337  0.001208  2.013587  0.0
O  O97  1  0.67161716  0.63901634  0.40786267  1  -0.601542  -0.793332  0.001206  2.013641  0.0
O  O98  1  0.13404933  0.16064352  0.01601216  1  -0.349443  -0.59296  0.00073  2.094538  0.0
O  O99  1  0.63401762  0.01600502  0.16065901  1  -0.349237  -0.592729  0.000727  2.095039  0.0
O  O100  1  0.49595159  0.02659778  0.54244895  1  -0.333623  -0.589594  0.000975  2.187091  -0.001
O  O101  1  0.99593599  0.54249041  0.02660377  1  -0.333595  -0.589365  0.000982  2.187568  -0.001
O  O102  1  0.51563881  0.82846869  0.55677510  1  -0.32948  -0.535329  -0.072336  2.320614  -0.103
O  O103  1  0.01563947  0.55675828  0.82848384  1  -0.329579  -0.535477  -0.072367  2.319663  -0.103
O  O104  1  0.60140414  0.45945207  0.56081694  1  -0.301962  -0.518371  -0.000224  2.167363  0.0
O  O105  1  0.10140754  0.56082940  0.45944809  1  -0.301963  -0.518339  -0.000224  2.167266  0.0
O  O106  1  0.60286233  0.49490414  0.22289149  1  -0.285571  -0.491596  -0.000809  2.201319  -0.001
O  O107  1  0.10286515  0.22286648  0.49492404  1  -0.285656  -0.491522  -0.000809  2.201075  -0.001
