# generated using pymatgen
data_NdH11C17O11
_symmetry_space_group_name_H-M   'P 1'
_cell_length_a   8.82933473
_cell_length_b   8.86643171
_cell_length_c   12.69087811
_cell_angle_alpha   81.54762331
_cell_angle_beta   69.57749850
_cell_angle_gamma   61.31217591
_symmetry_Int_Tables_number   1
_chemical_formula_structural   NdH11C17O11
_chemical_formula_sum   'Nd2 H22 C34 O22'
_cell_volume   816.51191995
_cell_formula_units_Z   2
loop_
 _symmetry_equiv_pos_site_id
 _symmetry_equiv_pos_as_xyz
  1  'x, y, z'
loop_
 _atom_site_type_symbol
 _atom_site_label
 _atom_site_symmetry_multiplicity
 _atom_site_fract_x
 _atom_site_fract_y
 _atom_site_fract_z
 _atom_site_occupancy
 _atom_site_hle17_bader_spin_density
 _atom_site_hle17_ddec_charge
 _atom_site_hle17_ddec_spin_density
 _atom_site_hle17_ddec_sum_bond_order
 _atom_site_hle17_magmom
 _atom_site_hse06_10hf_bader_spin_density
 _atom_site_hse06_10hf_ddec_charge
 _atom_site_hse06_10hf_ddec_spin_density
 _atom_site_hse06_10hf_ddec_sum_bond_order
 _atom_site_hse06_10hf_magmom
 _atom_site_hse06_bader_spin_density
 _atom_site_hse06_ddec_charge
 _atom_site_hse06_ddec_spin_density
 _atom_site_hse06_ddec_sum_bond_order
 _atom_site_hse06_magmom
 _atom_site_pbe_bader_spin_density
 _atom_site_pbe_cm5_charge
 _atom_site_pbe_ddec_charge
 _atom_site_pbe_ddec_spin_density
 _atom_site_pbe_ddec_sum_bond_order
 _atom_site_pbe_magmom
Nd  Nd0  1  0.08533393  0.76672242  0.58106586  1  0  2.332536  0  1.588335  0  0  2.2253  0  1.947811  0  0  2.267053  0  1.904286  0  0  1.493927  2.140729  0  2.078076  0
Nd  Nd1  1  0.91466792  0.23327836  0.41893418  1  0  2.332528  0  1.588344  0  0  2.225294  0  1.94782  0  0  2.267049  0  1.904293  0  0  1.493928  2.14074  0  2.078054  0
H  H2  1  0.54363600  0.81834241  0.46148955  1  0  0.114854  0  0.962264  0  0  0.123661  0  1.02717  0  0  0.127274  0  1.024883  0  0  0.114133  0.120828  0  1.029445  0
H  H3  1  0.45636402  0.18165965  0.53851001  1  0  0.114846  0  0.962275  0  0  0.123653  0  1.027182  0  0  0.127265  0  1.024896  0  0  0.114132  0.120819  0  1.029456  0
H  H4  1  0.48164627  0.00849747  0.14091128  1  0  0.122704  0  0.965985  0  0  0.127007  0  1.037395  0  0  0.131641  0  1.033421  0  0  0.110777  0.12355  0  1.040595  0
H  H5  1  0.51835437  0.99150331  0.85908905  1  0  0.122703  0  0.965985  0  0  0.127009  0  1.037389  0  0  0.131642  0  1.033416  0  0  0.110778  0.123552  0  1.040589  0
H  H6  1  0.93095066  0.97165688  0.22544513  1  0  0.115453  0  0.954729  0  0  0.12108  0  1.027814  0  0  0.125667  0  1.023663  0  0  0.11448  0.118321  0  1.029667  0
H  H7  1  0.06904940  0.02834262  0.77455548  1  0  0.115453  0  0.954723  0  0  0.121079  0  1.02781  0  0  0.125666  0  1.023659  0  0  0.114484  0.11832  0  1.029667  0
H  H8  1  0.71434219  0.91250092  0.98577761  1  0  0.06047  0  0.914074  0  0  0.070488  0  0.97898  0  0  0.071325  0  0.976095  0  0  0.120892  0.069722  0  0.981234  0
H  H9  1  0.28565845  0.08749986  0.01422193  1  0  0.060465  0  0.914063  0  0  0.070474  0  0.978981  0  0  0.071311  0  0.976095  0  0  0.12088  0.069708  0  0.981234  0
H  H10  1  0.84890462  0.01312944  0.89679231  1  0  0.062639  0  0.936199  0  0  0.070684  0  1.006682  0  0  0.071323  0  1.004281  0  0  0.121807  0.070024  0  1.008649  0
H  H11  1  0.15109482  0.98687134  0.10320752  1  0  0.062635  0  0.936207  0  0  0.070678  0  1.006692  0  0  0.071316  0  1.004291  0  0  0.121801  0.070017  0  1.008657  0
H  H12  1  0.83093165  0.27663632  0.93595005  1  0  0.131817  0  0.941195  0  0  0.13889  0  1.005529  0  0  0.143044  0  1.002411  0  0  0.115025  0.135839  0  1.007887  0
H  H13  1  0.16907024  0.72336190  0.06405104  1  0  0.131831  0  0.941245  0  0  0.138911  0  1.005559  0  0  0.143064  0  1.002442  0  0  0.11502  0.135861  0  1.007919  0
H  H14  1  0.05720886  0.54615735  0.84000952  1  0  0.417986  0  0.858255  0  0  0.389894  0  0.93285  0  0  0.402287  0  0.918882  0  0  0.314431  0.381055  0  0.94277  0
H  H15  1  0.94278873  0.45384473  0.15999141  1  0  0.417982  0  0.858251  0  0  0.389904  0  0.932835  0  0  0.402298  0  0.918864  0  0  0.314431  0.381065  0  0.942756  0
H  H16  1  0.62022293  0.66775809  0.70689003  1  0  0.117883  0  0.945117  0  0  0.126329  0  1.007659  0  0  0.129677  0  1.005853  0  0  0.117073  0.123699  0  1.00959  0
H  H17  1  0.37977650  0.33224271  0.29311138  1  0  0.117896  0  0.945111  0  0  0.126329  0  1.007657  0  0  0.129676  0  1.005852  0  0  0.117075  0.123699  0  1.009588  0
H  H18  1  0.33571166  0.37506562  0.88237152  1  0  0.118251  0  0.937767  0  0  0.127636  0  1.001391  0  0  0.131254  0  0.998998  0  0  0.111957  0.124954  0  1.00336  0
H  H19  1  0.66428835  0.62493646  0.11762962  1  0  0.118296  0  0.937675  0  0  0.127675  0  1.001303  0  0  0.131292  0  0.998909  0  0  0.111967  0.124992  0  1.003273  0
H  H20  1  0.21046947  0.40409912  0.50186807  1  0  0.448411  0  0.84994  0  0  0.418857  0  0.910665  0  0  0.429834  0  0.894773  0  0  0.301967  0.410914  0  0.922018  0
H  H21  1  0.78953244  0.59589909  0.49813144  1  0  0.448421  0  0.849923  0  0  0.418868  0  0.910649  0  0  0.429845  0  0.894755  0  0  0.301974  0.410925  0  0.922002  0
H  H22  1  0.39107264  0.43187043  0.45264935  1  0  0.448718  0  0.84526  0  0  0.420537  0  0.904078  0  0  0.431314  0  0.888306  0  0  0.30492  0.412721  0  0.91534  0
H  H23  1  0.60892805  0.56812778  0.54735124  1  0  0.448725  0  0.84525  0  0  0.420543  0  0.904069  0  0  0.43132  0  0.888296  0  0  0.304923  0.412727  0  0.91533  0
C  C24  1  0.84649269  0.85692248  0.43397491  1  0  0.691331  0  3.871066  0  0  0.642265  0  4.16448  0  0  0.67633  0  4.154471  0  0  0.227335  0.619517  0  4.164533  0
C  C25  1  0.15350800  0.14307574  0.56602568  1  0  0.691377  0  3.871005  0  0  0.642307  0  4.164433  0  0  0.676372  0  4.154423  0  0  0.227392  0.619564  0  4.16448  0
C  C26  1  0.74748443  0.89237146  0.35232889  1  0  -0.043467  0  3.776013  0  0  -0.017235  0  4.010641  0  0  -0.023812  0  4.032659  0  0  -0.01141  -0.013464  0  3.996868  0
C  C27  1  0.25251684  0.10762803  0.64767063  1  0  -0.04343  0  3.775986  0  0  -0.017218  0  4.010637  0  0  -0.023794  0  4.032651  0  0  -0.011407  -0.013448  0  3.996862  0
C  C28  1  0.59511175  0.86461518  0.37961770  1  0  -0.090564  0  3.692675  0  0  -0.129902  0  3.940164  0  0  -0.129065  0  3.959047  0  0  -0.08034  -0.130595  0  3.928916  0
C  C29  1  0.40488769  0.13538560  0.62038213  1  0  -0.09053  0  3.692644  0  0  -0.129852  0  3.940128  0  0  -0.129029  0  3.958998  0  0  -0.080321  -0.130545  0  3.928884  0
C  C30  1  0.50073345  0.90752824  0.30275910  1  0  -0.033456  0  3.754512  0  0  -0.006527  0  3.987032  0  0  -0.012626  0  4.008559  0  0  -0.010208  -0.003175  0  3.973689  0
C  C31  1  0.49926720  0.09247253  0.69724044  1  0  -0.033472  0  3.754502  0  0  -0.006572  0  3.987038  0  0  -0.012628  0  4.008504  0  0  -0.010215  -0.003221  0  3.973695  0
C  C32  1  0.32417751  0.89912473  0.33730430  1  0  0.701761  0  3.881541  0  0  0.652358  0  4.181268  0  0  0.686892  0  4.170707  0  0  0.225045  0.629255  0  4.182793  0
C  C33  1  0.67582193  0.10087603  0.66269475  1  0  0.701714  0  3.881549  0  0  0.652348  0  4.181222  0  0  0.686872  0  4.17066  0  0  0.225038  0.629246  0  4.182748  0
C  C34  1  0.56181818  0.97042773  0.19730374  1  0  -0.187718  0  3.71003  0  0  -0.223741  0  3.965345  0  0  -0.225635  0  3.982507  0  0  -0.093939  -0.222373  0  3.954517  0
C  C35  1  0.43818125  0.02957305  0.80269609  1  0  -0.187749  0  3.709964  0  0  -0.223765  0  3.965282  0  0  -0.225672  0  3.982432  0  0  -0.093964  -0.222394  0  3.954456  0
C  C36  1  0.72168649  0.98548830  0.16794082  1  0  0.269575  0  3.807108  0  0  0.26387  0  4.071923  0  0  0.272455  0  4.088802  0  0  0.082256  0.257607  0  4.060846  0
C  C37  1  0.27831357  0.01451119  0.83205899  1  0  0.26959  0  3.80707  0  0  0.263885  0  4.071877  0  0  0.272469  0  4.088758  0  0  0.082268  0.257618  0  4.060805  0
C  C38  1  0.81069834  0.95288235  0.24683088  1  0  -0.163846  0  3.6932  0  0  -0.204015  0  3.955416  0  0  -0.205422  0  3.972557  0  0  -0.086186  -0.20256  0  3.943289  0
C  C39  1  0.18930357  0.04711585  0.75316785  1  0  -0.163819  0  3.693214  0  0  -0.203976  0  3.955414  0  0  -0.205387  0  3.972564  0  0  -0.08616  -0.20252  0  3.943289  0
C  C40  1  0.74034458  0.02402431  0.97556550  1  0  0.265769  0  3.626251  0  0  0.184114  0  3.913849  0  0  0.200744  0  3.910808  0  0  0.031386  0.172685  0  3.915987  0
C  C41  1  0.25965485  0.97597646  0.02443434  1  0  0.265738  0  3.626283  0  0  0.18409  0  3.913874  0  0  0.200722  0  3.91083  0  0  0.03138  0.172662  0  3.916007  0
C  C42  1  0.58631753  0.30724128  0.91157797  1  0  0.271342  0  3.78162  0  0  0.266528  0  4.047543  0  0  0.273898  0  4.065501  0  0  0.086321  0.261016  0  4.035688  0
C  C43  1  0.41368373  0.69275823  0.08842314  1  0  0.271378  0  3.781591  0  0  0.26656  0  4.04753  0  0  0.27393  0  4.065487  0  0  0.086334  0.261046  0  4.035677  0
C  C44  1  0.72875372  0.34690647  0.89386610  1  0  -0.172552  0  3.678197  0  0  -0.210095  0  3.934645  0  0  -0.211298  0  3.953676  0  0  -0.085124  -0.209038  0  3.92205  0
C  C45  1  0.27124756  0.65309302  0.10613343  1  0  -0.172651  0  3.678238  0  0  -0.210188  0  3.934698  0  0  -0.211391  0  3.953727  0  0  -0.08514  -0.209138  0  3.922116  0
C  C46  1  0.73795543  0.47880772  0.81992083  1  0  -0.049277  0  3.76095  0  0  -0.02514  0  3.997537  0  0  -0.033421  0  4.020287  0  0  -0.010711  -0.01995  0  3.982909  0
C  C47  1  0.26204649  0.52119046  0.18007710  1  0  -0.049173  0  3.760874  0  0  -0.025066  0  3.997494  0  0  -0.033344  0  4.020243  0  0  -0.01069  -0.019878  0  3.982866  0
C  C48  1  0.88615221  0.52803183  0.79190097  1  0  0.6889  0  3.766656  0  0  0.643404  0  4.055426  0  0  0.677038  0  4.046108  0  0  0.253689  0.62001  0  4.060417  0
C  C49  1  0.11384722  0.47196895  0.20809887  1  0  0.688863  0  3.766504  0  0  0.643363  0  4.055305  0  0  0.676995  0  4.045988  0  0  0.253685  0.619973  0  4.060289  0
C  C50  1  0.60727014  0.56900298  0.76568514  1  0  -0.061331  0  3.6682  0  0  -0.103899  0  3.919761  0  0  -0.100885  0  3.937097  0  0  -0.070435  -0.105963  0  3.909172  0
C  C51  1  0.39273114  0.43099651  0.23431439  1  0  -0.061384  0  3.668215  0  0  -0.103923  0  3.919776  0  0  -0.100911  0  3.937113  0  0  -0.070445  -0.105987  0  3.909186  0
C  C52  1  0.46000278  0.53491793  0.78955964  1  0  -0.035131  0  3.746962  0  0  -0.009746  0  3.983641  0  0  -0.016842  0  4.004845  0  0  -0.009624  -0.00586  0  3.970649  0
C  C53  1  0.53999602  0.46508414  0.21044100  1  0  -0.035124  0  3.746943  0  0  -0.00972  0  3.983605  0  0  -0.016814  0  4.00481  0  0  -0.009617  -0.005835  0  3.970612  0
C  C54  1  0.32630787  0.62774076  0.72725571  1  0  0.673697  0  3.883856  0  0  0.621391  0  4.183873  0  0  0.655644  0  4.174511  0  0  0.217859  0.599057  0  4.183807  0
C  C55  1  0.67369155  0.37226003  0.27274570  1  0  0.673705  0  3.883802  0  0  0.621355  0  4.183887  0  0  0.655608  0  4.174527  0  0  0.217838  0.599021  0  4.183823  0
C  C56  1  0.44734495  0.40614276  0.86454718  1  0  -0.139166  0  3.658365  0  0  -0.177699  0  3.913043  0  0  -0.178328  0  3.930388  0  0  -0.078279  -0.177216  0  3.902176  0
C  C57  1  0.55265507  0.59385931  0.13545317  1  0  -0.139232  0  3.658356  0  0  -0.177744  0  3.913023  0  0  -0.178373  0  3.930369  0  0  -0.078295  -0.177261  0  3.902157  0
O  O58  1  0.86777057  0.73007598  0.49925228  1  0  -0.654081  0  1.999395  0  0  -0.600076  0  2.225628  0  0  -0.623842  0  2.215682  0  0  -0.32316  -0.578928  0  2.231987  0
O  O59  1  0.13223013  0.26992223  0.50074753  1  0  -0.654159  0  1.999413  0  0  -0.600143  0  2.225644  0  0  -0.623907  0  2.215696  0  0  -0.323219  -0.578996  0  2.231998  0
O  O60  1  0.91478383  0.95449139  0.43685027  1  0  -0.824527  0  2.205385  0  0  -0.773436  0  2.46481  0  0  -0.797573  0  2.453045  0  0  -0.423831  -0.744534  0  2.471333  0
O  O61  1  0.08521685  0.04550682  0.56315033  1  0  -0.824552  0  2.205406  0  0  -0.773456  0  2.464826  0  0  -0.797595  0  2.453066  0  0  -0.423852  -0.744554  0  2.47135  0
O  O62  1  0.30815820  0.78147679  0.40289013  1  0  -0.70441  0  2.011271  0  0  -0.660449  0  2.260666  0  0  -0.684832  0  2.251502  0  0  -0.379326  -0.636536  0  2.266883  0
O  O63  1  0.69184309  0.21852269  0.59710861  1  0  -0.704388  0  2.011257  0  0  -0.660432  0  2.260623  0  0  -0.684817  0  2.251464  0  0  -0.379314  -0.636521  0  2.266839  0
O  O64  1  0.19995120  0.01827259  0.30019648  1  0  -0.739386  0  1.985174  0  0  -0.69767  0  2.241513  0  0  -0.72114  0  2.229224  0  0  -0.408104  -0.673706  0  2.249522  0
O  O65  1  0.80004944  0.98172819  0.69980306  1  0  -0.73938  0  1.985191  0  0  -0.697687  0  2.241537  0  0  -0.72115  0  2.229231  0  0  -0.408114  -0.67372  0  2.249547  0
O  O66  1  0.80021960  0.03302900  0.06323741  1  0  -0.303853  0  2.312634  0  0  -0.239761  0  2.553469  0  0  -0.257143  0  2.553657  0  0  -0.183941  -0.227554  0  2.553085  0
O  O67  1  0.19978104  0.96697179  0.93676292  1  0  -0.303832  0  2.312683  0  0  -0.239729  0  2.5535  0  0  -0.257112  0  2.55369  0  0  -0.183917  -0.227517  0  2.553114  0
O  O68  1  0.57338248  0.17009526  0.97404347  1  0  -0.323136  0  2.299602  0  0  -0.258636  0  2.543423  0  0  -0.277154  0  2.545358  0  0  -0.1887  -0.245447  0  2.54176  0
O  O69  1  0.42661758  0.82990423  0.02595634  1  0  -0.323112  0  2.299511  0  0  -0.258629  0  2.543351  0  0  -0.277146  0  2.545282  0  0  -0.188705  -0.245442  0  2.54169  0
O  O70  1  0.96965251  0.49421984  0.86828262  1  0  -0.533683  0  2.020834  0  0  -0.484805  0  2.222084  0  0  -0.506156  0  2.207049  0  0  -0.321803  -0.470123  0  2.23273  0
O  O71  1  0.03034142  0.50578480  0.13171814  1  0  -0.533679  0  2.020739  0  0  -0.484809  0  2.221977  0  0  -0.506159  0  2.20694  0  0  -0.32182  -0.470128  0  2.23262  0
O  O72  1  0.92468800  0.59950950  0.70232766  1  0  -0.641552  0  2.068373  0  0  -0.602217  0  2.313808  0  0  -0.623186  0  2.30367  0  0  -0.332563  -0.58117  0  2.321577  0
O  O73  1  0.07531023  0.40049128  0.29767247  1  0  -0.641548  0  2.068337  0  0  -0.602209  0  2.313784  0  0  -0.623177  0  2.303646  0  0  -0.332563  -0.581165  0  2.321549  0
O  O74  1  0.15904030  0.65987074  0.77214913  1  0  -0.716327  0  2.006985  0  0  -0.665025  0  2.240075  0  0  -0.689058  0  2.227592  0  0  -0.350154  -0.642741  0  2.247017  0
O  O75  1  0.84095912  0.34013005  0.22785228  1  0  -0.716327  0  2.006952  0  0  -0.665009  0  2.240059  0  0  -0.689041  0  2.227574  0  0  -0.350145  -0.642728  0  2.247001  0
O  O76  1  0.38069248  0.67492219  0.62699190  1  0  -0.687638  0  2.001112  0  0  -0.634663  0  2.235069  0  0  -0.659331  0  2.225438  0  0  -0.341956  -0.612109  0  2.240798  0
O  O77  1  0.61930758  0.32507731  0.37300870  1  0  -0.687602  0  2.001067  0  0  -0.634638  0  2.235084  0  0  -0.659305  0  2.225451  0  0  -0.341942  -0.612088  0  2.240812  0
O  O78  1  0.26138376  0.48393667  0.50163391  1  0  -0.948997  0  1.869376  0  0  -0.909556  0  2.073452  0  0  -0.92795  0  2.039517  0  0  -0.675479  -0.888459  0  2.101068  0
O  O79  1  0.73861631  0.51606282  0.49836591  1  0  -0.949007  0  1.869356  0  0  -0.909562  0  2.073431  0  0  -0.927957  0  2.039492  0  0  -0.67549  -0.88847  0  2.101046  0
