# generated using pymatgen
data_AlH9C24(NO3)6
_symmetry_space_group_name_H-M   'P 1'
_cell_length_a   4.14740204
_cell_length_b   28.90805728
_cell_length_c   28.90803827
_cell_angle_alpha   120.00013072
_cell_angle_beta   89.99978286
_cell_angle_gamma   89.99999211
_symmetry_Int_Tables_number   1
_chemical_formula_structural   AlH9C24(NO3)6
_chemical_formula_sum   'Al2 H18 C48 N12 O36'
_cell_volume   3001.53715425
_cell_formula_units_Z   2
loop_
 _symmetry_equiv_pos_site_id
 _symmetry_equiv_pos_as_xyz
  1  'x, y, z'
loop_
 _atom_site_type_symbol
 _atom_site_label
 _atom_site_symmetry_multiplicity
 _atom_site_fract_x
 _atom_site_fract_y
 _atom_site_fract_z
 _atom_site_occupancy
 _atom_site_pbe_bader_charge
 _atom_site_pbe_bader_spin_density
 _atom_site_pbe_cm5_charge
 _atom_site_pbe_ddec_charge
 _atom_site_pbe_ddec_spin_density
 _atom_site_pbe_ddec_sum_bond_order
 _atom_site_pbe_magmom
Al  Al0  1  0.00016933  0.50000065  0.49999967  1  2.519674  0  0.455618  1.6524  0  2.520156  0
Al  Al1  1  0.00016996  0.16666779  0.83333228  1  2.519901  0  0.45565  1.65256  0  2.519847  0
H  H2  1  0.51175530  0.23005782  0.64403197  1  0.111455  0  0.120591  0.131354  0  0.990904  0
H  H3  1  0.48957068  0.37488555  0.79812714  1  0.153708  0  0.122982  0.13646  0  0.977085  0
H  H4  1  0.48960065  0.29176815  0.53518509  1  0.153409  0  0.123087  0.136434  0  0.977041  0
H  H5  1  0.51175704  0.43659322  0.68928359  1  0.112105  0  0.120569  0.131342  0  0.991124  0
H  H6  1  0.49918009  0.38456456  0.72183811  1  0.061897  0  0.108738  0.109767  0  0.989393  0
H  H7  1  0.49920568  0.28208635  0.61147413  1  0.061629  0  0.108626  0.109538  0  0.989539  0
H  H8  1  0.51174615  0.91397723  0.76994225  1  0.114019  0  0.120623  0.131334  0  0.990991  0
H  H9  1  0.48957752  0.92324345  0.62511412  1  0.101966  0  0.122967  0.136407  0  0.977116  0
H  H10  1  0.48958134  0.74341883  0.70823209  1  0.101607  0  0.123059  0.1364  0  0.97713  0
H  H11  1  0.51175131  0.75269257  0.56340748  1  0.113955  0  0.120559  0.131301  0  0.991103  0
H  H12  1  0.49918129  0.83727487  0.61543514  1  0.052395  0  0.108709  0.109756  0  0.989415  0
H  H13  1  0.49917996  0.82939086  0.71791452  1  0.052552  0  0.108638  0.109515  0  0.989498  0
H  H14  1  0.51175043  0.35596843  0.08602446  1  0.068121  0  0.120574  0.131348  0  0.990894  0
H  H15  1  0.48956805  0.20187277  0.07675571  1  0.109637  0  0.122945  0.136389  0  0.977019  0
H  H16  1  0.48959696  0.46481468  0.25658128  1  0.108848  0  0.123069  0.136387  0  0.977029  0
H  H17  1  0.51175318  0.31071641  0.24730751  1  0.067685  0  0.120561  0.131327  0  0.99115  0
H  H18  1  0.49917774  0.27816099  0.16272436  1  0.059503  0  0.108728  0.109787  0  0.989293  0
H  H19  1  0.49919688  0.38852539  0.17060955  1  0.058784  0  0.108623  0.109524  0  0.989576  0
C  C20  1  0.50003513  0.46290354  0.41826635  1  1.657339  0  0.287191  0.686348  0  4.05295  0
C  C21  1  0.50003359  0.45536479  0.53709690  1  1.655146  0  0.287125  0.68624  0  4.053029  0
C  C22  1  0.50003585  0.58173367  0.54463555  1  1.662886  0  0.287102  0.68616  0  4.053108  0
C  C23  1  0.50002069  0.21129417  0.79622459  1  1.65491  0  0.287029  0.686147  0  4.053251  0
C  C24  1  0.50002807  0.08493318  0.78870502  1  1.66243  0  0.287029  0.686271  0  4.053226  0
C  C25  1  0.50001915  0.20377587  0.91506720  1  1.656965  0  0.287011  0.68604  0  4.053595  0
C  C26  1  0.49976786  0.24459408  0.76894720  1  0.011833  0  0.01587  -0.101086  0  3.821573  0
C  C27  1  0.49554185  0.22175665  0.71282651  1  0.272551  0  0.089155  0.071887  0  3.898348  0
C  C28  1  0.50347967  0.25175097  0.68748137  1  -0.052883  0  -0.072069  -0.169271  0  3.920228  0
C  C29  1  0.49987218  0.30778070  0.71705149  1  0.035888  0  -0.003989  0.134574  0  4.055926  0
C  C30  1  0.49672249  0.33158262  0.77284489  1  0.077805  0  -0.072463  -0.17694  0  3.929593  0
C  C31  1  0.50453189  0.30087839  0.79755081  1  0.168077  0  0.090047  0.074913  0  3.899061  0
C  C32  1  0.49967477  0.34171774  0.69307429  1  -0.097572  0  -0.082736  -0.122087  0  3.973331  0
C  C33  1  0.49968510  0.32493395  0.64023993  1  0.018233  0  -0.082624  -0.121776  0  3.973137  0
C  C34  1  0.49674694  0.33507329  0.56046996  1  0.077544  0  -0.072473  -0.176795  0  3.929251  0
C  C35  1  0.49987588  0.35887452  0.61626266  1  0.024768  0  -0.004021  0.134666  0  4.055777  0
C  C36  1  0.50348496  0.41490239  0.64583532  1  -0.053288  0  -0.072134  -0.169406  0  3.920726  0
C  C37  1  0.49555260  0.44489538  0.62049085  1  0.273254  0  0.089277  0.072053  0  3.898329  0
C  C38  1  0.49978973  0.42206211  0.56437152  1  0.011872  0  0.015777  -0.101337  0  3.821828  0
C  C39  1  0.50455455  0.36578093  0.53576824  1  0.167565  0  0.089907  0.074839  0  3.898839  0
C  C40  1  0.49978018  0.02435584  0.75540454  1  -0.030513  0  0.015811  -0.101244  0  3.821718  0
C  C41  1  0.49555274  0.99107242  0.77824210  1  0.191812  0  0.089168  0.071903  0  3.898264  0
C  C42  1  0.50347378  0.93573214  0.74824820  1  0.065375  0  -0.0721  -0.169194  0  3.920144  0
C  C43  1  0.49986262  0.90927381  0.69221860  1  -0.037943  0  -0.003904  0.134621  0  4.055754  0
C  C44  1  0.49672360  0.94126417  0.66841694  1  0.04648  0  -0.07247  -0.176861  0  3.929586  0
C  C45  1  0.50454012  0.99667316  0.69912184  1  0.286685  0  0.090058  0.074992  0  3.899056  0
C  C46  1  0.49966054  0.85135911  0.65828259  1  -0.050507  0  -0.082783  -0.122218  0  3.973327  0
C  C47  1  0.49966516  0.81530762  0.67506608  1  0.052758  0  -0.082621  -0.121739  0  3.972983  0
C  C48  1  0.49673337  0.72539806  0.66492723  1  0.047584  0  -0.072427  -0.176785  0  3.929543  0
C  C49  1  0.49986334  0.75739006  0.64112601  1  -0.039362  0  -0.004085  0.134696  0  4.055717  0
C  C50  1  0.50348080  0.73093544  0.58509891  1  0.065974  0  -0.072173  -0.16944  0  3.920623  0
C  C51  1  0.49555818  0.67559735  0.55510560  1  0.191539  0  0.089297  0.072116  0  3.898182  0
C  C52  1  0.49979187  0.64231175  0.57793876  1  -0.0306  0  0.01586  -0.101166  0  3.821731  0
C  C53  1  0.50454833  0.66999018  0.63421983  1  0.286977  0  0.089957  0.074846  0  3.898938  0
C  C54  1  0.49976518  0.23105153  0.97564409  1  0.095182  0  0.015874  -0.101011  0  3.821684  0
C  C55  1  0.49554372  0.28717310  0.00892796  1  0.281613  0  0.089267  0.072018  0  3.898068  0
C  C56  1  0.50347808  0.31251894  0.06426847  1  0.00038  0  -0.072102  -0.169336  0  3.920204  0
C  C57  1  0.49986826  0.28294730  0.09072613  1  0.03033  0  -0.003968  0.134558  0  4.05594  0
C  C58  1  0.49671492  0.22715482  0.05873459  1  0.103994  0  -0.072394  -0.176779  0  3.929473  0
C  C59  1  0.50452053  0.20245154  0.00332643  1  0.054753  0  0.089947  0.074855  0  3.899094  0
C  C60  1  0.49966979  0.30692506  0.14864063  1  -0.100516  0  -0.082713  -0.122132  0  3.973202  0
C  C61  1  0.49967894  0.35975988  0.18469264  1  -0.011512  0  -0.082686  -0.121872  0  3.973142  0
C  C62  1  0.49674579  0.43953045  0.27460181  1  0.105534  0  -0.072493  -0.176832  0  3.929373  0
C  C63  1  0.49987348  0.38373742  0.24261013  1  0.029409  0  -0.004024  0.134825  0  4.055533  0
C  C64  1  0.50348505  0.35416471  0.26906470  1  0.00209  0  -0.072136  -0.169488  0  3.920528  0
C  C65  1  0.49556370  0.37950982  0.32440250  1  0.282197  0  0.08923  0.072143  0  3.89823  0
C  C66  1  0.49979481  0.43562868  0.35768866  1  0.095646  0  0.015918  -0.101175  0  3.821765  0
C  C67  1  0.50455718  0.46423148  0.33001013  1  0.053449  0  0.089923  0.074828  0  3.899016  0
N  N68  1  0.51460247  0.33340172  0.85702350  1  0.405863  0  0.06161  0.507141  0  4.202612  0
N  N69  1  0.48541072  0.16297895  0.67487872  1  0.425057  0  0.061998  0.506742  0  4.202844  0
N  N70  1  0.48541080  0.50367615  0.65844250  1  0.428269  0  0.062102  0.50674  0  4.202533  0
N  N71  1  0.51460741  0.33325795  0.47629310  1  0.404704  0  0.06195  0.507244  0  4.202612  0
N  N72  1  0.51460748  0.02362372  0.66659733  1  0.404859  0  0.061439  0.506897  0  4.203007  0
N  N73  1  0.48541592  0.01190134  0.83701991  1  0.42638  0  0.061969  0.506645  0  4.202842  0
N  N74  1  0.48542007  0.65476823  0.49632418  1  0.425194  0  0.062056  0.506551  0  4.20238  0
N  N75  1  0.51460481  0.64303717  0.66674366  1  0.406263  0  0.061958  0.507341  0  4.202715  0
N  N76  1  0.51458654  0.14297594  0.97637572  1  0.455388  0  0.061547  0.506891  0  4.202666  0
N  N77  1  0.48541383  0.32512200  0.98809845  1  0.40122  0  0.061982  0.506722  0  4.202886  0
N  N78  1  0.48541975  0.34155788  0.34523119  1  0.400938  0  0.06208  0.506486  0  4.20261  0
N  N79  1  0.51460888  0.52370682  0.35696277  1  0.454143  0  0.061955  0.507247  0  4.202712  0
O  O80  1  0.73973525  0.55777561  0.54994952  1  -1.239543  0  -0.223613  -0.586747  0  2.427833  0
O  O81  1  0.73972944  0.49217597  0.44222542  1  -1.24206  0  -0.22363  -0.586792  0  2.427861  0
O  O82  1  0.73972861  0.45005131  0.50782463  1  -1.236258  0  -0.223653  -0.586791  0  2.427859  0
O  O83  1  0.26071777  0.56002034  0.51428798  1  -1.238694  0  -0.223408  -0.58623  0  2.426333  0
O  O84  1  0.26071257  0.48571218  0.54573124  1  -1.233193  0  -0.22341  -0.586208  0  2.426221  0
O  O85  1  0.26071395  0.45426893  0.43997916  1  -1.236573  0  -0.223439  -0.586298  0  2.426191  0
O  O86  1  0.73972375  0.17450397  0.89111217  1  -1.241624  0  -0.223507  -0.586757  0  2.428111  0
O  O87  1  0.73972458  0.21661093  0.82549606  1  -1.235823  0  -0.223468  -0.586685  0  2.427967  0
O  O88  1  0.73972999  0.10888902  0.78338954  1  -1.23905  0  -0.223519  -0.586765  0  2.428076  0
O  O89  1  0.26070817  0.21240717  0.89335037  1  -1.236622  0  -0.223495  -0.586256  0  2.426328  0
O  O90  1  0.26071159  0.10664934  0.81905351  1  -1.238874  0  -0.223458  -0.586359  0  2.42617  0
O  O91  1  0.26071197  0.18094528  0.78759202  1  -1.233468  0  -0.223502  -0.58637  0  2.426283  0
O  O92  1  0.72218755  0.32261671  0.88054746  1  -0.394475  0  -0.094927  -0.269867  0  2.007491  0
O  O93  1  0.32002496  0.37081937  0.87750898  1  -0.434552  0  -0.11995  -0.313079  0  1.909062  0
O  O94  1  0.27844976  0.13673353  0.68204720  1  -0.391063  0  -0.093995  -0.268286  0  2.008115  0
O  O95  1  0.67872742  0.14606968  0.63727768  1  -0.430745  0  -0.12281  -0.316244  0  1.908683  0
O  O96  1  0.27844517  0.52991997  0.65127170  1  -0.390825  0  -0.094064  -0.268296  0  2.008105  0
O  O97  1  0.67870963  0.52058483  0.69604529  1  -0.433952  0  -0.122817  -0.316243  0  1.908392  0
O  O98  1  0.72216897  0.34404611  0.45276783  1  -0.3935  0  -0.095054  -0.26985  0  2.007791  0
O  O99  1  0.32002805  0.29584122  0.45580901  1  -0.434638  0  -0.120052  -0.313117  0  1.908822  0
O  O100  1  0.72218547  0.05793438  0.67738341  1  -0.391904  0  -0.094844  -0.269754  0  2.007765  0
O  O101  1  0.32003556  0.00669009  0.62917930  1  -0.431873  0  -0.119889  -0.313017  0  1.90908  0
O  O102  1  0.27845227  0.04531535  0.86326564  1  -0.414906  0  -0.094002  -0.268284  0  2.008092  0
O  O103  1  0.67872667  0.99120838  0.85392872  1  -0.40843  0  -0.122716  -0.316104  0  1.908647  0
O  O104  1  0.27846195  0.62135325  0.47008035  1  -0.413588  0  -0.094038  -0.268302  0  2.00804  0
O  O105  1  0.67872202  0.67546297  0.47941651  1  -0.408113  0  -0.122829  -0.316131  0  1.908301  0
O  O106  1  0.72216864  0.60872455  0.65595515  1  -0.393198  0  -0.095042  -0.269885  0  2.007834  0
O  O107  1  0.32002709  0.65997023  0.70416040  1  -0.432271  0  -0.120067  -0.313174  0  1.909057  0
O  O108  1  0.72216513  0.11945146  0.94206555  1  -0.393488  0  -0.094835  -0.269718  0  2.007598  0
O  O109  1  0.32000909  0.12249198  0.99330924  1  -0.432512  0  -0.119947  -0.312993  0  1.908979  0
O  O110  1  0.27845820  0.31795229  0.95468364  1  -0.389945  0  -0.094031  -0.268356  0  2.008228  0
O  O111  1  0.67872584  0.36272334  0.00879131  1  -0.407132  0  -0.122771  -0.316188  0  1.908705  0
O  O112  1  0.27845602  0.34872937  0.37864585  1  -0.390364  0  -0.094066  -0.268293  0  2.008098  0
O  O113  1  0.67871453  0.30395415  0.32453606  1  -0.406574  0  -0.12282  -0.316111  0  1.908415  0
O  O114  1  0.72217210  0.54723220  0.39127457  1  -0.392864  0  -0.095036  -0.269837  0  2.007848  0
O  O115  1  0.32002463  0.54419115  0.34003049  1  -0.432562  0  -0.120099  -0.313161  0  1.90888  0
