# generated using pymatgen
data_GdH13C22O9
_symmetry_space_group_name_H-M   'P 1'
_cell_length_a   6.09923520
_cell_length_b   13.35790932
_cell_length_c   14.37366827
_cell_angle_alpha   60.66600431
_cell_angle_beta   79.16477054
_cell_angle_gamma   77.97674324
_symmetry_Int_Tables_number   1
_chemical_formula_structural   GdH13C22O9
_chemical_formula_sum   'Gd2 H26 C44 O18'
_cell_volume   993.43092339
_cell_formula_units_Z   2
loop_
 _symmetry_equiv_pos_site_id
 _symmetry_equiv_pos_as_xyz
  1  'x, y, z'
loop_
 _atom_site_type_symbol
 _atom_site_label
 _atom_site_symmetry_multiplicity
 _atom_site_fract_x
 _atom_site_fract_y
 _atom_site_fract_z
 _atom_site_occupancy
 _atom_site_hle17_bader_spin_density
 _atom_site_hle17_ddec_charge
 _atom_site_hle17_ddec_spin_density
 _atom_site_hle17_ddec_sum_bond_order
 _atom_site_hle17_magmom
 _atom_site_hse06_10hf_bader_spin_density
 _atom_site_hse06_10hf_ddec_charge
 _atom_site_hse06_10hf_ddec_spin_density
 _atom_site_hse06_10hf_ddec_sum_bond_order
 _atom_site_hse06_10hf_magmom
 _atom_site_hse06_bader_spin_density
 _atom_site_hse06_ddec_charge
 _atom_site_hse06_ddec_spin_density
 _atom_site_hse06_ddec_sum_bond_order
 _atom_site_hse06_magmom
 _atom_site_pbe_bader_spin_density
 _atom_site_pbe_cm5_charge
 _atom_site_pbe_ddec_charge
 _atom_site_pbe_ddec_spin_density
 _atom_site_pbe_ddec_sum_bond_order
 _atom_site_pbe_magmom
Gd  Gd0  1  0.58910287  0.45499117  0.82378736  1  0  2.194387  0  1.812718  0  0  2.107815  0  2.176409  0  0  2.162544  0  2.11748  0  0  1.490599  2.064775  0  2.224573  0
Gd  Gd1  1  0.41089087  0.54500475  0.17622348  1  0  2.194406  0  1.812709  0  0  2.107755  0  2.176551  0  0  2.162545  0  2.117524  0  0  1.490636  2.064747  0  2.224665  0
H  H2  1  0.87855780  0.56290735  0.60166969  1  0  0.442743  0  0.803643  0  0  0.429695  0  0.848269  0  0  0.437326  0  0.837311  0  0  0.337715  0.424192  0  0.856223  0
H  H3  1  0.12141858  0.43709827  0.39833999  1  0  0.442713  0  0.803754  0  0  0.429639  0  0.848356  0  0  0.437264  0  0.837408  0  0  0.337697  0.42414  0  0.856301  0
H  H4  1  0.04403580  0.46812508  0.68662943  1  0  0.453422  0  0.823317  0  0  0.421511  0  0.892311  0  0  0.432656  0  0.875704  0  0  0.311466  0.413454  0  0.904319  0
H  H5  1  0.95594894  0.53187517  0.31337379  1  0  0.453419  0  0.823318  0  0  0.421507  0  0.892301  0  0  0.432655  0  0.875691  0  0  0.311431  0.413451  0  0.90431  0
H  H6  1  0.88622286  0.41645659  0.20576562  1  0  0.404688  0  0.87089  0  0  0.370289  0  0.954791  0  0  0.384113  0  0.94  0  0  0.314767  0.360584  0  0.965039  0
H  H7  1  0.11376719  0.58353742  0.79423035  1  0  0.404731  0  0.870747  0  0  0.370297  0  0.95472  0  0  0.384122  0  0.939928  0  0  0.314802  0.360596  0  0.96495  0
H  H8  1  0.63797246  0.84108246  0.73373151  1  0  0.099966  0  0.939988  0  0  0.112545  0  0.997996  0  0  0.115813  0  0.9965  0  0  0.10599  0.110156  0  0.99925  0
H  H9  1  0.36201905  0.15890995  0.26627554  1  0  0.099976  0  0.939984  0  0  0.112527  0  0.998015  0  0  0.115801  0  0.996511  0  0  0.105967  0.110128  0  0.999282  0
H  H10  1  0.09097467  0.80593752  0.00059379  1  0  0.116099  0  0.952183  0  0  0.12478  0  1.015209  0  0  0.128561  0  1.012439  0  0  0.117842  0.122077  0  1.01726  0
H  H11  1  0.90903381  0.19406161  0.99940619  1  0  0.116174  0  0.952136  0  0  0.124839  0  1.015193  0  0  0.128621  0  1.012423  0  0  0.117873  0.122134  0  1.01725  0
H  H12  1  0.19253760  0.01698190  0.60273020  1  0  0.096356  0  0.945569  0  0  0.108137  0  1.004511  0  0  0.110845  0  1.004326  0  0  0.102334  0.106173  0  1.004794  0
H  H13  1  0.80745324  0.98300783  0.39727117  1  0  0.096356  0  0.945442  0  0  0.108146  0  1.004387  0  0  0.11082  0  1.004238  0  0  0.102305  0.106182  0  1.00467  0
H  H14  1  0.14284820  0.18350454  0.42026802  1  0  0.103846  0  0.945967  0  0  0.113136  0  1.009746  0  0  0.116413  0  1.007313  0  0  0.108813  0.110732  0  1.011568  0
H  H15  1  0.85715638  0.81649110  0.57972827  1  0  0.103826  0  0.945984  0  0  0.113124  0  1.009753  0  0  0.116402  0  1.007321  0  0  0.108814  0.11072  0  1.011572  0
H  H16  1  0.42617742  0.22173114  0.50371560  1  0  0.097612  0  0.951364  0  0  0.106998  0  1.013279  0  0  0.110358  0  1.010884  0  0  0.104926  0.104576  0  1.015029  0
H  H17  1  0.57382988  0.77826789  0.49627615  1  0  0.097709  0  0.951177  0  0  0.107067  0  1.013132  0  0  0.110427  0  1.010739  0  0  0.104979  0.10464  0  1.014883  0
H  H18  1  0.47411572  0.05344060  0.68435231  1  0  0.090754  0  0.999799  0  0  0.096887  0  1.070576  0  0  0.09867  0  1.072349  0  0  0.097555  0.095588  0  1.069492  0
H  H19  1  0.52587186  0.94655690  0.31564223  1  0  0.090708  0  0.999865  0  0  0.09688  0  1.070596  0  0  0.098668  0  1.072358  0  0  0.097534  0.095579  0  1.06952  0
H  H20  1  0.86111466  0.15253878  0.72591958  1  0  0.092991  0  0.972573  0  0  0.105796  0  1.027891  0  0  0.107742  0  1.028725  0  0  0.100773  0.104373  0  1.027472  0
H  H21  1  0.13890721  0.84746799  0.27407384  1  0  0.093043  0  0.9725  0  0  0.10585  0  1.027802  0  0  0.107797  0  1.028636  0  0  0.100784  0.104428  0  1.027386  0
H  H22  1  0.05214172  0.30883308  0.69897734  1  0  0.096039  0  0.979857  0  0  0.107231  0  1.041336  0  0  0.110852  0  1.037995  0  0  0.105009  0.104604  0  1.043776  0
H  H23  1  0.94789129  0.69116842  0.30101913  1  0  0.096125  0  0.979774  0  0  0.107215  0  1.041352  0  0  0.110834  0  1.038015  0  0  0.105014  0.104595  0  1.043777  0
H  H24  1  0.54143441  0.06122836  0.90943783  1  0  0.102933  0  0.95351  0  0  0.113449  0  1.015416  0  0  0.116298  0  1.0142  0  0  0.105685  0.111337  0  1.016417  0
H  H25  1  0.45855136  0.93877283  0.09057253  1  0  0.102946  0  0.953345  0  0  0.113452  0  1.015291  0  0  0.116312  0  1.014057  0  0  0.105692  0.111355  0  1.016248  0
H  H26  1  0.36034941  0.90109854  0.93109341  1  0  0.107679  0  0.956871  0  0  0.116603  0  1.019602  0  0  0.119722  0  1.018503  0  0  0.106056  0.114354  0  1.02051  0
H  H27  1  0.63965090  0.09890510  0.06891341  1  0  0.107627  0  0.956918  0  0  0.116563  0  1.019631  0  0  0.119683  0  1.01853  0  0  0.106076  0.114314  0  1.020535  0
C  C28  1  0.58743061  0.64951037  0.91303013  1  0  0.749919  0  3.837601  0  0  0.703903  0  4.130447  0  0  0.740157  0  4.116899  0  0  0.245145  0.678956  0  4.13901  0
C  C29  1  0.41256489  0.35049327  0.08697355  1  0  0.749722  0  3.837674  0  0  0.703694  0  4.13054  0  0  0.739948  0  4.116993  0  0  0.245091  0.678746  0  4.1391  0
C  C30  1  0.91504108  0.61681953  0.07039638  1  0  0.723659  0  3.819258  0  0  0.670793  0  4.116142  0  0  0.706977  0  4.104737  0  0  0.245029  0.646143  0  4.123059  0
C  C31  1  0.08497110  0.38317785  0.92960484  1  0  0.72363  0  3.819148  0  0  0.670689  0  4.116162  0  0  0.706867  0  4.104764  0  0  0.245033  0.646041  0  4.123072  0
C  C32  1  0.87701742  0.72364089  0.96611537  1  0  -0.081407  0  3.70709  0  0  -0.070897  0  3.947489  0  0  -0.078193  0  3.967609  0  0  -0.004495  -0.066292  0  3.934201  0
C  C33  1  0.12299990  0.27635723  0.03387958  1  0  -0.081247  0  3.707261  0  0  -0.070732  0  3.947691  0  0  -0.078024  0  3.967816  0  0  -0.004521  -0.066123  0  3.934396  0
C  C34  1  0.74021099  0.73492435  0.89195675  1  0  -0.032361  0  3.685552  0  0  -0.02265  0  3.920897  0  0  -0.023824  0  3.93819  0  0  0.006742  -0.02188  0  3.90943  0
C  C35  1  0.25978260  0.26508100  0.10804349  1  0  -0.03229  0  3.685495  0  0  -0.022574  0  3.920848  0  0  -0.023751  0  3.93815  0  0  0.006775  -0.021803  0  3.909375  0
C  C36  1  0.73693746  0.83455777  0.79272474  1  0  -0.113031  0  3.716497  0  0  -0.145653  0  3.97253  0  0  -0.148852  0  3.991939  0  0  -0.080843  -0.143536  0  3.959478  0
C  C37  1  0.26304477  0.16544596  0.20727774  1  0  -0.113117  0  3.716363  0  0  -0.145714  0  3.972363  0  0  -0.148917  0  3.991772  0  0  -0.080806  -0.143591  0  3.959317  0
C  C38  1  0.85696873  0.92550496  0.76537954  1  0  0.027165  0  3.71289  0  0  0.036674  0  3.950214  0  0  0.037458  0  3.972695  0  0  0.004038  0.036315  0  3.93481  0
C  C39  1  0.14303417  0.07448988  0.23462072  1  0  0.027281  0  3.712859  0  0  0.036788  0  3.950098  0  0  0.037573  0  3.97258  0  0  0.00408  0.036428  0  3.934696  0
C  C40  1  0.98457207  0.91798101  0.84240605  1  0  0.009377  0  3.715862  0  0  0.018997  0  3.952293  0  0  0.017052  0  3.975023  0  0  -0.001347  0.020149  0  3.936862  0
C  C41  1  0.01544080  0.08202233  0.15758541  1  0  0.009185  0  3.716413  0  0  0.018968  0  3.952634  0  0  0.017025  0  3.975361  0  0  -0.001366  0.020118  0  3.937208  0
C  C42  1  0.99344276  0.81539229  0.94004511  1  0  -0.063098  0  3.657754  0  0  -0.097694  0  3.909932  0  0  -0.096299  0  3.92821  0  0  -0.065111  -0.098489  0  3.897669  0
C  C43  1  0.00657209  0.18460849  0.05995226  1  0  -0.063158  0  3.658253  0  0  -0.097807  0  3.910416  0  0  -0.096416  0  3.928699  0  0  -0.065072  -0.098599  0  3.898147  0
C  C44  1  0.83676382  0.02473981  0.65621043  1  0  0.075736  0  3.760796  0  0  0.088616  0  3.99424  0  0  0.090825  0  4.015907  0  0  0.006054  0.08725  0  3.979371  0
C  C45  1  0.16322706  0.97525684  0.34378845  1  0  0.075745  0  3.76098  0  0  0.088554  0  3.994504  0  0  0.09076  0  4.016177  0  0  0.006047  0.087188  0  3.97964  0
C  C46  1  0.02466447  0.06224865  0.58097899  1  0  -0.109211  0  3.730774  0  0  -0.129775  0  3.984778  0  0  -0.13465  0  4.006708  0  0  -0.084971  -0.12654  0  3.969867  0
C  C47  1  0.97533541  0.93775225  0.41901798  1  0  -0.109187  0  3.730808  0  0  -0.12974  0  3.984844  0  0  -0.134583  0  4.006783  0  0  -0.084963  -0.126507  0  3.969936  0
C  C48  1  0.99759565  0.15526894  0.47914407  1  0  -0.062766  0  3.731876  0  0  -0.090767  0  3.98807  0  0  -0.089153  0  4.008322  0  0  -0.082352  -0.091572  0  3.974242  0
C  C49  1  0.00239938  0.84473197  0.52085046  1  0  -0.062772  0  3.731799  0  0  -0.090799  0  3.987972  0  0  -0.089185  0  4.008211  0  0  -0.082342  -0.091608  0  3.974156  0
C  C50  1  0.78117577  0.21376997  0.45128716  1  0  -0.091993  0  3.787047  0  0  -0.068699  0  4.018446  0  0  -0.078731  0  4.042368  0  0  -0.022573  -0.062209  0  4.00238  0
C  C51  1  0.21882530  0.78623879  0.54871237  1  0  -0.091977  0  3.787165  0  0  -0.068599  0  4.018438  0  0  -0.078627  0  4.042357  0  0  -0.02257  -0.062111  0  4.002372  0
C  C52  1  0.59319578  0.17555726  0.52560165  1  0  -0.048117  0  3.737112  0  0  -0.071851  0  3.981143  0  0  -0.07018  0  4.000572  0  0  -0.079502  -0.072745  0  3.967956  0
C  C53  1  0.40679713  0.82445070  0.47439882  1  0  -0.048259  0  3.737001  0  0  -0.071996  0  3.981049  0  0  -0.070327  0  4.00048  0  0  -0.07958  -0.072882  0  3.967857  0
C  C54  1  0.62039862  0.08122636  0.62618154  1  0  -0.125472  0  3.739867  0  0  -0.144652  0  3.989791  0  0  -0.149288  0  4.011406  0  0  -0.089897  -0.141615  0  3.975166  0
C  C55  1  0.37959920  0.91877711  0.37381092  1  0  -0.12541  0  3.739816  0  0  -0.144602  0  3.989728  0  0  -0.14924  0  4.011346  0  0  -0.089873  -0.141564  0  3.975099  0
C  C56  1  0.74355941  0.31620920  0.34601173  1  0  0.683176  0  3.7956  0  0  0.635598  0  4.086428  0  0  0.671247  0  4.07551  0  0  0.247142  0.611343  0  4.093249  0
C  C57  1  0.25642824  0.68379358  0.65398733  1  0  0.682919  0  3.795878  0  0  0.635341  0  4.086688  0  0  0.670989  0  4.075767  0  0  0.247042  0.611085  0  4.093511  0
C  C58  1  0.09855756  0.01354331  0.82735779  1  0  0.059088  0  3.763886  0  0  0.072656  0  3.99758  0  0  0.074378  0  4.020416  0  0  -0.002813  0.071646  0  3.982036  0
C  C59  1  0.90145491  0.98646094  0.17263676  1  0  0.059216  0  3.764035  0  0  0.072696  0  3.997742  0  0  0.074419  0  4.020577  0  0  -0.002843  0.071685  0  3.982202  0
C  C60  1  0.01528614  0.13042935  0.76335191  1  0  -0.109515  0  3.737789  0  0  -0.126173  0  3.983841  0  0  -0.129912  0  4.004905  0  0  -0.08945  -0.123716  0  3.969548  0
C  C61  1  0.98472389  0.86957062  0.23664618  1  0  -0.109596  0  3.738058  0  0  -0.12624  0  3.984086  0  0  -0.12998  0  4.00515  0  0  -0.089441  -0.123787  0  3.969802  0
C  C62  1  0.12221291  0.21980445  0.74914651  1  0  -0.054571  0  3.728096  0  0  -0.080253  0  3.975176  0  0  -0.079082  0  3.994319  0  0  -0.081267  -0.080768  0  3.962157  0
C  C63  1  0.87780839  0.78019633  0.25085459  1  0  -0.054778  0  3.72826  0  0  -0.080373  0  3.975342  0  0  -0.079201  0  3.994485  0  0  -0.081343  -0.080886  0  3.962321  0
C  C64  1  0.31245294  0.19605619  0.80176495  1  0  -0.064229  0  3.752928  0  0  -0.041086  0  3.984916  0  0  -0.049552  0  4.008417  0  0  -0.020132  -0.035736  0  3.969211  0
C  C65  1  0.68756414  0.80394035  0.19824188  1  0  -0.064044  0  3.752564  0  0  -0.040878  0  3.984494  0  0  -0.049345  0  4.008005  0  0  -0.020102  -0.035533  0  3.968796  0
C  C66  1  0.39387553  0.08002525  0.86821274  1  0  -0.062628  0  3.724272  0  0  -0.087888  0  3.974845  0  0  -0.087115  0  3.994964  0  0  -0.082165  -0.088141  0  3.961268  0
C  C67  1  0.60612809  0.91997837  0.13179455  1  0  -0.062808  0  3.724161  0  0  -0.088085  0  3.974768  0  0  -0.087323  0  3.994884  0  0  -0.082194  -0.088328  0  3.961192  0
C  C68  1  0.29029280  0.99029122  0.88023301  1  0  -0.12017  0  3.711083  0  0  -0.137078  0  3.959771  0  0  -0.14117  0  3.980055  0  0  -0.087999  -0.134393  0  3.946065  0
C  C69  1  0.70970636  0.00971067  0.11977261  1  0  -0.120134  0  3.711314  0  0  -0.13704  0  3.960018  0  0  -0.141132  0  3.980307  0  0  -0.088027  -0.134351  0  3.946303  0
C  C70  1  0.41960219  0.29117587  0.79341233  1  0  0.636518  0  3.930318  0  0  0.593585  0  4.225296  0  0  0.627196  0  4.21857  0  0  0.191606  0.570935  0  4.228588  0
C  C71  1  0.58040179  0.70882073  0.20659052  1  0  0.636442  0  3.930096  0  0  0.593505  0  4.22508  0  0  0.627115  0  4.218366  0  0  0.191606  0.570856  0  4.228376  0
O  O72  1  0.61131879  0.61129767  0.84595659  1  0  -0.715097  0  2.030798  0  0  -0.675948  0  2.283305  0  0  -0.702407  0  2.269857  0  0  -0.406945  -0.656542  0  2.292156  0
O  O73  1  0.38869252  0.38870401  0.15404062  1  0  -0.714954  0  2.030927  0  0  -0.675798  0  2.283466  0  0  -0.702267  0  2.27002  0  0  -0.406897  -0.6564  0  2.292316  0
O  O74  1  0.88624826  0.49061259  0.66824945  1  0  -0.869281  0  1.839197  0  0  -0.833841  0  2.014778  0  0  -0.850381  0  1.982282  0  0  -0.600012  -0.821615  0  2.03799  0
O  O75  1  0.11374211  0.50937971  0.33174869  1  0  -0.869225  0  1.839338  0  0  -0.833715  0  2.014934  0  0  -0.85026  0  1.982431  0  0  -0.599948  -0.821518  0  2.038178  0
O  O76  1  0.43460977  0.62833441  0.99030649  1  0  -0.713986  0  2.081831  0  0  -0.676637  0  2.337439  0  0  -0.704476  0  2.327886  0  0  -0.389325  -0.65633  0  2.343426  0
O  O77  1  0.56539198  0.37166561  0.00969077  1  0  -0.713935  0  2.081682  0  0  -0.676581  0  2.337254  0  0  -0.704416  0  2.327717  0  0  -0.389373  -0.656267  0  2.343237  0
O  O78  1  0.80319747  0.53136164  0.10318363  1  0  -0.71786  0  2.058936  0  0  -0.665266  0  2.297154  0  0  -0.691384  0  2.285261  0  0  -0.364294  -0.646651  0  2.304838  0
O  O79  1  0.19679289  0.46864289  0.89681861  1  0  -0.717855  0  2.058959  0  0  -0.665218  0  2.297206  0  0  -0.691325  0  2.285317  0  0  -0.364282  -0.646607  0  2.304892  0
O  O80  1  0.05750976  0.61402363  0.12507065  1  0  -0.706436  0  2.141847  0  0  -0.657754  0  2.404623  0  0  -0.684455  0  2.393767  0  0  -0.405502  -0.638673  0  2.411742  0
O  O81  1  0.94249036  0.38597476  0.87493373  1  0  -0.706436  0  2.141627  0  0  -0.657716  0  2.404392  0  0  -0.684406  0  2.393543  0  0  -0.405489  -0.638636  0  2.411507  0
O  O82  1  0.55233968  0.37366638  0.32762305  1  0  -0.660722  0  2.065733  0  0  -0.620606  0  2.308589  0  0  -0.643997  0  2.296287  0  0  -0.357875  -0.60402  0  2.316765  0
O  O83  1  0.44764471  0.62633640  0.67237484  1  0  -0.660515  0  2.065676  0  0  -0.620396  0  2.308495  0  0  -0.643776  0  2.296201  0  0  -0.357735  -0.603808  0  2.316667  0
O  O84  1  0.92310414  0.34163098  0.27601149  1  0  -0.529171  0  2.138078  0  0  -0.480212  0  2.366513  0  0  -0.503167  0  2.352588  0  0  -0.298958  -0.464335  0  2.375548  0
O  O85  1  0.07687492  0.65836134  0.72398048  1  0  -0.529087  0  2.13809  0  0  -0.480169  0  2.366637  0  0  -0.503132  0  2.352726  0  0  -0.299019  -0.464293  0  2.37567  0
O  O86  1  0.35928551  0.39777171  0.72770701  1  0  -0.708998  0  1.947615  0  0  -0.662646  0  2.167659  0  0  -0.688072  0  2.158229  0  0  -0.362314  -0.644449  0  2.173573  0
O  O87  1  0.64072061  0.60222230  0.27229897  1  0  -0.709029  0  1.947519  0  0  -0.662667  0  2.167574  0  0  -0.688098  0  2.158142  0  0  -0.36232  -0.644468  0  2.173486  0
O  O88  1  0.56869105  0.26452390  0.85717349  1  0  -0.704112  0  1.96522  0  0  -0.667719  0  2.212002  0  0  -0.69294  0  2.203504  0  0  -0.395163  -0.649532  0  2.217112  0
O  O89  1  0.43131516  0.73547009  0.14283110  1  0  -0.704009  0  1.965172  0  0  -0.667605  0  2.211971  0  0  -0.692836  0  2.203476  0  0  -0.395153  -0.649419  0  2.21707  0
