# generated using pymatgen
data_SnH22C18N2O3
_symmetry_space_group_name_H-M   'P 1'
_cell_length_a   8.59681430
_cell_length_b   14.34294660
_cell_length_c   18.07865404
_cell_angle_alpha   90.00030502
_cell_angle_beta   89.99967667
_cell_angle_gamma   104.77978871
_symmetry_Int_Tables_number   1
_chemical_formula_structural   SnH22C18N2O3
_chemical_formula_sum   'Sn4 H88 C72 N8 O12'
_cell_volume   2155.40862840
_cell_formula_units_Z   4
loop_
 _symmetry_equiv_pos_site_id
 _symmetry_equiv_pos_as_xyz
  1  'x, y, z'
loop_
 _atom_site_type_symbol
 _atom_site_label
 _atom_site_symmetry_multiplicity
 _atom_site_fract_x
 _atom_site_fract_y
 _atom_site_fract_z
 _atom_site_occupancy
 _atom_site_pbe_bader_charge
 _atom_site_pbe_bader_spin_density
 _atom_site_pbe_cm5_charge
 _atom_site_pbe_ddec_charge
 _atom_site_pbe_ddec_spin_density
 _atom_site_pbe_ddec_sum_bond_order
 _atom_site_pbe_magmom
Sn  Sn0  1  0.27849755  0.23967107  0.96289151  1  1.691601  0  0.522858  1.213551  0  3.398558  0
Sn  Sn1  1  0.22147450  0.76032828  0.46288866  1  1.691494  0  0.522845  1.213448  0  3.398526  0
Sn  Sn2  1  0.72150194  0.76033112  0.03710075  1  1.691869  0  0.522868  1.213758  0  3.398562  0
Sn  Sn3  1  0.77851508  0.23966664  0.53711135  1  1.691489  0  0.522858  1.213617  0  3.398435  0
H  H4  1  0.96252061  0.11804203  0.18022918  1  0.529136  0  0.309694  0.24469  0  1.023331  0
H  H5  1  0.53746235  0.88196195  0.68022546  1  0.528938  0  0.309704  0.244774  0  1.023349  0
H  H6  1  0.03750135  0.88195819  0.81977137  1  0.529643  0  0.309713  0.244666  0  1.023376  0
H  H7  1  0.46252168  0.11803364  0.31977841  1  0.52923  0  0.309713  0.244864  0  1.023244  0
H  H8  1  0.92084386  0.38567617  0.05482944  1  0.074129  0  0.109406  0.113774  0  0.996214  0
H  H9  1  0.57914671  0.61433727  0.55481948  1  0.074083  0  0.109398  0.113663  0  0.996213  0
H  H10  1  0.07915853  0.61434185  0.94519380  1  0.074162  0  0.109431  0.113668  0  0.99625  0
H  H11  1  0.42085395  0.38566493  0.44519103  1  0.073756  0  0.109396  0.113645  0  0.996289  0
H  H12  1  0.74952162  0.46244673  0.13399114  1  0.066837  0  0.100026  0.09817  0  1.034032  0
H  H13  1  0.75048482  0.53756798  0.63397045  1  0.067899  0  0.10007  0.098118  0  1.034153  0
H  H14  1  0.25048342  0.53755479  0.86604537  1  0.068392  0  0.100025  0.098068  0  1.034181  0
H  H15  1  0.24952692  0.46244149  0.36603564  1  0.067743  0  0.100054  0.098066  0  1.034113  0
H  H16  1  0.64604538  0.38686079  0.25460132  1  0.05419  0  0.103712  0.099896  0  0.999467  0
H  H17  1  0.85397158  0.61315464  0.75457735  1  0.054494  0  0.10378  0.100093  0  0.999577  0
H  H18  1  0.35395530  0.61311841  0.74542634  1  0.053681  0  0.103703  0.099885  0  0.999474  0
H  H19  1  0.14605620  0.38686287  0.24542210  1  0.054888  0  0.10373  0.100049  0  0.999519  0
H  H20  1  0.71518500  0.23577841  0.29518302  1  0.120144  0  0.106765  0.107771  0  1.066812  0
H  H21  1  0.78483362  0.76423366  0.79516817  1  0.120281  0  0.106694  0.107761  0  1.066718  0
H  H22  1  0.28481424  0.76419144  0.70482252  1  0.119582  0  0.106751  0.107904  0  1.06674  0
H  H23  1  0.21519999  0.23578678  0.20482962  1  0.120217  0  0.106731  0.107778  0  1.066788  0
H  H24  1  0.01630104  0.99178017  0.21023068  1  0.073603  0  0.108611  0.117806  0  1.022674  0
H  H25  1  0.48367022  0.00821855  0.71023365  1  0.074034  0  0.108622  0.117844  0  1.022726  0
H  H26  1  0.98370607  0.00820052  0.78976656  1  0.073806  0  0.108663  0.117929  0  1.022599  0
H  H27  1  0.51630914  0.99177700  0.28977022  1  0.073641  0  0.108606  0.117875  0  1.022642  0
H  H28  1  0.76373432  0.03818371  0.40907154  1  0.076463  0  0.111997  0.124291  0  1.017893  0
H  H29  1  0.73624178  0.96181853  0.90906928  1  0.076809  0  0.111963  0.124252  0  1.018043  0
H  H30  1  0.23626811  0.96180844  0.59092902  1  0.07629  0  0.111967  0.124282  0  1.017884  0
H  H31  1  0.26375245  0.03819367  0.09093238  1  0.076539  0  0.111927  0.124225  0  1.017975  0
H  H32  1  0.37160788  0.42171394  0.90878155  1  0.029386  0  0.086046  0.168452  0  1.033747  0
H  H33  1  0.12838598  0.57828889  0.40876932  1  0.029519  0  0.08603  0.168457  0  1.033771  0
H  H34  1  0.62841203  0.57829273  0.09120518  1  0.029211  0  0.08612  0.168568  0  1.033788  0
H  H35  1  0.87161089  0.42171255  0.59121741  1  0.029387  0  0.086035  0.168436  0  1.033742  0
H  H36  1  0.16388704  0.37044779  0.88697147  1  0.048841  0  0.085814  0.170279  0  1.038178  0
H  H37  1  0.33610527  0.62956497  0.38696443  1  0.0491  0  0.085813  0.170218  0  1.038172  0
H  H38  1  0.83612382  0.62956814  0.11301084  1  0.048688  0  0.085826  0.170383  0  1.038086  0
H  H39  1  0.66389363  0.37044152  0.61302672  1  0.049014  0  0.085779  0.170225  0  1.038171  0
H  H40  1  0.31953595  0.34021622  0.83282169  1  0.056144  0  0.082978  0.166242  0  1.058503  0
H  H41  1  0.18045804  0.65979627  0.33281853  1  0.055943  0  0.082949  0.166225  0  1.058349  0
H  H42  1  0.68047930  0.65978466  0.16716503  1  0.055953  0  0.083017  0.166374  0  1.058175  0
H  H43  1  0.81954085  0.34021597  0.66717705  1  0.055848  0  0.082983  0.16626  0  1.058394  0
H  H44  1  0.21204798  0.06539123  0.89088974  1  0.025784  0  0.08159  0.164895  0  1.062428  0
H  H45  1  0.28795627  0.93461375  0.39089630  1  0.025946  0  0.081566  0.164836  0  1.062406  0
H  H46  1  0.78793895  0.93462019  0.10909644  1  0.025659  0  0.081489  0.164759  0  1.062469  0
H  H47  1  0.71204644  0.06538199  0.60910481  1  0.025515  0  0.081558  0.164832  0  1.062377  0
H  H48  1  0.03364696  0.10733528  0.90052021  1  0.031727  0  0.084005  0.168579  0  1.052083  0
H  H49  1  0.46634553  0.89266103  0.40052722  1  0.031862  0  0.084019  0.168574  0  1.052128  0
H  H50  1  0.96634726  0.89267979  0.09946929  1  0.031555  0  0.08405  0.168563  0  1.052314  0
H  H51  1  0.53365135  0.10733179  0.59947445  1  0.031685  0  0.084027  0.168537  0  1.052202  0
H  H52  1  0.10659049  0.05408841  0.97750305  1  0.057143  0  0.085339  0.171693  0  1.069762  0
H  H53  1  0.39340185  0.94590399  0.47750993  1  0.057201  0  0.085362  0.171716  0  1.069603  0
H  H54  1  0.89340024  0.94592089  0.02248423  1  0.056841  0  0.085279  0.17152  0  1.069707  0
H  H55  1  0.60659765  0.05409244  0.52249118  1  0.057186  0  0.085354  0.171707  0  1.069581  0
H  H56  1  0.39736263  0.33206732  0.08830099  1  0.032914  0  0.083278  0.16746  0  1.034229  0
H  H57  1  0.10260250  0.66793286  0.58830227  1  0.0332  0  0.083265  0.167455  0  1.034206  0
H  H58  1  0.60262986  0.66793193  0.91169182  1  0.032862  0  0.083195  0.167357  0  1.034246  0
H  H59  1  0.89738737  0.33205990  0.41169718  1  0.033284  0  0.083243  0.167416  0  1.034261  0
H  H60  1  0.55414099  0.29374090  0.04123967  1  0.035699  0  0.083713  0.170654  0  1.057038  0
H  H61  1  0.94583191  0.70626585  0.54123964  1  0.035286  0  0.083677  0.170568  0  1.057032  0
H  H62  1  0.44585645  0.70626486  0.95875259  1  0.035281  0  0.083704  0.170642  0  1.056988  0
H  H63  1  0.05415795  0.29372979  0.45876037  1  0.035321  0  0.083696  0.17061  0  1.056968  0
H  H64  1  0.40855893  0.21013666  0.09592684  1  0.046481  0  0.080593  0.160038  0  1.091605  0
H  H65  1  0.09141780  0.78986654  0.59592811  1  0.04689  0  0.080593  0.16002  0  1.091515  0
H  H66  1  0.59143443  0.78986476  0.90405989  1  0.046695  0  0.080522  0.159923  0  1.091613  0
H  H67  1  0.90857704  0.21012699  0.40407244  1  0.046289  0  0.080582  0.160043  0  1.091462  0
H  H68  1  0.11746108  0.85165063  0.19744279  1  0.02605  0  0.087994  0.122391  0  1.038253  0
H  H69  1  0.38252197  0.14835388  0.69744442  1  0.025971  0  0.087972  0.122363  0  1.038326  0
H  H70  1  0.88252472  0.14832917  0.80255611  1  0.025784  0  0.087966  0.122387  0  1.038372  0
H  H71  1  0.61746937  0.85163674  0.30254618  1  0.025663  0  0.087969  0.122324  0  1.038238  0
H  H72  1  0.01063327  0.75171077  0.25213263  1  0.082624  0  0.098133  0.139485  0  0.981804  0
H  H73  1  0.48935597  0.24829048  0.75213661  1  0.082761  0  0.098166  0.139502  0  0.981777  0
H  H74  1  0.98935370  0.24826616  0.74786792  1  0.083076  0  0.098117  0.139502  0  0.981718  0
H  H75  1  0.51063273  0.75170802  0.24785288  1  0.082647  0  0.09821  0.139505  0  0.981868  0
H  H76  1  0.20070535  0.82047521  0.28105448  1  0.045258  0  0.094339  0.12993  0  1.022481  0
H  H77  1  0.29927485  0.17953331  0.78105481  1  0.045024  0  0.09426  0.129832  0  1.022397  0
H  H78  1  0.79928979  0.17950467  0.71894497  1  0.045059  0  0.094403  0.129953  0  1.022541  0
H  H79  1  0.70070772  0.82046730  0.21893358  1  0.045014  0  0.094354  0.1299  0  1.022323  0
H  H80  1  0.73674932  0.92667945  0.51327702  1  0.06049  0  0.090722  0.131684  0  1.015882  0
H  H81  1  0.76324400  0.07332517  0.01326837  1  0.060693  0  0.090809  0.131839  0  1.015687  0
H  H82  1  0.26326564  0.07332646  0.48672188  1  0.060873  0  0.090697  0.131592  0  1.015847  0
H  H83  1  0.23676598  0.92669148  0.98672168  1  0.059637  0  0.090728  0.131655  0  1.015736  0
H  H84  1  0.91901334  0.89164451  0.52702938  1  0.03971  0  0.092096  0.133086  0  1.01191  0
H  H85  1  0.58098159  0.10836163  0.02702469  1  0.039649  0  0.092097  0.133109  0  1.011838  0
H  H86  1  0.08098499  0.10835479  0.47298389  1  0.039904  0  0.092021  0.132992  0  1.01171  0
H  H87  1  0.41903043  0.89165719  0.97297531  1  0.0397  0  0.092034  0.132951  0  1.011911  0
H  H88  1  0.75039403  0.80781743  0.49044153  1  0.062215  0  0.093465  0.134014  0  1.012898  0
H  H89  1  0.74960492  0.19218903  0.99043818  1  0.061875  0  0.093449  0.133962  0  1.012858  0
H  H90  1  0.24961187  0.19218912  0.50956511  1  0.062272  0  0.093428  0.13391  0  1.012854  0
H  H91  1  0.25039865  0.80782325  0.00955021  1  0.061902  0  0.093405  0.133912  0  1.012852  0
C  C92  1  0.01953306  0.22658775  0.08071443  1  1.552805  0  0.216151  0.563944  0  4.205528  0
C  C93  1  0.48044586  0.77341466  0.58070961  1  1.552748  0  0.216063  0.563697  0  4.205725  0
C  C94  1  0.98047022  0.77342381  0.91928723  1  1.553367  0  0.216212  0.564112  0  4.205325  0
C  C95  1  0.51954197  0.22657880  0.41929538  1  1.553356  0  0.216138  0.563922  0  4.205862  0
C  C96  1  0.91203521  0.26832627  0.12878935  1  0.068914  0  -0.018674  -0.134191  0  3.950436  0
C  C97  1  0.58795349  0.73168179  0.62878209  1  0.068397  0  -0.018558  -0.134339  0  3.950799  0
C  C98  1  0.08796895  0.73167883  0.87121674  1  0.068144  0  -0.018722  -0.134555  0  3.950785  0
C  C99  1  0.41204163  0.26831820  0.37122345  1  0.068172  0  -0.018609  -0.134314  0  3.950734  0
C  C100  1  0.87371773  0.35382422  0.10752251  1  -0.063209  0  -0.080452  -0.08116  0  3.989269  0
C  C101  1  0.62627847  0.64618739  0.60750981  1  -0.063922  0  -0.080373  -0.080681  0  3.988712  0
C  C102  1  0.12628205  0.64618444  0.89249796  1  -0.064046  0  -0.080359  -0.080713  0  3.988729  0
C  C103  1  0.37374203  0.35382072  0.39249407  1  -0.063596  0  -0.080328  -0.080734  0  3.98848  0
C  C104  1  0.77880894  0.39644623  0.15189163  1  0.033749  0  -0.09089  -0.089752  0  4.007013  0
C  C105  1  0.72118975  0.60356419  0.65187351  1  0.032839  0  -0.090967  -0.089737  0  4.007035  0
C  C106  1  0.22119435  0.60355096  0.84814101  1  0.03245  0  -0.09092  -0.089769  0  4.006563  0
C  C107  1  0.27881587  0.39644164  0.34813369  1  0.03236  0  -0.09098  -0.089702  0  4.006641  0
C  C108  1  0.72071948  0.35396865  0.21957033  1  -0.048921  0  -0.080649  -0.045996  0  3.994109  0
C  C109  1  0.77928877  0.64604437  0.71954781  1  -0.049847  0  -0.080923  -0.046666  0  3.994696  0
C  C110  1  0.27927887  0.64601340  0.78045567  1  -0.049512  0  -0.080773  -0.046003  0  3.994221  0
C  C111  1  0.22073784  0.35397026  0.28045220  1  -0.036683  0  -0.080853  -0.046444  0  3.994684  0
C  C112  1  0.75697915  0.26953185  0.24246506  1  -0.038766  0  -0.093377  -0.173194  0  3.96791  0
C  C113  1  0.74303063  0.73048273  0.74245018  1  -0.087066  0  -0.093178  -0.172885  0  3.96749  0
C  C114  1  0.24302562  0.73044595  0.75754490  1  -0.037384  0  -0.093387  -0.173442  0  3.968173  0
C  C115  1  0.25699423  0.26953332  0.25754871  1  -0.100126  0  -0.093288  -0.173113  0  3.967975  0
C  C116  1  0.85125705  0.22613927  0.19725683  1  0.283284  0  0.105267  0.173297  0  3.993719  0
C  C117  1  0.64873332  0.77386917  0.69724792  1  0.332827  0  0.105207  0.173351  0  3.99378  0
C  C118  1  0.14875646  0.77385154  0.80274539  1  0.284189  0  0.105265  0.173321  0  3.993591  0
C  C119  1  0.35127141  0.22613737  0.30275263  1  0.332747  0  0.105264  0.173423  0  3.993805  0
C  C120  1  0.88888496  0.02585192  0.30763459  1  0.532925  0  0.091824  0.152474  0  4.133264  0
C  C121  1  0.61108628  0.97414688  0.80763328  1  0.532011  0  0.09181  0.152549  0  4.133526  0
C  C122  1  0.11112856  0.97413314  0.69236486  1  0.531883  0  0.092091  0.152883  0  4.133361  0
C  C123  1  0.38889541  0.02585731  0.19236617  1  0.532162  0  0.091884  0.15262  0  4.13336  0
C  C124  1  0.97671494  0.97086657  0.26658254  1  -0.026348  0  -0.088459  -0.20708  0  3.929602  0
C  C125  1  0.52325670  0.02912914  0.76658408  1  -0.026405  0  -0.088437  -0.207242  0  3.930098  0
C  C126  1  0.02328983  0.02911698  0.73341691  1  -0.025924  0  -0.088604  -0.207532  0  3.93004  0
C  C127  1  0.47672266  0.97086928  0.23341703  1  -0.025865  0  -0.08841  -0.207189  0  3.929609  0
C  C128  1  0.00826189  0.88973019  0.29645316  1  -0.067  0  -0.011288  0.074113  0  3.95435  0
C  C129  1  0.49171233  0.11026685  0.79645212  1  -0.066945  0  -0.011458  0.073983  0  3.954519  0
C  C130  1  0.99173558  0.11025257  0.70355072  1  -0.067062  0  -0.01137  0.074295  0  3.954681  0
C  C131  1  0.50826732  0.88972942  0.20354568  1  -0.066926  0  -0.011409  0.073892  0  3.954418  0
C  C132  1  0.95850537  0.86156260  0.37216542  1  0.774221  0  0.124815  0.277008  0  4.031105  0
C  C133  1  0.54148274  0.13844531  0.87216239  1  0.773888  0  0.124819  0.27701  0  4.031257  0
C  C134  1  0.04150259  0.13842888  0.62784123  1  0.772815  0  0.124835  0.276944  0  4.031027  0
C  C135  1  0.45850507  0.86156253  0.12783208  1  0.774118  0  0.124821  0.277059  0  4.03114  0
C  C136  1  0.86776435  0.91672023  0.41339715  1  0.058531  0  -0.017838  0.061759  0  3.975756  0
C  C137  1  0.63221841  0.08328713  0.91339476  1  0.060461  0  -0.017759  0.061758  0  3.975847  0
C  C138  1  0.13225149  0.08327634  0.58660617  1  0.060151  0  -0.017938  0.061705  0  3.975501  0
C  C139  1  0.36776473  0.91672354  0.08660138  1  0.058426  0  -0.017869  0.061737  0  3.975761  0
C  C140  1  0.83407844  0.99551090  0.38063055  1  -0.138683  0  -0.077784  -0.202472  0  3.955928  0
C  C141  1  0.66589617  0.00449262  0.88062772  1  -0.139275  0  -0.077876  -0.202534  0  3.956128  0
C  C142  1  0.16593915  0.00448425  0.61937222  1  -0.138713  0  -0.077818  -0.202572  0  3.956019  0
C  C143  1  0.33408318  0.99551155  0.11937173  1  -0.138449  0  -0.077742  -0.202439  0  3.956185  0
C  C144  1  0.28397504  0.35719833  0.88836352  1  -0.468167  0  -0.337763  -0.74473  0  3.765185  0
C  C145  1  0.21601406  0.64280938  0.38835908  1  -0.468407  0  -0.337716  -0.744642  0  3.765094  0
C  C146  1  0.71603116  0.64281181  0.11162099  1  -0.467887  0  -0.337883  -0.745182  0  3.765206  0
C  C147  1  0.78398456  0.35719352  0.61163428  1  -0.468105  0  -0.337713  -0.744698  0  3.765137  0
C  C148  1  0.14252375  0.09905547  0.92846350  1  -0.42429  0  -0.335434  -0.743131  0  3.733285  0
C  C149  1  0.35746876  0.90094171  0.42846862  1  -0.424374  0  -0.335467  -0.743082  0  3.733117  0
C  C150  1  0.85746202  0.90095019  0.07152600  1  -0.423724  0  -0.335334  -0.742857  0  3.733245  0
C  C151  1  0.64252840  0.09905183  0.57153304  1  -0.423714  0  -0.335453  -0.743067  0  3.733174  0
C  C152  1  0.42843177  0.27241280  0.05889875  1  -0.407207  0  -0.336642  -0.740525  0  3.765129  0
C  C153  1  0.07154736  0.72758950  0.55889759  1  -0.407538  0  -0.336555  -0.740369  0  3.764808  0
C  C154  1  0.57157122  0.72759229  0.94109462  1  -0.40696  0  -0.336481  -0.740345  0  3.76492  0
C  C155  1  0.92844135  0.27240326  0.44110241  1  -0.407067  0  -0.336574  -0.740473  0  3.76486  0
C  C156  1  0.08872379  0.82558160  0.25401059  1  -0.070967  0  -0.240383  -0.406819  0  3.982267  0
C  C157  1  0.41125696  0.17442175  0.75401336  1  -0.070686  0  -0.240251  -0.406574  0  3.981978  0
C  C158  1  0.91126522  0.17439751  0.74599107  1  -0.070494  0  -0.240388  -0.406884  0  3.982519  0
C  C159  1  0.58872794  0.82557600  0.24597779  1  -0.070371  0  -0.240424  -0.406637  0  3.982258  0
C  C160  1  0.81494465  0.88449907  0.49011747  1  -0.073929  0  -0.243358  -0.39815  0  3.959414  0
C  C161  1  0.68504759  0.11550806  0.99011009  1  -0.074982  0  -0.243408  -0.398244  0  3.959364  0
C  C162  1  0.18506798  0.11550395  0.50988807  1  -0.07462  0  -0.243172  -0.397773  0  3.958925  0
C  C163  1  0.31495276  0.88450779  0.00988162  1  -0.072712  0  -0.243241  -0.397857  0  3.959115  0
N  N164  1  0.89023698  0.14161982  0.21972066  1  -0.740756  0  -0.238382  -0.096986  0  3.698415  0
N  N165  1  0.60975173  0.85838801  0.71971719  1  -0.741248  0  -0.238291  -0.09696  0  3.698492  0
N  N166  1  0.10977829  0.85837244  0.78027935  1  -0.7416  0  -0.238386  -0.096784  0  3.698151  0
N  N167  1  0.39024747  0.14161633  0.28028613  1  -0.741269  0  -0.238302  -0.097038  0  3.69833  0
N  N168  1  0.84706218  0.10514585  0.28446108  1  -0.576026  0  -0.155278  -0.104867  0  3.311925  0
N  N169  1  0.65291599  0.89485504  0.78445931  1  -0.575262  0  -0.155278  -0.104945  0  3.312153  0
N  N170  1  0.15294901  0.89483919  0.71553395  1  -0.576051  0  -0.155297  -0.105069  0  3.312005  0
N  N171  1  0.34707357  0.10515137  0.21554180  1  -0.575901  0  -0.155375  -0.105075  0  3.312034  0
O  O172  1  0.07271749  0.27482110  0.02165586  1  -1.18301  0  -0.288532  -0.534228  0  2.261185  0
O  O173  1  0.42726346  0.72517886  0.52165540  1  -1.183213  0  -0.288645  -0.534192  0  2.260981  0
O  O174  1  0.92727382  0.72519251  0.97834470  1  -1.182869  0  -0.288566  -0.534249  0  2.261245  0
O  O175  1  0.57273254  0.27481754  0.47835014  1  -1.18322  0  -0.28862  -0.534239  0  2.261158  0
O  O176  1  0.05549897  0.14960403  0.09943242  1  -1.176793  0  -0.304753  -0.542582  0  2.196089  0
O  O177  1  0.44447569  0.85039701  0.59943300  1  -1.175842  0  -0.304582  -0.542389  0  2.195978  0
O  O178  1  0.94451481  0.85040762  0.90056371  1  -1.176512  0  -0.304729  -0.542586  0  2.195817  0
O  O179  1  0.55550339  0.14959494  0.40057198  1  -1.176161  0  -0.304666  -0.542617  0  2.196043  0
O  O180  1  0.99216800  0.78783383  0.40123209  1  -1.166956  0  -0.281259  -0.475485  0  2.26252  0
O  O181  1  0.50782451  0.21217427  0.90123223  1  -1.167068  0  -0.28132  -0.475555  0  2.262423  0
O  O182  1  0.00782481  0.21214603  0.59876847  1  -1.166834  0  -0.281218  -0.475476  0  2.262473  0
O  O183  1  0.49217205  0.78784083  0.09875947  1  -1.166733  0  -0.281226  -0.475519  0  2.262535  0
