# generated using pymatgen
data_AgH16C16S2NO3
_symmetry_space_group_name_H-M   'P 1'
_cell_length_a   7.91338848
_cell_length_b   10.73059239
_cell_length_c   21.64389026
_cell_angle_alpha   89.99989853
_cell_angle_beta   89.99992766
_cell_angle_gamma   90.00013076
_symmetry_Int_Tables_number   1
_chemical_formula_structural   AgH16C16S2NO3
_chemical_formula_sum   'Ag4 H64 C64 S8 N4 O12'
_cell_volume   1837.89843460
_cell_formula_units_Z   4
loop_
 _symmetry_equiv_pos_site_id
 _symmetry_equiv_pos_as_xyz
  1  'x, y, z'
loop_
 _atom_site_type_symbol
 _atom_site_label
 _atom_site_symmetry_multiplicity
 _atom_site_fract_x
 _atom_site_fract_y
 _atom_site_fract_z
 _atom_site_occupancy
 _atom_site_pbe_bader_charge
 _atom_site_pbe_bader_spin_density
 _atom_site_pbe_cm5_charge
 _atom_site_pbe_ddec_charge
 _atom_site_pbe_ddec_spin_density
 _atom_site_pbe_ddec_sum_bond_order
 _atom_site_pbe_magmom
Ag  Ag0  1  0.02997724  0.13149416  0.00218346  1  0.514671  0  0.371937  0.260169  0  2.131889  0
Ag  Ag1  1  0.52998294  0.36850953  0.99781525  1  0.514615  0  0.37193  0.260147  0  2.131997  0
Ag  Ag2  1  0.97002074  0.63149442  0.49781527  1  0.514658  0  0.371929  0.260166  0  2.131977  0
Ag  Ag3  1  0.47001911  0.86850327  0.50218465  1  0.514736  0  0.371895  0.260139  0  2.131914  0
H  H4  1  0.14658069  0.95192497  0.12914870  1  0.101665  0  0.108433  0.137924  0  0.958642  0
H  H5  1  0.64658203  0.54807404  0.87085322  1  0.101793  0  0.108435  0.137913  0  0.958641  0
H  H6  1  0.85341450  0.45192384  0.37084930  1  0.101866  0  0.108432  0.137943  0  0.958623  0
H  H7  1  0.35342407  0.04807946  0.62914835  1  0.101648  0  0.108406  0.13788  0  0.958643  0
H  H8  1  0.12735998  0.10006791  0.16448330  1  0.083177  0  0.097706  0.113484  0  1.022599  0
H  H9  1  0.62736506  0.39992942  0.83551907  1  0.083117  0  0.097699  0.11345  0  1.022671  0
H  H10  1  0.87263412  0.60006952  0.33551501  1  0.083129  0  0.097721  0.113476  0  1.02263  0
H  H11  1  0.37263329  0.89993546  0.66448496  1  0.083188  0  0.097738  0.1135  0  1.022604  0
H  H12  1  0.12800170  0.07767846  0.27331309  1  0.057865  0  0.095374  0.09451  0  1.044951  0
H  H13  1  0.62801229  0.42231887  0.72668881  1  0.05773  0  0.095411  0.094578  0  1.044997  0
H  H14  1  0.87199358  0.57768046  0.22668523  1  0.057827  0  0.095393  0.094562  0  1.044872  0
H  H15  1  0.37200129  0.92232359  0.77331382  1  0.057927  0  0.095364  0.094469  0  1.044942  0
H  H16  1  0.98974352  0.00099639  0.36883088  1  0.070954  0  0.102475  0.110669  0  0.991608  0
H  H17  1  0.48975701  0.49899876  0.63117086  1  0.070929  0  0.102445  0.110587  0  0.991645  0
H  H18  1  0.01025153  0.50099728  0.13116797  1  0.070878  0  0.102458  0.110626  0  0.991593  0
H  H19  1  0.51025807  0.99900802  0.86883078  1  0.070975  0  0.102459  0.110642  0  0.991624  0
H  H20  1  0.69324103  0.74612668  0.26016624  1  0.072844  0  0.094988  0.092089  0  1.049917  0
H  H21  1  0.19325086  0.75386868  0.73983243  1  0.072994  0  0.094959  0.09203  0  1.049967  0
H  H22  1  0.30675352  0.24612790  0.23983194  1  0.072916  0  0.094961  0.092057  0  1.049863  0
H  H23  1  0.80676220  0.25387719  0.76016573  1  0.072802  0  0.095046  0.09216  0  1.049826  0
H  H24  1  0.83422896  0.82106505  0.16506543  1  0.079971  0  0.100055  0.103541  0  1.001992  0
H  H25  1  0.33423317  0.67893148  0.83493409  1  0.080038  0  0.10008  0.103599  0  1.002015  0
H  H26  1  0.16576709  0.32106662  0.33493360  1  0.080035  0  0.100077  0.103611  0  1.001993  0
H  H27  1  0.66576955  0.17893823  0.66506505  1  0.080039  0  0.100068  0.103544  0  1.002056  0
H  H28  1  0.64685365  0.75302821  0.36717289  1  0.048998  0  0.096297  0.111772  0  1.012684  0
H  H29  1  0.14686509  0.74696893  0.63282904  1  0.049119  0  0.096367  0.111903  0  1.012617  0
H  H30  1  0.35314092  0.25302989  0.13282667  1  0.049055  0  0.09632  0.111797  0  1.012649  0
H  H31  1  0.85314163  0.24697528  0.86717652  1  0.049017  0  0.096312  0.111771  0  1.0127  0
H  H32  1  0.80991781  0.80948646  0.41666670  1  0.120835  0  0.098006  0.122118  0  1.038533  0
H  H33  1  0.30992419  0.69050816  0.58333284  1  0.120802  0  0.097939  0.122097  0  1.03859  0
H  H34  1  0.19008073  0.30948898  0.08333142  1  0.120805  0  0.097968  0.122067  0  1.038621  0
H  H35  1  0.69007351  0.19051032  0.91666722  1  0.120782  0  0.097953  0.122097  0  1.038572  0
H  H36  1  0.69822444  0.20384006  0.08939218  1  0.16314  0  0.099061  0.125243  0  1.035405  0
H  H37  1  0.19822497  0.29615646  0.91060692  1  0.163185  0  0.099042  0.125186  0  1.035518  0
H  H38  1  0.30177124  0.70384044  0.41060741  1  0.163196  0  0.099051  0.12525  0  1.035458  0
H  H39  1  0.80177306  0.79615417  0.58939259  1  0.163161  0  0.099033  0.125193  0  1.03553  0
H  H40  1  0.86345201  0.25060174  0.14019584  1  0.058464  0  0.094825  0.109066  0  1.023009  0
H  H41  1  0.36345256  0.24939879  0.85980180  1  0.058451  0  0.09484  0.10908  0  1.022946  0
H  H42  1  0.13654508  0.75060202  0.35980233  1  0.05843  0  0.094823  0.109081  0  1.02295  0
H  H43  1  0.63654785  0.74939418  0.64019821  1  0.058387  0  0.094796  0.109024  0  1.023015  0
H  H44  1  0.80650404  0.25935125  0.24614953  1  0.079377  0  0.094214  0.090904  0  1.050648  0
H  H45  1  0.30649356  0.24064452  0.75384998  1  0.079442  0  0.094208  0.090886  0  1.050663  0
H  H46  1  0.19349686  0.75935108  0.25385048  1  0.079391  0  0.094219  0.090902  0  1.050692  0
H  H47  1  0.69350429  0.74064242  0.74615004  1  0.079396  0  0.09423  0.090916  0  1.05068  0
H  H48  1  0.66239483  0.18218094  0.34014657  1  0.097472  0  0.099594  0.103241  0  1.003664  0
H  H49  1  0.16238617  0.31781365  0.65985255  1  0.097379  0  0.099589  0.103242  0  1.003713  0
H  H50  1  0.33760331  0.68218414  0.15985213  1  0.097298  0  0.09957  0.103215  0  1.003615  0
H  H51  1  0.83760560  0.81781612  0.84014786  1  0.097443  0  0.099598  0.10327  0  1.003639  0
H  H52  1  0.37264798  0.92825527  0.22885439  1  0.057553  0  0.095136  0.094582  0  1.045527  0
H  H53  1  0.87265101  0.57174971  0.77114558  1  0.057546  0  0.095149  0.094541  0  1.045568  0
H  H54  1  0.62734587  0.42825226  0.27114455  1  0.057578  0  0.095102  0.094488  0  1.045654  0
H  H55  1  0.12734127  0.07175066  0.72885366  1  0.057435  0  0.09508  0.094451  0  1.045687  0
H  H56  1  0.51253370  0.00800814  0.13445445  1  0.098958  0  0.100154  0.109337  0  1.010357  0
H  H57  1  0.01253751  0.49199553  0.86554612  1  0.098979  0  0.100143  0.109303  0  1.010331  0
H  H58  1  0.48746011  0.50800340  0.36554624  1  0.098981  0  0.100155  0.109328  0  1.010321  0
H  H59  1  0.98745860  0.99199432  0.63445367  1  0.098928  0  0.100153  0.109319  0  1.010339  0
H  H60  1  0.34750037  0.04555536  0.37310242  1  0.090884  0  0.108382  0.133105  0  0.956623  0
H  H61  1  0.84749751  0.45444980  0.62689892  1  0.090927  0  0.108393  0.13311  0  0.956671  0
H  H62  1  0.65249861  0.54555361  0.12689870  1  0.090909  0  0.108369  0.133074  0  0.956723  0
H  H63  1  0.15249849  0.95445006  0.87310044  1  0.090957  0  0.108408  0.133117  0  0.956688  0
H  H64  1  0.37810685  0.89860527  0.33755298  1  0.090609  0  0.098397  0.114414  0  1.021015  0
H  H65  1  0.87811035  0.60139971  0.66244976  1  0.09058  0  0.098398  0.114355  0  1.02103  0
H  H66  1  0.62188817  0.39860637  0.16244876  1  0.090647  0  0.098422  0.11443  0  1.021041  0
H  H67  1  0.12188581  0.10139934  0.83755084  1  0.090596  0  0.098387  0.11436  0  1.021109  0
C  C68  1  0.05892015  0.01367283  0.15417421  1  -0.142447  0  -0.143867  -0.239807  0  3.897673  0
C  C69  1  0.55892421  0.48632439  0.84582727  1  -0.142542  0  -0.143875  -0.239841  0  3.897653  0
C  C70  1  0.94107620  0.51367451  0.34582510  1  -0.142612  0  -0.143961  -0.239922  0  3.897636  0
C  C71  1  0.44107946  0.98632965  0.65417576  1  -0.142704  0  -0.143888  -0.239813  0  3.897615  0
C  C72  1  0.99030255  0.95530745  0.21243713  1  -0.000728  0  -0.018076  0.112762  0  3.977138  0
C  C73  1  0.49030904  0.54468654  0.78756278  1  -0.000618  0  -0.018016  0.113014  0  3.977036  0
C  C74  1  0.00969264  0.45530986  0.28756040  1  -0.000584  0  -0.018043  0.112718  0  3.976909  0
C  C75  1  0.50969958  0.04469286  0.71243787  1  -0.000296  0  -0.018107  0.112705  0  3.977121  0
C  C76  1  0.03587924  0.00239084  0.27057335  1  -0.108364  0  -0.095469  -0.140097  0  3.993736  0
C  C77  1  0.53589005  0.49760541  0.72942814  1  -0.108451  0  -0.095588  -0.140317  0  3.993774  0
C  C78  1  0.96411708  0.50239205  0.22942458  1  -0.108435  0  -0.095495  -0.140104  0  3.993593  0
C  C79  1  0.46412377  0.99761122  0.77057350  1  -0.10843  0  -0.095453  -0.140017  0  3.993777  0
C  C80  1  0.95841084  0.95907868  0.32428071  1  -0.049707  0  -0.094596  -0.136869  0  3.985736  0
C  C81  1  0.45842402  0.54091526  0.67571968  1  -0.049764  0  -0.094563  -0.136785  0  3.985618  0
C  C82  1  0.04158310  0.45907969  0.17571728  1  -0.04951  0  -0.094592  -0.136837  0  3.985644  0
C  C83  1  0.54158838  0.04092309  0.82428097  1  -0.04968  0  -0.09458  -0.136815  0  3.985636  0
C  C84  1  0.83094951  0.86861852  0.32101797  1  -0.027324  0  -0.019578  0.112711  0  3.994767  0
C  C85  1  0.33096043  0.63137520  0.67898295  1  -0.026966  0  -0.019508  0.11294  0  3.994618  0
C  C86  1  0.16904795  0.36862066  0.17898010  1  -0.027581  0  -0.019505  0.112835  0  3.994844  0
C  C87  1  0.66905352  0.13138420  0.82101716  1  -0.026835  0  -0.019565  0.11271  0  3.994678  0
C  C88  1  0.79260691  0.81644720  0.26339065  1  -0.001925  0  -0.093768  -0.13094  0  3.982271  0
C  C89  1  0.29261653  0.68354833  0.73660843  1  -0.00268  0  -0.093779  -0.131045  0  3.982405  0
C  C90  1  0.20738659  0.31644826  0.23660746  1  -0.002358  0  -0.093796  -0.131029  0  3.982329  0
C  C91  1  0.70739378  0.18355573  0.76339071  1  -0.002407  0  -0.093861  -0.131128  0  3.982197  0
C  C92  1  0.87221646  0.85832669  0.20987851  1  -0.098053  0  -0.092172  -0.128465  0  3.983686  0
C  C93  1  0.37222197  0.64166897  0.79012238  1  -0.097435  0  -0.092234  -0.128618  0  3.983763  0
C  C94  1  0.12778097  0.35832836  0.29012002  1  -0.097659  0  -0.092192  -0.128501  0  3.983645  0
C  C95  1  0.62778316  0.14167550  0.70987726  1  -0.098281  0  -0.092157  -0.128381  0  3.983554  0
C  C96  1  0.72965899  0.83273309  0.37681112  1  -0.103474  0  -0.150112  -0.236685  0  3.897327  0
C  C97  1  0.22966769  0.66726326  0.62318938  1  -0.10373  0  -0.150086  -0.236812  0  3.897223  0
C  C98  1  0.27033835  0.33273373  0.12318791  1  -0.103473  0  -0.150092  -0.23666  0  3.897317  0
C  C99  1  0.77034005  0.16726850  0.87681255  1  -0.103475  0  -0.150067  -0.236656  0  3.897291  0
C  C100  1  0.77553634  0.17479692  0.12902368  1  -0.162111  0  -0.15028  -0.237561  0  3.89206  0
C  C101  1  0.27553457  0.32520253  0.87097492  1  -0.162126  0  -0.150268  -0.237487  0  3.89213  0
C  C102  1  0.22446051  0.67479545  0.37097501  1  -0.161711  0  -0.150239  -0.237603  0  3.892177  0
C  C103  1  0.72446355  0.82519903  0.62902502  1  -0.161748  0  -0.150215  -0.237479  0  3.89217  0
C  C104  1  0.67059885  0.13875119  0.18390526  1  -0.065331  0  -0.021054  0.111714  0  3.99373  0
C  C105  1  0.17060243  0.36124714  0.81609385  1  -0.065226  0  -0.021113  0.111613  0  3.993891  0
C  C106  1  0.32939158  0.63875103  0.31609347  1  -0.065614  0  -0.021105  0.111745  0  3.993815  0
C  C107  1  0.82939581  0.86124456  0.68390652  1  -0.065641  0  -0.021027  0.111812  0  3.993954  0
C  C108  1  0.70687911  0.18946221  0.24201632  1  -0.004843  0  -0.094457  -0.130848  0  3.985061  0
C  C109  1  0.20687389  0.31053526  0.75798555  1  -0.004911  0  -0.094404  -0.130747  0  3.985144  0
C  C110  1  0.29311779  0.68946312  0.25798375  1  -0.004978  0  -0.094448  -0.130846  0  3.98533  0
C  C111  1  0.79312292  0.81053334  0.74201441  1  -0.004933  0  -0.09446  -0.130898  0  3.985328  0
C  C112  1  0.62580117  0.14612054  0.29493245  1  -0.09639  0  -0.09359  -0.129022  0  3.983551  0
C  C113  1  0.12579626  0.35387679  0.70506761  1  -0.096262  0  -0.093599  -0.129065  0  3.983583  0
C  C114  1  0.37419433  0.64612178  0.20506859  1  -0.096199  0  -0.093569  -0.129024  0  3.983501  0
C  C115  1  0.87419942  0.85387854  0.79493277  1  -0.096328  0  -0.093583  -0.12901  0  3.983465  0
C  C116  1  0.50875129  0.04867196  0.29122061  1  -0.028699  0  -0.019244  0.1087  0  3.978842  0
C  C117  1  0.00875047  0.45132890  0.70878088  1  -0.028757  0  -0.019259  0.108618  0  3.97897  0
C  C118  1  0.49124643  0.54867245  0.20877866  1  -0.028673  0  -0.019238  0.108695  0  3.978715  0
C  C119  1  0.99124678  0.95132993  0.79121941  1  -0.028692  0  -0.019257  0.108599  0  3.978941  0
C  C120  1  0.46419266  0.00375373  0.23254311  1  -0.097582  0  -0.096227  -0.139185  0  3.994544  0
C  C121  1  0.96419576  0.49624883  0.76745725  1  -0.09756  0  -0.096197  -0.139074  0  3.994567  0
C  C122  1  0.53580240  0.50375315  0.26745712  1  -0.097717  0  -0.096148  -0.13902  0  3.994507  0
C  C123  1  0.03580163  0.99624847  0.73254300  1  -0.097707  0  -0.096119  -0.138912  0  3.994493  0
C  C124  1  0.54267753  0.04880452  0.17939320  1  -0.054296  0  -0.095407  -0.138031  0  3.981399  0
C  C125  1  0.04267885  0.45119733  0.82060735  1  -0.054493  0  -0.095409  -0.137988  0  3.981197  0
C  C126  1  0.45731767  0.54880362  0.32060653  1  -0.054246  0  -0.095422  -0.138065  0  3.981136  0
C  C127  1  0.95731713  0.95119498  0.67939201  1  -0.054075  0  -0.095499  -0.138165  0  3.981158  0
C  C128  1  0.44052397  0.98702727  0.34877133  1  -0.117125  0  -0.141613  -0.232591  0  3.894551  0
C  C129  1  0.94052723  0.51297503  0.65122907  1  -0.117083  0  -0.141633  -0.232546  0  3.8946  0
C  C130  1  0.55947638  0.48702737  0.15122755  1  -0.117198  0  -0.141628  -0.232575  0  3.894721  0
C  C131  1  0.05947244  0.01297545  0.84877115  1  -0.117127  0  -0.141632  -0.232553  0  3.894675  0
S  S132  1  0.89540394  0.04450045  0.09637385  1  0.049105  0  -0.001379  0.083121  0  3.010979  0
S  S133  1  0.39540245  0.45549733  0.90362654  1  0.049118  0  -0.001332  0.083183  0  3.011024  0
S  S134  1  0.10458998  0.54450146  0.40362403  1  0.04914  0  -0.001325  0.083234  0  3.011078  0
S  S135  1  0.60459607  0.95549468  0.59637421  1  0.049197  0  -0.00135  0.083159  0  3.010953  0
S  S136  1  0.60179988  0.96040714  0.40798709  1  0.037423  0  -0.00252  0.075394  0  2.989862  0
S  S137  1  0.10180070  0.53959365  0.59201392  1  0.03746  0  -0.002523  0.075436  0  2.989906  0
S  S138  1  0.39820039  0.46040718  0.09201366  1  0.037454  0  -0.00253  0.075385  0  2.98999  0
S  S139  1  0.89819653  0.03959433  0.90798627  1  0.037445  0  -0.002518  0.075433  0  2.989947  0
N  N140  1  0.41280811  0.08263230  0.00737793  1  0.830096  0  0.087959  0.70534  0  4.400118  0
N  N141  1  0.91282661  0.41736924  0.99262754  1  0.830178  0  0.087903  0.705353  0  4.400393  0
N  N142  1  0.58719225  0.58262821  0.49262085  1  0.830118  0  0.087996  0.705358  0  4.400029  0
N  N143  1  0.08719202  0.91737163  0.50737833  1  0.830085  0  0.087979  0.705448  0  4.39976  0
O  O144  1  0.31652415  0.17912000  0.99729284  1  -0.584716  0  -0.224986  -0.436686  0  2.19057  0
O  O145  1  0.81652555  0.32088697  0.00270482  1  -0.58518  0  -0.224898  -0.436591  0  2.190593  0
O  O146  1  0.68347731  0.67911782  0.50270631  1  -0.584636  0  -0.224955  -0.436676  0  2.190585  0
O  O147  1  0.18347049  0.82088032  0.49729375  1  -0.584638  0  -0.22493  -0.436697  0  2.190543  0
O  O148  1  0.57053703  0.09971351  0.00648664  1  -0.546787  0  -0.190158  -0.431898  0  2.006017  0
O  O149  1  0.07055401  0.40027161  0.99351945  1  -0.547016  0  -0.19003  -0.431843  0  2.006172  0
O  O150  1  0.42946339  0.59970635  0.49351304  1  -0.546769  0  -0.19021  -0.431957  0  2.00596  0
O  O151  1  0.92946203  0.90029593  0.50648736  1  -0.546734  0  -0.190242  -0.43199  0  2.005857  0
O  O152  1  0.34690219  0.97867875  0.01766406  1  -0.514191  0  -0.204446  -0.447242  0  1.887931  0
O  O153  1  0.84693718  0.52132991  0.98234886  1  -0.513612  0  -0.204595  -0.447368  0  1.888029  0
O  O154  1  0.65310193  0.47867596  0.48233345  1  -0.514347  0  -0.204452  -0.447208  0  1.887913  0
O  O155  1  0.15310549  0.02132421  0.51766336  1  -0.514354  0  -0.204433  -0.447243  0  1.887764  0
