# generated using pymatgen
data_ZnH17C28NO7
_symmetry_space_group_name_H-M   'P 1'
_cell_length_a   16.90680760
_cell_length_b   18.33141685
_cell_length_c   19.45910723
_cell_angle_alpha   89.97395400
_cell_angle_beta   90.28562449
_cell_angle_gamma   85.04516746
_symmetry_Int_Tables_number   1
_chemical_formula_structural   ZnH17C28NO7
_chemical_formula_sum   'Zn2 H34 C56 N2 O14'
_cell_volume   6008.26431829
_cell_formula_units_Z   2
loop_
 _symmetry_equiv_pos_site_id
 _symmetry_equiv_pos_as_xyz
  1  'x, y, z'
loop_
 _atom_site_type_symbol
 _atom_site_label
 _atom_site_symmetry_multiplicity
 _atom_site_fract_x
 _atom_site_fract_y
 _atom_site_fract_z
 _atom_site_occupancy
 _atom_site_pbe_bader_charge
 _atom_site_pbe_bader_spin_density
 _atom_site_pbe_cm5_charge
 _atom_site_pbe_ddec_charge
 _atom_site_pbe_ddec_spin_density
 _atom_site_pbe_ddec_sum_bond_order
 _atom_site_pbe_magmom
Zn  Zn0  1  0.50525755  0.42017300  0.50890807  1  1.290738  0  0.670658  0.828473  0  2.398076  0
Zn  Zn1  1  0.50142798  0.57701346  0.51411253  1  1.292723  0  0.671211  0.827529  0  2.434025  0
H  H2  1  0.73797196  0.59888253  0.49700204  1  0.084985  0  0.106647  0.120557  0  1.010838  0
H  H3  1  0.27063172  0.40301989  0.41116464  1  0.101839  0  0.105266  0.116162  0  1.013205  0
H  H4  1  0.63078477  0.46263238  0.06187521  1  0.089991  0  0.10442  0.105548  0  0.996803  0
H  H5  1  0.36420252  0.53028811  0.96077317  1  0.079696  0  0.103844  0.104493  0  0.994595  0
H  H6  1  0.61201257  0.45930099  0.93622848  1  0.062837  0  0.10174  0.09991  0  1.001699  0
H  H7  1  0.38259799  0.53257365  0.08650584  1  0.063052  0  0.101333  0.099351  0  1.004314  0
H  H8  1  0.41909468  0.31214864  0.43180276  1  0.093063  0  0.125938  0.100837  0  0.982858  0
H  H9  1  0.57746202  0.68861284  0.59727253  1  0.122093  0  0.130937  0.106113  0  0.961571  0
H  H10  1  0.41323128  0.17599238  0.42845554  1  0.088831  0  0.11303  0.118243  0  0.99158  0
H  H11  1  0.58214523  0.82445132  0.59750473  1  0.084743  0  0.113454  0.11851  0  0.992886  0
H  H12  1  0.59886937  0.15945637  0.58270780  1  0.09718  0  0.115927  0.12214  0  0.986962  0
H  H13  1  0.41431223  0.83410019  0.42846408  1  0.082853  0  0.116035  0.122612  0  0.987829  0
H  H14  1  0.59691987  0.29613172  0.57883980  1  0.129596  0  0.131138  0.108037  0  0.966901  0
H  H15  1  0.41921025  0.69761072  0.43416020  1  0.132799  0  0.130002  0.104666  0  0.970862  0
H  H16  1  0.51778272  0.06691193  0.61783764  1  0.043177  0  0.108488  0.107491  0  0.99266  0
H  H17  1  0.48450934  0.93082713  0.40041593  1  0.073186  0  0.108102  0.106328  0  0.994645  0
H  H18  1  0.51380255  0.93293107  0.62070636  1  0.047737  0  0.109766  0.109826  0  0.991549  0
H  H19  1  0.48735747  0.06494339  0.39773385  1  0.076471  0  0.109361  0.109655  0  0.989695  0
H  H20  1  0.25575506  0.63152227  0.46289089  1  0.137857  0  0.109031  0.120982  0  1.012209  0
H  H21  1  0.75259167  0.36458009  0.48122640  1  0.147641  0  0.111332  0.123647  0  1.001542  0
H  H22  1  0.99149229  0.58901162  0.40404175  1  0.100127  0  0.097709  0.097176  0  1.087843  0
H  H23  1  0.00463401  0.42283987  0.41760144  1  0.103086  0  0.098609  0.096383  0  1.061511  0
H  H24  1  0.45272456  0.59924906  0.30000337  1  0.080904  0  0.105547  0.110729  0  0.994847  0
H  H25  1  0.54009202  0.39524822  0.72171283  1  0.097158  0  0.106005  0.111385  0  0.993422  0
H  H26  1  0.43619561  0.59628915  0.17306563  1  0.057326  0  0.10374  0.101785  0  0.999982  0
H  H27  1  0.55124161  0.39291859  0.84930306  1  0.067486  0  0.103877  0.101677  0  0.998837  0
H  H28  1  0.60801396  0.40779238  0.16491435  1  0.089971  0  0.106715  0.109858  0  1.011763  0
H  H29  1  0.39788109  0.59361091  0.85828555  1  0.098865  0  0.107271  0.111195  0  1.009013  0
H  H30  1  0.93743445  0.34811668  0.37876933  1  0.056013  0  0.100378  0.036069  0  0.970697  0
H  H31  1  0.04269409  0.67255326  0.41889769  1  0.043077  0  0.100772  0.03726  0  0.987143  0
H  H32  1  0.16180555  0.36298442  0.36446104  1  0.59708  0  0.341913  0.367316  0  0.867753  0
H  H33  1  0.84024877  0.65314299  0.45937900  1  0.608373  0  0.342988  0.367395  0  0.866861  0
H  H34  1  0.66150635  0.41022956  0.34984746  1  0.083241  0  0.100165  0.04684  0  0.987595  0
H  H35  1  0.35268004  0.60273343  0.67191810  1  0.06891  0  0.103559  0.050267  0  0.967769  0
C  C36  1  0.47084249  0.49912137  0.64165604  1  1.561933  0  0.216735  0.592434  0  4.180945  0
C  C37  1  0.53585540  0.50520977  0.38046801  1  1.562408  0  0.212623  0.586024  0  4.19283  0
C  C38  1  0.48615344  0.55750702  0.26942451  1  -0.039772  0  -0.086359  -0.097143  0  4.000958  0
C  C39  1  0.50942017  0.43845388  0.75251051  1  -0.074519  0  -0.084858  -0.094359  0  3.997019  0
C  C40  1  0.47662183  0.55510804  0.19851277  1  -0.063463  0  -0.083486  -0.118432  0  3.976216  0
C  C41  1  0.51594687  0.43776813  0.82379125  1  -0.056546  0  -0.082309  -0.118207  0  3.976438  0
C  C42  1  0.51943704  0.50097305  0.15895648  1  0.028876  0  -0.003754  0.071021  0  4.011441  0
C  C43  1  0.47686782  0.49377076  0.86366452  1  -0.032268  0  -0.003789  0.07025  0  4.014933  0
C  C44  1  0.57297156  0.45057047  0.19313393  1  -0.05114  0  -0.074887  -0.139566  0  3.911452  0
C  C45  1  0.42979775  0.54925362  0.82960665  1  0.02815  0  -0.075146  -0.139853  0  3.913332  0
C  C46  1  0.58247517  0.45175576  0.26461295  1  -0.017399  0  -0.016968  0.00039  0  3.978709  0
C  C47  1  0.42383301  0.55138250  0.75783848  1  -0.035609  0  -0.016174  0.001522  0  3.975047  0
C  C48  1  0.53757247  0.50531132  0.30347914  1  -0.004187  0  -0.007054  -0.045717  0  3.929888  0
C  C49  1  0.46515865  0.49580531  0.71855517  1  0.019435  0  -0.004976  -0.045524  0  3.919413  0
C  C50  1  0.57180578  0.47624204  0.04005946  1  -0.059452  0  -0.090091  -0.124701  0  3.993819  0
C  C51  1  0.42304375  0.51612487  0.98273357  1  -0.067921  0  -0.089973  -0.124507  0  3.992088  0
C  C52  1  0.56118160  0.47433783  0.96919084  1  -0.035874  0  -0.090817  -0.12764  0  3.998479  0
C  C53  1  0.43356258  0.51762406  0.05366791  1  -0.036166  0  -0.091455  -0.128849  0  3.999423  0
C  C54  1  0.48671915  0.49447385  0.93906376  1  -0.03271  0  -0.008952  0.064704  0  4.010104  0
C  C55  1  0.50821234  0.49808048  0.08378261  1  -0.038554  0  -0.009417  0.063213  0  4.01217  0
C  C56  1  0.45788313  0.27556909  0.46387380  1  0.536514  0  0.059871  0.107376  0  3.928499  0
C  C57  1  0.54266675  0.72342749  0.56073321  1  0.477049  0  0.06017  0.103666  0  3.932842  0
C  C58  1  0.65540559  0.48436136  0.52344597  1  1.555676  0  0.210712  0.590474  0  4.17839  0
C  C59  1  0.35564798  0.50682402  0.46827511  1  1.583295  0  0.213952  0.593432  0  4.168085  0
C  C60  1  0.45537494  0.20010395  0.46233783  1  -0.064748  0  -0.078894  -0.179295  0  3.951919  0
C  C61  1  0.54426545  0.79898301  0.56076906  1  -0.01056  0  -0.078932  -0.178318  0  3.950678  0
C  C62  1  0.50529786  0.15585284  0.50616276  1  0.006042  0  0.018563  0.116454  0  3.992565  0
C  C63  1  0.49858990  0.84152618  0.51248975  1  -0.010919  0  0.017955  0.11497  0  3.99211  0
C  C64  1  0.55718648  0.19104415  0.54901464  1  0.018009  0  -0.076122  -0.176217  0  3.943337  0
C  C65  1  0.45259524  0.80428078  0.46603745  1  -0.03133  0  -0.07656  -0.176074  0  3.941463  0
C  C66  1  0.55673831  0.26678049  0.54720148  1  0.43975  0  0.063378  0.110711  0  3.91614  0
C  C67  1  0.45433270  0.72851376  0.46904909  1  0.522975  0  0.063782  0.113053  0  3.919758  0
C  C68  1  0.51168624  0.03706573  0.56991034  1  0.000219  0  -0.082259  -0.119095  0  3.98078  0
C  C69  1  0.49054382  0.96053126  0.44844725  1  -0.018462  0  -0.081219  -0.115345  0  3.978814  0
C  C70  1  0.50958318  0.96148156  0.57149184  1  0.022825  0  -0.082302  -0.11778  0  3.978997  0
C  C71  1  0.49217483  0.03620806  0.44686439  1  -0.020812  0  -0.082665  -0.119985  0  3.977409  0
C  C72  1  0.49935347  0.92182931  0.51077472  1  -0.063701  0  -0.004257  0.060908  0  4.000234  0
C  C73  1  0.50312907  0.07568226  0.50755046  1  -0.079012  0  -0.003409  0.065153  0  3.996094  0
C  C74  1  0.73791211  0.48196164  0.49515079  1  -0.001286  0  -0.016386  -0.002846  0  3.996079  0
C  C75  1  0.27192210  0.51566440  0.44190444  1  -0.010787  0  -0.017175  -0.003839  0  4.002672  0
C  C76  1  0.77173089  0.54766309  0.48270171  1  0.006362  0  -0.098558  -0.234151  0  3.995952  0
C  C77  1  0.23553473  0.45569108  0.41565029  1  -0.110633  0  -0.098745  -0.235032  0  3.997726  0
C  C78  1  0.84594269  0.54850057  0.45241624  1  0.427292  0  0.085071  0.268295  0  4.042921  0
C  C79  1  0.15560132  0.46210361  0.39732371  1  0.467677  0  0.083811  0.263058  0  4.039519  0
C  C80  1  0.89129135  0.48240933  0.43421400  1  0.020128  0  -0.006844  -0.01065  0  3.948599  0
C  C81  1  0.10709172  0.52864932  0.40731458  1  -0.059755  0  -0.002774  0.001879  0  3.93214  0
C  C82  1  0.85347687  0.41631845  0.44398990  1  0.031948  0  -0.019948  -0.026015  0  3.975655  0
C  C83  1  0.14743005  0.59073554  0.42754722  1  0.001371  0  -0.020592  -0.027439  0  3.970086  0
C  C84  1  0.77899424  0.41628822  0.47483679  1  -0.106029  0  -0.078083  -0.124098  0  3.945105  0
C  C85  1  0.22814046  0.58346029  0.44490587  1  0.007353  0  -0.081506  -0.125528  0  3.94659  0
C  C86  1  0.97472549  0.47776437  0.41586771  1  -0.033944  0  -0.092336  -0.111398  0  3.973304  0
C  C87  1  0.02086172  0.53411312  0.40543825  1  0.011107  0  -0.09487  -0.115298  0  3.963965  0
C  C88  1  0.89007705  0.34507146  0.41808189  1  0.927087  0  0.094326  0.272102  0  3.974298  0
C  C89  1  0.10666722  0.66558567  0.43306985  1  0.923031  0  0.092929  0.270518  0  3.966707  0
C  C90  1  0.64296809  0.39797805  0.29651861  1  0.943046  0  0.095319  0.277375  0  3.953468  0
C  C91  1  0.37102309  0.61149408  0.72596942  1  0.938121  0  0.094558  0.275744  0  3.962176  0
N  N92  1  0.50741198  0.30846587  0.50578303  1  -1.236884  0  -0.320199  -0.201652  0  3.517137  0
N  N93  1  0.49871163  0.68867068  0.51546952  1  -1.255162  0  -0.321701  -0.201864  0  3.523913  0
O  O94  1  0.47446896  0.43859098  0.60929307  1  -1.170349  0  -0.31919  -0.55038  0  2.322811  0
O  O95  1  0.52728543  0.56714293  0.41008630  1  -1.16178  0  -0.319487  -0.550718  0  2.319198  0
O  O96  1  0.47495949  0.56239885  0.61553328  1  -1.157667  0  -0.311738  -0.546286  0  2.341452  0
O  O97  1  0.53941348  0.44268257  0.40959195  1  -1.15414  0  -0.313376  -0.551762  0  2.342072  0
O  O98  1  0.62545898  0.42379349  0.53284368  1  -1.173221  0  -0.322991  -0.554727  0  2.300586  0
O  O99  1  0.38614108  0.56530533  0.48538210  1  -1.169361  0  -0.315681  -0.548167  0  2.340917  0
O  O100  1  0.62001179  0.54793275  0.53309464  1  -1.178218  0  -0.328217  -0.563654  0  2.323498  0
O  O101  1  0.38921644  0.44197198  0.47255651  1  -1.169252  0  -0.318097  -0.551792  0  2.306802  0
O  O102  1  0.86924744  0.28534810  0.43544166  1  -1.072992  0  -0.27807  -0.364608  0  2.081657  0
O  O103  1  0.14010902  0.71941194  0.45093626  1  -1.071637  0  -0.282056  -0.370899  0  2.081089  0
O  O104  1  0.12088501  0.40323370  0.37040149  1  -1.113958  0  -0.345468  -0.438674  0  2.2891  0
O  O105  1  0.87732823  0.61417564  0.44146045  1  -1.124855  0  -0.342334  -0.434814  0  2.305488  0
O  O106  1  0.67305348  0.34398166  0.26611837  1  -1.083147  0  -0.282847  -0.372655  0  2.082515  0
O  O107  1  0.34675095  0.66710970  0.75709169  1  -1.082202  0  -0.284314  -0.375614  0  2.084673  0
