# generated using pymatgen
data_CuH4C3N4O3
_symmetry_space_group_name_H-M   'P 1'
_cell_length_a   8.16098699
_cell_length_b   12.92581694
_cell_length_c   12.92649405
_cell_angle_alpha   115.65119440
_cell_angle_beta   102.21490962
_cell_angle_gamma   102.13540269
_symmetry_Int_Tables_number   1
_chemical_formula_structural   CuH4C3N4O3
_chemical_formula_sum   'Cu6 H24 C18 N24 O18'
_cell_volume   1128.67808761
_cell_formula_units_Z   6
loop_
 _symmetry_equiv_pos_site_id
 _symmetry_equiv_pos_as_xyz
  1  'x, y, z'
loop_
 _atom_site_type_symbol
 _atom_site_label
 _atom_site_symmetry_multiplicity
 _atom_site_fract_x
 _atom_site_fract_y
 _atom_site_fract_z
 _atom_site_occupancy
 _atom_site_hle17_ddec_charge
 _atom_site_hle17_ddec_spin_density
 _atom_site_hle17_ddec_sum_bond_order
 _atom_site_hle17_magmom
 _atom_site_hse06_10hf_ddec_charge
 _atom_site_hse06_10hf_ddec_spin_density
 _atom_site_hse06_10hf_ddec_sum_bond_order
 _atom_site_hse06_10hf_magmom
 _atom_site_hse06_ddec_charge
 _atom_site_hse06_ddec_spin_density
 _atom_site_hse06_ddec_sum_bond_order
 _atom_site_hse06_magmom
 _atom_site_pbe_cm5_charge
 _atom_site_pbe_ddec_charge
 _atom_site_pbe_ddec_spin_density
 _atom_site_pbe_ddec_sum_bond_order
 _atom_site_pbe_magmom
Cu  Cu0  1  0.24885152  0.53256801  0.58526248  1  0.843448  -0.687007  1.850987  -0.506  0.80856  -0.787577  2.247662  -0.631  0.892881  -0.869108  2.188441  -0.721  0.782819  0.753813  -0.692839  2.290007  -0.543
Cu  Cu1  1  0.71603162  0.05295391  0.46735827  1  0.843691  0.684788  1.848227  0.505  0.809166  0.787616  2.24445  0.631  0.893734  0.868505  2.185164  0.72  0.782274  0.75406  0.696645  2.286927  0.546
Cu  Cu2  1  0.66293865  0.41420936  0.94685966  1  0.842402  -0.691811  1.848328  -0.51  0.807079  -0.7897  2.244706  -0.633  0.891784  -0.869315  2.185118  -0.721  0.782373  0.752945  -0.704794  2.286492  -0.553
Cu  Cu3  1  0.75114853  0.46742077  0.41473254  1  0.843437  0.687046  1.851181  0.506  0.808594  0.787579  2.247869  0.631  0.892936  0.869107  2.188627  0.721  0.782901  0.753914  0.69284  2.290089  0.543
Cu  Cu4  1  0.28397452  0.94704766  0.53265237  1  0.843624  -0.68481  1.848333  -0.505  0.809096  -0.787631  2.244493  -0.631  0.893656  -0.868521  2.185233  -0.72  0.782291  0.754046  -0.696661  2.286949  -0.546
Cu  Cu5  1  0.33706474  0.58580591  0.05314404  1  0.842349  0.691822  1.848237  0.51  0.806947  0.789719  2.244739  0.633  0.891716  0.869334  2.185092  0.721  0.782291  0.75279  0.704819  2.286536  0.553
H  H6  1  0.34073699  0.35273764  0.36995665  1  0.430128  0.000264  0.868681  0.0  0.402703  0.000377  0.925856  0.0  0.416007  0.000232  0.906471  0.0  0.289912  0.393392  0.000466  0.939453  0.0
H  H7  1  0.98890721  0.01774087  0.64769041  1  0.431947  -0.000252  0.8672  0.0  0.404105  -0.000373  0.925137  0.0  0.417494  -0.000232  0.905623  0.0  0.290716  0.394674  -0.000453  0.93892  0.0
H  H8  1  0.97051710  0.63003644  0.98262047  1  0.429987  0.000268  0.869491  0.0  0.40213  0.000381  0.92753  0.0  0.415487  0.000234  0.908073  0.0  0.289455  0.392807  0.000469  0.941133  0.0
H  H9  1  0.65926799  0.64726118  0.63004646  1  0.430076  -0.000265  0.868688  0.0  0.402638  -0.000376  0.925893  0.0  0.415944  -0.000232  0.906505  0.0  0.289874  0.393329  -0.000465  0.939488  0.0
H  H10  1  0.01108856  0.98225521  0.35231947  1  0.431987  0.000253  0.867163  0.0  0.404134  0.000373  0.925116  0.0  0.417527  0.000231  0.905595  0.0  0.290722  0.394705  0.000453  0.938897  0.0
H  H11  1  0.02948327  0.36996512  0.01737463  1  0.43  -0.000268  0.869496  0.0  0.402139  -0.000381  0.92754  0.0  0.415498  -0.000234  0.90808  0.0  0.289417  0.39281  -0.00047  0.94115  0.0
H  H12  1  0.14826562  0.36659789  0.32538467  1  0.440922  7.2e-05  0.827609  0.0  0.419393  6.1e-05  0.881532  0.0  0.430004  4.6e-05  0.865873  0.0  0.307863  0.411898  7e-05  0.892605  0.0
H  H13  1  0.78273328  0.96011446  0.63432613  1  0.439282  6.5e-05  0.828653  0.0  0.417988  1.7e-05  0.882913  0.0  0.42856  2e-06  0.867314  0.0  0.308141  0.410529  3.9e-05  0.893923  0.0
H  H14  1  0.82205256  0.67420518  0.04023445  1  0.438233  -3.9e-05  0.826844  0.0  0.417168  2e-06  0.883096  0.0  0.427691  8e-06  0.867578  0.0  0.307504  0.409755  -8e-06  0.894045  0.0
H  H15  1  0.85174251  0.63340185  0.67461388  1  0.440983  -7.3e-05  0.827507  0.0  0.41941  -6.1e-05  0.8815  0.0  0.430023  -4.6e-05  0.865841  0.0  0.307898  0.411914  -7e-05  0.892576  0.0
H  H16  1  0.21726614  0.03987340  0.36567381  1  0.439169  -6.4e-05  0.828529  0.0  0.417926  -1.7e-05  0.882941  0.0  0.428496  -3e-06  0.867342  0.0  0.308127  0.410469  -4e-05  0.893953  0.0
H  H17  1  0.17795554  0.32580187  0.95976489  1  0.438293  3.9e-05  0.826779  0.0  0.417214  -2e-06  0.883046  0.0  0.42774  -8e-06  0.867523  0.0  0.307509  0.409799  8e-06  0.894002  0.0
H  H18  1  0.71395679  0.69938282  0.42422948  1  0.317616  0.000123  0.909547  0.0  0.302726  -3.4e-05  0.976754  0.0  0.308789  -5e-05  0.972142  0.0  0.302848  0.298351  -1.4e-05  0.980142  0.0
H  H19  1  0.01533237  0.72447153  0.30126785  1  0.318878  -0.000136  0.907614  0.0  0.303816  9e-06  0.975148  0.0  0.309861  3.6e-05  0.970506  0.0  0.303264  0.299482  -1.5e-05  0.978502  0.0
H  H20  1  0.29305893  0.57767328  0.27622068  1  0.316981  -1.5e-05  0.91074  0.0  0.301881  -7e-05  0.978416  0.0  0.307867  -9.2e-05  0.97386  0.0  0.301532  0.297654  -4.1e-05  0.981632  0.0
H  H21  1  0.28604038  0.30060505  0.57576240  1  0.317647  -0.000121  0.909684  0.0  0.302775  3.4e-05  0.97685  0.0  0.308831  5e-05  0.972245  0.0  0.302837  0.298401  1.4e-05  0.980241  0.0
H  H22  1  0.98467846  0.27551634  0.69872990  1  0.318827  0.000137  0.907682  0.0  0.303809  -9e-06  0.975173  0.0  0.309836  -3.6e-05  0.970561  0.0  0.303243  0.299494  1.5e-05  0.9785  0.0
H  H23  1  0.70692822  0.42232463  0.72377402  1  0.316751  1.6e-05  0.911008  0.0  0.301685  7e-05  0.978643  0.0  0.307669  9.2e-05  0.974084  0.0  0.30148  0.297463  4.1e-05  0.981866  0.0
H  H24  1  0.85242700  0.84392204  0.48542578  1  0.338012  -0.000283  0.932704  -0.001  0.321778  -0.000135  0.995011  0.0  0.329422  -9.5e-05  0.989259  0.0  0.293219  0.316296  -0.000155  0.999065  0.0
H  H25  1  0.00846476  0.64142811  0.15643456  1  0.336909  0.000305  0.934534  0.001  0.321359  0.00014  0.996006  0.0  0.329052  0.0001  0.990177  0.0  0.292261  0.31577  0.000159  1.000254  0.0
H  H26  1  0.36862124  0.51513835  0.35865363  1  0.33756  -0.000252  0.932799  0.0  0.32116  -0.000175  0.995631  0.0  0.328873  -0.000154  0.989755  0.0  0.291723  0.315571  -0.000182  0.999881  0.0
H  H27  1  0.14757136  0.15607130  0.51457712  1  0.338029  0.000283  0.932626  0.001  0.321741  0.000135  0.995025  0.0  0.329384  9.4e-05  0.989274  0.0  0.293203  0.316261  0.000155  0.999084  0.0
H  H28  1  0.99154131  0.35857254  0.84356408  1  0.336906  -0.000306  0.934483  -0.001  0.321354  -0.00014  0.995961  0.0  0.329048  -0.0001  0.990129  0.0  0.292247  0.315764  -0.000159  1.000207  0.0
H  H29  1  0.63137335  0.48486687  0.64134450  1  0.337528  0.000251  0.932893  0.0  0.321134  0.000175  0.995705  0.0  0.328848  0.000154  0.989828  0.0  0.291753  0.315554  0.000182  0.999938  0.0
C  C30  1  0.97446730  0.72111428  0.47661570  1  0.576046  -0.003468  3.795736  -0.003  0.539836  -0.001533  4.073679  -0.001  0.567085  -0.001508  4.079751  -0.001  0.328862  0.521633  -0.001394  4.069663  -0.001
C  C31  1  0.25354133  0.75529915  0.27916071  1  0.572118  0.003774  3.794956  0.004  0.535345  0.001647  4.074174  0.001  0.562634  0.001591  4.080231  0.002  0.326128  0.517113  0.001579  4.070201  0.001
C  C32  1  0.49957104  0.52391456  0.24467774  1  0.574995  -0.002179  3.795645  -0.002  0.53742  0.000733  4.07574  0.001  0.56436  -0.000469  4.0822  -0.001  0.328817  0.519829  0.001573  4.070988  0.002
C  C33  1  0.02552790  0.27887998  0.52338326  1  0.576141  0.003435  3.795585  0.003  0.539821  0.001534  4.073694  0.001  0.567068  0.001509  4.079766  0.001  0.328868  0.521649  0.001394  4.069628  0.001
C  C34  1  0.74646033  0.24470333  0.72084735  1  0.572226  -0.003763  3.794621  -0.004  0.535373  -0.001645  4.073961  -0.001  0.562663  -0.001591  4.08001  -0.002  0.326114  0.517132  -0.001578  4.069999  -0.001
C  C35  1  0.50043354  0.47608792  0.75531836  1  0.574761  0.002192  3.796138  0.002  0.53729  -0.000733  4.076105  -0.001  0.564219  0.00047  4.082562  0.001  0.328703  0.519705  -0.001571  4.071354  -0.002
C  C36  1  0.24062297  0.72688515  0.54741318  1  0.18697  0.007749  3.800497  0.007  0.169589  0.002411  4.070125  0.002  0.181459  0.002716  4.082627  0.003  0.200208  0.161905  0.002201  4.06214  0.002
C  C37  1  0.51355825  0.82058856  0.27322458  1  0.187788  -0.007936  3.795181  -0.008  0.170534  -0.00236  4.064803  -0.002  0.18246  -0.002663  4.077315  -0.003  0.201242  0.162781  -0.002204  4.056923  -0.002
C  C38  1  0.69364777  0.45211421  0.17937118  1  0.185547  0.003422  3.801124  0.003  0.168774  0.002561  4.070238  0.002  0.180898  0.002207  4.082586  0.002  0.200093  0.160701  0.002868  4.062517  0.003
C  C39  1  0.75936845  0.27311184  0.45259027  1  0.186823  -0.00778  3.800645  -0.007  0.169464  -0.002413  4.070252  -0.002  0.181337  -0.002718  4.082752  -0.003  0.200235  0.161798  -0.002204  4.062241  -0.002
C  C40  1  0.48644879  0.17941940  0.72678274  1  0.187805  0.007941  3.795175  0.008  0.170643  0.002362  4.064625  0.002  0.182544  0.002664  4.077165  0.003  0.201337  0.162916  0.002205  4.056725  0.002
C  C41  1  0.30636002  0.54789466  0.82062812  1  0.185426  -0.003425  3.800709  -0.003  0.168669  -0.002559  4.069798  -0.002  0.180782  -0.002206  4.082151  -0.002  0.200031  0.160615  -0.002865  4.06206  -0.003
C  C42  1  0.43507138  0.75848468  0.60390568  1  0.604658  0.004501  3.94949  0.007  0.562766  0.000446  4.25711  0.002  0.598343  0.000257  4.248474  0.001  0.211758  0.538131  0.000556  4.26247  0.003
C  C43  1  0.67615305  0.84562257  0.24146147  1  0.602578  -0.004483  3.949197  -0.007  0.560673  -0.000446  4.256857  -0.002  0.596242  -0.000253  4.24831  -0.001  0.210755  0.536056  -0.000567  4.262152  -0.003
C  C44  1  0.83136860  0.39551067  0.15424733  1  0.600379  0.004323  3.954231  0.007  0.558582  0.00056  4.261314  0.003  0.594122  0.000406  4.252889  0.002  0.208928  0.534043  0.000594  4.266426  0.003
C  C45  1  0.56491888  0.24149679  0.39608091  1  0.604573  -0.004493  3.950048  -0.007  0.562763  -0.000444  4.25754  -0.002  0.598336  -0.000256  4.248905  -0.001  0.211691  0.53812  -0.000554  4.262901  -0.003
C  C46  1  0.32386001  0.15439544  0.75855875  1  0.602573  0.004481  3.949549  0.007  0.560672  0.000446  4.257111  0.002  0.596247  0.000252  4.248567  0.001  0.210698  0.536046  0.000565  4.262413  0.003
C  C47  1  0.16860728  0.60448267  0.84574996  1  0.600347  -0.004318  3.953924  -0.007  0.558584  -0.000559  4.260979  -0.003  0.594127  -0.000405  4.252558  -0.002  0.208943  0.534044  -0.000594  4.266088  -0.003
N  N48  1  0.96257088  0.61350092  0.47324808  1  -0.329609  0.067991  3.186494  0.087  -0.299696  0.052025  3.508432  0.071  -0.331461  0.043977  3.529077  0.063  -0.272195  -0.279338  0.052545  3.496068  0.069
N  N49  1  0.34940476  0.85939195  0.38685073  1  -0.328773  -0.06759  3.186343  -0.087  -0.298328  -0.051988  3.508139  -0.071  -0.330325  -0.0439  3.529093  -0.063  -0.271399  -0.277778  -0.052517  3.495595  -0.069
N  N50  1  0.49074249  0.52739800  0.14048739  1  -0.329696  0.075261  3.18931  0.096  -0.297473  0.055975  3.509992  0.076  -0.328836  0.047128  3.530681  0.067  -0.271428  -0.278176  0.057649  3.497859  0.075
N  N51  1  0.03741022  0.38648968  0.52673951  1  -0.329779  -0.067977  3.186541  -0.087  -0.299752  -0.052031  3.508465  -0.071  -0.331521  -0.043981  3.529115  -0.063  -0.272187  -0.279384  -0.05255  3.496094  -0.069
N  N52  1  0.65059610  0.14060413  0.61315757  1  -0.32864  0.067584  3.18631  0.087  -0.298203  0.051992  3.508181  0.071  -0.330212  0.043904  3.529147  0.063  -0.271301  -0.277632  0.052522  3.495609  0.069
N  N53  1  0.50926886  0.47261544  0.85951361  1  -0.329671  -0.075253  3.189497  -0.096  -0.29755  -0.055967  3.510221  -0.076  -0.328894  -0.047124  3.53091  -0.067  -0.271414  -0.278249  -0.057641  3.498086  -0.075
N  N54  1  0.83545906  0.75186129  0.43534531  1  -0.69467  -0.001719  3.036167  -0.002  -0.670083  -0.001145  3.273221  -0.001  -0.690107  -0.00097  3.267992  -0.001  -0.59303  -0.655884  -0.001162  3.27679  -0.001
N  N55  1  0.08395000  0.68316971  0.24847159  1  -0.694133  0.001621  3.034203  0.002  -0.670255  0.001143  3.270731  0.001  -0.690249  0.000973  3.26544  0.001  -0.592176  -0.656145  0.001142  3.274425  0.001
N  N56  1  0.40282994  0.56564768  0.31719927  1  -0.69388  -0.001201  3.03471  -0.001  -0.669624  -0.001891  3.272683  -0.002  -0.68961  -0.001841  3.267597  -0.002  -0.590992  -0.655485  -0.001726  3.275918  -0.002
N  N57  1  0.16453833  0.24813479  0.56465398  1  -0.694755  0.001717  3.036206  0.002  -0.670116  0.001145  3.273353  0.001  -0.690127  0.00097  3.268128  0.001  -0.592982  -0.655936  0.001161  3.276914  0.001
N  N58  1  0.91605579  0.31682546  0.75152622  1  -0.694185  -0.001614  3.034039  -0.002  -0.670325  -0.001143  3.270595  -0.001  -0.690305  -0.000972  3.265334  -0.001  -0.592186  -0.656228  -0.001142  3.274252  -0.001
N  N59  1  0.59716723  0.43435480  0.68279265  1  -0.693587  0.001201  3.035013  0.001  -0.669386  0.001891  3.272932  0.002  -0.689365  0.001841  3.267849  0.002  -0.59095  -0.655254  0.001726  3.27617  0.002
N  N60  1  0.13152460  0.61928790  0.51880650  1  -0.229842  -0.061609  3.312633  -0.079  -0.208921  -0.043838  3.63866  -0.059  -0.231161  -0.03696  3.659337  -0.052  -0.27299  -0.195067  -0.044544  3.626722  -0.058
N  N61  1  0.51248334  0.89928397  0.38105034  1  -0.229666  0.061632  3.306574  0.079  -0.208996  0.04392  3.632543  0.059  -0.231156  0.037034  3.653439  0.052  -0.273452  -0.195542  0.04511  3.620568  0.059
N  N62  1  0.61326451  0.48102469  0.10046594  1  -0.227827  -0.05231  3.309441  -0.068  -0.208031  -0.03979  3.63536  -0.054  -0.230994  -0.034383  3.656668  -0.049  -0.272512  -0.193395  -0.039855  3.622568  -0.053
N  N63  1  0.86846016  0.38069997  0.48117969  1  -0.229594  0.061615  3.313046  0.079  -0.208747  0.043835  3.639108  0.059  -0.230982  0.03696  3.659781  0.052  -0.27299  -0.194919  0.044543  3.627159  0.058
N  N64  1  0.48752060  0.10071576  0.61895998  1  -0.229729  -0.061628  3.306707  -0.079  -0.209115  -0.043918  3.632696  -0.059  -0.231265  -0.037033  3.653604  -0.052  -0.273531  -0.195677  -0.045107  3.62073  -0.059
N  N65  1  0.38673595  0.51897962  0.89953111  1  -0.227799  0.052323  3.309086  0.068  -0.207998  0.039792  3.635058  0.054  -0.230977  0.034383  3.656368  0.049  -0.272512  -0.193362  0.03986  3.622262  0.053
N  N66  1  0.14860719  0.79373875  0.52119385  1  -0.490925  -0.053574  3.197414  -0.069  -0.452157  -0.039644  3.500252  -0.053  -0.484078  -0.032934  3.507548  -0.046  -0.379449  -0.431861  -0.040937  3.496536  -0.053
N  N67  1  0.35471595  0.72753480  0.20634370  1  -0.487445  0.05465  3.192664  0.07  -0.448336  0.039507  3.495414  0.053  -0.480238  0.032677  3.502581  0.046  -0.378146  -0.428574  0.041825  3.492049  0.054
N  N68  1  0.62842570  0.47855263  0.27241967  1  -0.48652  0.062851  3.198649  0.081  -0.448299  0.044383  3.502715  0.06  -0.48008  0.03741  3.50986  0.053  -0.378563  -0.428262  0.045511  3.499068  0.059
N  N69  1  0.85139195  0.20626098  0.47880957  1  -0.490905  0.053594  3.197387  0.069  -0.45215  0.039648  3.500335  0.053  -0.484075  0.032938  3.507624  0.046  -0.379505  -0.431856  0.040944  3.496573  0.053
N  N70  1  0.64528080  0.27247498  0.79366056  1  -0.487456  -0.054639  3.192508  -0.07  -0.448328  -0.039502  3.495209  -0.053  -0.480196  -0.032673  3.50237  -0.046  -0.37812  -0.428595  -0.041822  3.491865  -0.054
N  N71  1  0.37157307  0.52144071  0.72757169  1  -0.486306  -0.062851  3.198826  -0.081  -0.448094  -0.044382  3.502811  -0.06  -0.479841  -0.037412  3.509924  -0.053  -0.378508  -0.428079  -0.045507  3.499212  -0.059
O  O72  1  0.47027829  0.67568170  0.62814275  1  -0.594064  -0.090089  2.047595  -0.124  -0.561523  -0.059123  2.306348  -0.088  -0.604682  -0.044505  2.297219  -0.069  -0.317682  -0.532885  -0.065593  2.312964  -0.094
O  O73  1  0.79389369  0.95278053  0.32406198  1  -0.592701  0.088754  2.047661  0.122  -0.559647  0.058804  2.306027  0.087  -0.602928  0.044319  2.29701  0.069  -0.316432  -0.530916  0.065019  2.3126  0.093
O  O74  1  0.84181147  0.37122791  0.04713718  1  -0.590911  -0.090315  2.046895  -0.124  -0.558189  -0.059277  2.305256  -0.088  -0.601767  -0.044555  2.296426  -0.069  -0.315314  -0.529201  -0.065906  2.311487  -0.094
O  O75  1  0.52972058  0.32431712  0.37185483  1  -0.594087  0.090117  2.047504  0.124  -0.561615  0.059137  2.306242  0.088  -0.604781  0.044515  2.297114  0.069  -0.317684  -0.532987  0.065608  2.312852  0.094
O  O76  1  0.20611066  0.04722742  0.67595035  1  -0.592636  -0.08879  2.04744  -0.122  -0.559588  -0.058818  2.305759  -0.087  -0.602872  -0.044325  2.296755  -0.069  -0.316374  -0.530853  -0.065034  2.312338  -0.093
O  O77  1  0.15818347  0.62878279  0.95286024  1  -0.590751  0.090255  2.046967  0.124  -0.558049  0.05925  2.305325  0.088  -0.60163  0.044536  2.29649  0.069  -0.315247  -0.529069  0.065872  2.311564  0.094
O  O78  1  0.54624547  0.85294036  0.62370191  1  -0.557071  -0.015671  1.901985  -0.021  -0.537122  -0.006946  2.123801  -0.01  -0.561087  -0.002771  2.112301  -0.005  -0.30517  -0.519202  -0.012019  2.13098  -0.017
O  O79  1  0.69272105  0.77093579  0.14701211  1  -0.558152  0.015767  1.901126  0.021  -0.538456  0.007016  2.122989  0.01  -0.562456  0.002802  2.111519  0.005  -0.306685  -0.520608  0.012056  2.130176  0.017
O  O80  1  0.92313342  0.37589455  0.22899063  1  -0.555949  -0.016489  1.905387  -0.021  -0.535633  -0.008331  2.126746  -0.011  -0.559737  -0.004255  2.11534  -0.006  -0.303883  -0.517613  -0.012958  2.133789  -0.017
O  O81  1  0.45377540  0.14706487  0.37630162  1  -0.556864  0.015636  1.902642  0.021  -0.536924  0.006939  2.124447  0.01  -0.560883  0.002769  2.11295  0.005  -0.305054  -0.519005  0.012003  2.131623  0.017
O  O82  1  0.30729475  0.22908404  0.85299227  1  -0.558168  -0.015747  1.901724  -0.021  -0.538486  -0.007012  2.123584  -0.01  -0.562479  -0.002801  2.112106  -0.005  -0.306701  -0.520637  -0.012049  2.130779  -0.017
O  O83  1  0.07685131  0.62410519  0.77099211  1  -0.556115  0.01649  1.905161  0.021  -0.535772  0.00833  2.126459  0.011  -0.559877  0.004255  2.11505  0.006  -0.303936  -0.517751  0.012957  2.13351  0.017
O  O84  1  0.26469651  0.40483408  0.39074628  1  -0.842891  0.000836  1.898902  0.0  -0.798775  5.4e-05  2.07856  -0.001  -0.822231  0.000392  2.043203  0.0  -0.577376  -0.782035  -0.000265  2.103339  -0.001
O  O85  1  0.86059764  0.98704019  0.59591319  1  -0.843105  -0.00094  1.899594  0.0  -0.799224  -2.1e-05  2.079882  0.001  -0.822717  -0.000429  2.044462  0.0  -0.578081  -0.782245  0.000505  2.104724  0.001
O  O86  1  0.87322695  0.60896150  0.01345103  1  -0.839271  0.000984  1.899288  0.0  -0.795745  0.000132  2.081368  -0.001  -0.819246  0.000499  2.046031  0.0  -0.575789  -0.779002  -0.000389  2.106055  -0.001
O  O87  1  0.73531295  0.59516566  0.60925015  1  -0.842878  -0.00083  1.898758  0.0  -0.79873  -5.3e-05  2.078558  0.001  -0.822189  -0.000392  2.043195  0.0  -0.577386  -0.781994  0.000267  2.103315  0.001
O  O88  1  0.13939945  0.01294584  0.40409027  1  -0.843021  0.000938  1.89948  0.0  -0.79917  2.1e-05  2.079846  -0.001  -0.822659  0.000431  2.044432  0.0  -0.578036  -0.7822  -0.000504  2.104683  -0.001
O  O89  1  0.12677543  0.39104190  0.98654978  1  -0.839327  -0.000986  1.899228  0.0  -0.795793  -0.000134  2.081333  0.001  -0.819306  -0.000499  2.045995  0.0  -0.575758  -0.779047  0.000387  2.106024  0.001
