# generated using pymatgen
data_CoAgH9C11NO5
_symmetry_space_group_name_H-M   'P 1'
_cell_length_a   5.92752444
_cell_length_b   7.64978226
_cell_length_c   13.07809189
_cell_angle_alpha   103.74642929
_cell_angle_beta   99.30759582
_cell_angle_gamma   92.34613869
_symmetry_Int_Tables_number   1
_chemical_formula_structural   CoAgH9C11NO5
_chemical_formula_sum   'Co2 Ag2 H18 C22 N2 O10'
_cell_volume   566.49494362
_cell_formula_units_Z   2
loop_
 _symmetry_equiv_pos_site_id
 _symmetry_equiv_pos_as_xyz
  1  'x, y, z'
loop_
 _atom_site_type_symbol
 _atom_site_label
 _atom_site_symmetry_multiplicity
 _atom_site_fract_x
 _atom_site_fract_y
 _atom_site_fract_z
 _atom_site_occupancy
 _atom_site_hle17_bader_spin_density
 _atom_site_hle17_ddec_charge
 _atom_site_hle17_ddec_spin_density
 _atom_site_hle17_ddec_sum_bond_order
 _atom_site_hle17_magmom
 _atom_site_hse06_10hf_bader_spin_density
 _atom_site_hse06_10hf_ddec_charge
 _atom_site_hse06_10hf_ddec_spin_density
 _atom_site_hse06_10hf_ddec_sum_bond_order
 _atom_site_hse06_10hf_magmom
 _atom_site_hse06_bader_spin_density
 _atom_site_hse06_ddec_charge
 _atom_site_hse06_ddec_spin_density
 _atom_site_hse06_ddec_sum_bond_order
 _atom_site_hse06_magmom
 _atom_site_pbe_bader_spin_density
 _atom_site_pbe_cm5_charge
 _atom_site_pbe_ddec_charge
 _atom_site_pbe_ddec_spin_density
 _atom_site_pbe_ddec_sum_bond_order
 _atom_site_pbe_magmom
Co  Co0  1  0.02099644  0.87480826  0.22951493  1  0  0.197138  0  3.270205  0  0  0.34493  0  3.611194  0  0  0.348676  0  3.601384  0  0  0.587679  0.350384  0  3.612849  0
Co  Co1  1  0.97900640  0.12518634  0.77048332  1  0  0.196931  0  3.270237  0  0  0.344735  0  3.611213  0  0  0.348389  0  3.601429  0  0  0.58755  0.350159  0  3.612871  0
Ag  Ag2  1  0.67698091  0.42519467  0.44776046  1  0  0.60681  0  1.322492  0  0  0.483894  0  1.776283  0  0  0.522543  0  1.711929  0  0  0.415939  0.456987  0  1.821147  0
Ag  Ag3  1  0.32300128  0.57478103  0.55222593  1  0  0.606905  0  1.322325  0  0  0.484031  0  1.776057  0  0  0.522563  0  1.711808  0  0  0.416019  0.457125  0  1.820907  0
H  H4  1  0.71267248  0.00436213  0.08296355  1  0  0.13012  0  0.943835  0  0  0.140442  0  1.003963  0  0  0.143976  0  1.001899  0  0  0.116469  0.138006  0  1.005453  0
H  H5  1  0.28733984  0.99562445  0.91702891  1  0  0.130187  0  0.943781  0  0  0.140439  0  1.003992  0  0  0.143959  0  1.001958  0  0  0.116484  0.138  0  1.005486  0
H  H6  1  0.79706120  0.65188767  0.03380170  1  0  0.135616  0  0.938224  0  0  0.146675  0  0.995841  0  0  0.150232  0  0.993599  0  0  0.118699  0.144089  0  0.997703  0
H  H7  1  0.20296018  0.34810428  0.96619907  1  0  0.135587  0  0.938238  0  0  0.146738  0  0.995747  0  0  0.150308  0  0.99348  0  0  0.118716  0.14415  0  0.997609  0
H  H8  1  0.25502427  0.63293016  0.10082754  1  0  0.133982  0  0.943941  0  0  0.143528  0  1.003515  0  0  0.14738  0  1.000595  0  0  0.11793  0.140677  0  1.005948  0
H  H9  1  0.74500027  0.36707661  0.89917940  1  0  0.134029  0  0.943948  0  0  0.143555  0  1.003529  0  0  0.14739  0  1.000636  0  0  0.117915  0.140697  0  1.005979  0
H  H10  1  0.44459661  0.97517830  0.18771239  1  0  0.126368  0  0.945535  0  0  0.138476  0  1.004726  0  0  0.140603  0  1.005054  0  0  0.118472  0.137064  0  1.004468  0
H  H11  1  0.55542281  0.02482846  0.81229340  1  0  0.126326  0  0.945541  0  0  0.138439  0  1.004719  0  0  0.140555  0  1.005062  0  0  0.118495  0.137026  0  1.004462  0
H  H12  1  0.10780480  0.20184140  0.17905042  1  0  0.140742  0  0.934096  0  0  0.151723  0  0.99115  0  0  0.155156  0  0.989184  0  0  0.120576  0.149173  0  0.992918  0
H  H13  1  0.89220883  0.79815862  0.82095093  1  0  0.140735  0  0.934076  0  0  0.151712  0  0.99115  0  0  0.155119  0  0.989231  0  0  0.120566  0.14916  0  0.992917  0
H  H14  1  0.71700839  0.07010648  0.34645374  1  0  0.142478  0  0.967161  0  0  0.151157  0  1.031606  0  0  0.155507  0  1.027773  0  0  0.114588  0.148027  0  1.034511  0
H  H15  1  0.28297301  0.92987864  0.65353774  1  0  0.142409  0  0.967222  0  0  0.151026  0  1.031771  0  0  0.155361  0  1.027959  0  0  0.114545  0.147901  0  1.034666  0
H  H16  1  0.62706731  0.70716786  0.27124749  1  0  0.127091  0  0.964237  0  0  0.139598  0  1.021814  0  0  0.142066  0  1.021721  0  0  0.115851  0.137848  0  1.022043  0
H  H17  1  0.37290939  0.29282132  0.72874116  1  0  0.127193  0  0.964312  0  0  0.139553  0  1.02209  0  0  0.141989  0  1.022032  0  0  0.11581  0.137809  0  1.022297  0
H  H18  1  0.02738745  0.55285006  0.29674955  1  0  0.144068  0  0.93073  0  0  0.155991  0  0.98646  0  0  0.159289  0  0.984659  0  0  0.122368  0.153603  0  0.988005  0
H  H19  1  0.97258905  0.44713768  0.70324806  1  0  0.143951  0  0.930802  0  0  0.155929  0  0.986471  0  0  0.159203  0  0.984721  0  0  0.122351  0.153539  0  0.988014  0
H  H20  1  0.36548251  0.82037173  0.38980013  1  0  0.137921  0  0.944669  0  0  0.1508  0  1.001955  0  0  0.153991  0  1.000232  0  0  0.118215  0.148591  0  1.003327  0
H  H21  1  0.63450525  0.17960924  0.61020347  1  0  0.137979  0  0.944771  0  0  0.15083  0  1.002065  0  0  0.154019  0  1.000341  0  0  0.118212  0.148581  0  1.003482  0
C  C22  1  0.87839301  0.95043502  0.09607269  1  0  -0.066414  0  3.628193  0  0  -0.098948  0  3.902523  0  0  -0.100666  0  3.917716  0  0  -0.11762  -0.098674  0  3.89316  0
C  C23  1  0.12162921  0.04956508  0.90392395  1  0  -0.066567  0  3.628078  0  0  -0.099014  0  3.902378  0  0  -0.100727  0  3.917569  0  0  -0.117646  -0.098735  0  3.893003  0
C  C24  1  0.92552928  0.76432266  0.06975016  1  0  -0.068228  0  3.600684  0  0  -0.101286  0  3.869908  0  0  -0.103611  0  3.885505  0  0  -0.116871  -0.100756  0  3.860516  0
C  C25  1  0.07451105  0.23567071  0.93025069  1  0  -0.068043  0  3.600239  0  0  -0.101157  0  3.869373  0  0  -0.103461  0  3.884918  0  0  -0.11683  -0.100622  0  3.859972  0
C  C26  1  0.16634043  0.75503614  0.10317650  1  0  -0.052734  0  3.594763  0  0  -0.082972  0  3.862505  0  0  -0.084289  0  3.87736  0  0  -0.114456  -0.08307  0  3.853582  0
C  C27  1  0.83366725  0.24495574  0.89682554  1  0  -0.052827  0  3.594524  0  0  -0.083035  0  3.862301  0  0  -0.084338  0  3.877132  0  0  -0.11439  -0.083134  0  3.853375  0
C  C28  1  0.26682349  0.93576413  0.15030618  1  0  -0.070362  0  3.599006  0  0  -0.104123  0  3.873673  0  0  -0.106814  0  3.890711  0  0  -0.121551  -0.103279  0  3.862863  0
C  C29  1  0.73318225  0.06424259  0.84969782  1  0  -0.070227  0  3.598722  0  0  -0.10399  0  3.873413  0  0  -0.106674  0  3.890441  0  0  -0.121561  -0.103145  0  3.862601  0
C  C30  1  0.08884051  0.05658955  0.14603885  1  0  -0.061844  0  3.603659  0  0  -0.097709  0  3.879458  0  0  -0.099065  0  3.89474  0  0  -0.119729  -0.09775  0  3.870284  0
C  C31  1  0.91117192  0.94339834  0.85395839  1  0  -0.062  0  3.603172  0  0  -0.09789  0  3.87902  0  0  -0.099254  0  3.894326  0  0  -0.119844  -0.097923  0  3.869838  0
C  C32  1  0.84058435  0.96959941  0.34784739  1  0  -0.083169  0  3.589635  0  0  -0.124918  0  3.862788  0  0  -0.124343  0  3.875254  0  0  -0.121149  -0.126094  0  3.85525  0
C  C33  1  0.15942377  0.03039658  0.65214915  1  0  -0.083132  0  3.589472  0  0  -0.124807  0  3.862552  0  0  -0.12423  0  3.875017  0  0  -0.121083  -0.12598  0  3.855006  0
C  C34  1  0.79363812  0.77850668  0.30806482  1  0  -0.083643  0  3.633247  0  0  -0.118685  0  3.913458  0  0  -0.121458  0  3.928746  0  0  -0.125784  -0.117826  0  3.904043  0
C  C35  1  0.20635855  0.22147715  0.69192609  1  0  -0.08376  0  3.633629  0  0  -0.118744  0  3.913855  0  0  -0.121507  0  3.929149  0  0  -0.125817  -0.11788  0  3.904434  0
C  C36  1  0.00565342  0.69602206  0.32187182  1  0  -0.065866  0  3.626947  0  0  -0.102845  0  3.911345  0  0  -0.103531  0  3.923779  0  0  -0.118609  -0.103371  0  3.904279  0
C  C37  1  0.99432401  0.30395763  0.67812012  1  0  -0.065747  0  3.626917  0  0  -0.102719  0  3.911258  0  0  -0.103416  0  3.923721  0  0  -0.118586  -0.103237  0  3.904166  0
C  C38  1  0.18418517  0.83614739  0.36959994  1  0  -0.081132  0  3.604851  0  0  -0.124282  0  3.881435  0  0  -0.123777  0  3.893404  0  0  -0.119376  -0.125686  0  3.8745  0
C  C39  1  0.81578976  0.16384170  0.63039774  1  0  -0.081244  0  3.605002  0  0  -0.124371  0  3.881603  0  0  -0.123859  0  3.893565  0  0  -0.119425  -0.125735  0  3.874682  0
C  C40  1  0.08316367  0.00647882  0.38582352  1  0  -0.056991  0  3.647743  0  0  -0.046343  0  3.897988  0  0  -0.054114  0  3.914953  0  0  -0.053457  -0.04222  0  3.887687  0
C  C41  1  0.91680718  0.99350354  0.61416908  1  0  -0.05676  0  3.646621  0  0  -0.046157  0  3.896835  0  0  -0.053914  0  3.913789  0  0  -0.053317  -0.042036  0  3.886519  0
C  C42  1  0.21644653  0.18649424  0.42833915  1  0  0.658326  0  3.907343  0  0  0.609535  0  4.183673  0  0  0.646004  0  4.180153  0  0  0.208333  0.584717  0  4.185182  0
C  C43  1  0.78350736  0.81345560  0.57165446  1  0  0.658266  0  3.908864  0  0  0.609558  0  4.185036  0  0  0.646012  0  4.181522  0  0  0.208281  0.584744  0  4.186541  0
N  N44  1  0.54889153  0.35978928  0.18880805  1  0  0.686207  0  4.153927  0  0  0.721266  0  4.447518  0  0  0.749296  0  4.454547  0  0  0.091106  0.702288  0  4.442152  0
N  N45  1  0.45109750  0.64027272  0.81120407  1  0  0.686409  0  4.153711  0  0  0.721263  0  4.447514  0  0  0.747695  0  4.454871  0  0  0.09098  0.702205  0  4.44224  0
O  O46  1  0.43216819  0.18476758  0.43318050  1  0  -0.61668  0  2.090339  0  0  -0.544494  0  2.356006  0  0  -0.577245  0  2.345704  0  0  -0.316592  -0.521437  0  2.362165  0
O  O47  1  0.56786558  0.81521217  0.56682941  1  0  -0.616462  0  2.091609  0  0  -0.544315  0  2.3572  0  0  -0.577057  0  2.346919  0  0  -0.316454  -0.521265  0  2.363361  0
O  O48  1  0.10639327  0.32372039  0.45769195  1  0  -0.604628  0  2.108857  0  0  -0.517521  0  2.375135  0  0  -0.552889  0  2.36503  0  0  -0.312666  -0.492852  0  2.381439  0
O  O49  1  0.89357616  0.67628218  0.54230723  1  0  -0.604697  0  2.109421  0  0  -0.517608  0  2.37563  0  0  -0.552975  0  2.365532  0  0  -0.31274  -0.492942  0  2.381932  0
O  O50  1  0.70282139  0.31038204  0.25463008  1  0  -0.492655  0  1.800023  0  0  -0.469069  0  2.041314  0  0  -0.488845  0  2.033555  0  0  -0.204293  -0.45494  0  2.046399  0
O  O51  1  0.29715234  0.68957743  0.74535338  1  0  -0.49271  0  1.799957  0  0  -0.469061  0  2.041304  0  0  -0.488186  0  2.033548  0  0  -0.204258  -0.454887  0  2.046378  0
O  O52  1  0.39366067  0.45438563  0.22406992  1  0  -0.498937  0  1.739405  0  0  -0.491505  0  1.96084  0  0  -0.506587  0  1.953179  0  0  -0.204983  -0.480701  0  1.965944  0
O  O53  1  0.60631542  0.54560036  0.77597176  1  0  -0.498919  0  1.738667  0  0  -0.491421  0  1.960143  0  0  -0.505851  0  1.952508  0  0  -0.205016  -0.480596  0  1.965276  0
O  O54  1  0.55428654  0.31413119  0.09014598  1  0  -0.463635  0  1.701942  0  0  -0.453401  0  1.901319  0  0  -0.467628  0  1.897153  0  0  -0.19908  -0.442875  0  1.903696  0
O  O55  1  0.44578874  0.68610818  0.90987093  1  0  -0.463765  0  1.702479  0  0  -0.453431  0  1.90194  0  0  -0.466973  0  1.897757  0  0  -0.198964  -0.442902  0  1.904381  0
