# generated using pymatgen
data_CdH17C20(NO)5
_symmetry_space_group_name_H-M   'P 1'
_cell_length_a   8.49832646
_cell_length_b   10.59289106
_cell_length_c   11.83871241
_cell_angle_alpha   64.67224011
_cell_angle_beta   84.18234109
_cell_angle_gamma   76.05809677
_symmetry_Int_Tables_number   1
_chemical_formula_structural   CdH17C20(NO)5
_chemical_formula_sum   'Cd2 H34 C40 N10 O10'
_cell_volume   934.91860152
_cell_formula_units_Z   2
loop_
 _symmetry_equiv_pos_site_id
 _symmetry_equiv_pos_as_xyz
  1  'x, y, z'
loop_
 _atom_site_type_symbol
 _atom_site_label
 _atom_site_symmetry_multiplicity
 _atom_site_fract_x
 _atom_site_fract_y
 _atom_site_fract_z
 _atom_site_occupancy
 _atom_site_hle17_bader_spin_density
 _atom_site_hle17_ddec_charge
 _atom_site_hle17_ddec_spin_density
 _atom_site_hle17_ddec_sum_bond_order
 _atom_site_hle17_magmom
 _atom_site_hse06_10hf_bader_spin_density
 _atom_site_hse06_10hf_ddec_charge
 _atom_site_hse06_10hf_ddec_spin_density
 _atom_site_hse06_10hf_ddec_sum_bond_order
 _atom_site_hse06_10hf_magmom
 _atom_site_hse06_bader_spin_density
 _atom_site_hse06_ddec_charge
 _atom_site_hse06_ddec_spin_density
 _atom_site_hse06_ddec_sum_bond_order
 _atom_site_hse06_magmom
 _atom_site_pbe_bader_spin_density
 _atom_site_pbe_cm5_charge
 _atom_site_pbe_ddec_charge
 _atom_site_pbe_ddec_spin_density
 _atom_site_pbe_ddec_sum_bond_order
 _atom_site_pbe_magmom
Cd  Cd0  1  0.05545998  0.85577511  0.23296915  1  0  1.130936  0  1.668667  0  0  0.936664  0  2.112656  0  0  0.9946  0  2.059828  0  0  0.769431  0.895458  0  2.148698  0
Cd  Cd1  1  0.94453021  0.14422943  0.76703272  1  0  1.131019  0  1.668574  0  0  0.936783  0  2.112542  0  0  0.994725  0  2.059713  0  0  0.769477  0.895576  0  2.148584  0
H  H2  1  0.97510019  0.36971977  0.21135474  1  0  0.081192  0  0.990594  0  0  0.094032  0  1.054322  0  0  0.096035  0  1.054283  0  0  0.094976  0.09252  0  1.054455  0
H  H3  1  0.02489419  0.63027839  0.78865770  1  0  0.081116  0  0.990663  0  0  0.093953  0  1.054419  0  0  0.095959  0  1.054379  0  0  0.094958  0.092441  0  1.054554  0
H  H4  1  0.86768276  0.27563091  0.08281146  1  0  0.111049  0  0.9599  0  0  0.118776  0  1.024572  0  0  0.122488  0  1.022072  0  0  0.098964  0.116179  0  1.026195  0
H  H5  1  0.13234072  0.72435870  0.91719167  1  0  0.111096  0  0.959853  0  0  0.118827  0  1.024504  0  0  0.122539  0  1.022006  0  0  0.09896  0.116233  0  1.026128  0
H  H6  1  0.65820765  0.43917787  0.91972830  1  0  0.083297  0  0.966394  0  0  0.09374  0  1.027254  0  0  0.09626  0  1.027152  0  0  0.093513  0.092057  0  1.027248  0
H  H7  1  0.34181274  0.56080419  0.08026791  1  0  0.083192  0  0.966443  0  0  0.093701  0  1.027256  0  0  0.096221  0  1.027154  0  0  0.093507  0.092017  0  1.027249  0
H  H8  1  0.55996403  0.69175113  0.88826099  1  0  0.079832  0  0.959453  0  0  0.092686  0  1.020192  0  0  0.09571  0  1.018487  0  0  0.092327  0.090594  0  1.021247  0
H  H9  1  0.44005051  0.30822666  0.11174414  1  0  0.079748  0  0.959393  0  0  0.092575  0  1.020178  0  0  0.095623  0  1.018445  0  0  0.092289  0.090485  0  1.021229  0
H  H10  1  0.65425580  0.84786168  0.08740058  1  0  0.104755  0  0.946793  0  0  0.116622  0  1.013176  0  0  0.119053  0  1.011648  0  0  0.100085  0.11483  0  1.014441  0
H  H11  1  0.34574050  0.15213639  0.91259314  1  0  0.104806  0  0.946885  0  0  0.116706  0  1.013228  0  0  0.11914  0  1.011701  0  0  0.100102  0.114905  0  1.014475  0
H  H12  1  0.53935958  0.87414363  0.96020526  1  0  0.110912  0  0.925186  0  0  0.127498  0  0.985034  0  0  0.129982  0  0.983323  0  0  0.103111  0.12556  0  0.9866  0
H  H13  1  0.46063982  0.12585122  0.03978692  1  0  0.110952  0  0.925212  0  0  0.127568  0  0.985017  0  0  0.130056  0  0.983304  0  0  0.103116  0.125603  0  0.986591  0
H  H14  1  0.44315307  0.74484990  0.17887679  1  0  0.112758  0  0.973735  0  0  0.118672  0  1.039089  0  0  0.120843  0  1.038778  0  0  0.118642  0.116963  0  1.039619  0
H  H15  1  0.55682300  0.25516853  0.82112173  1  0  0.112867  0  0.973601  0  0  0.118754  0  1.038963  0  0  0.120925  0  1.038649  0  0  0.118678  0.117007  0  1.039541  0
H  H16  1  0.63904960  0.47431846  0.29172975  1  0  0.113858  0  0.99451  0  0  0.119638  0  1.063356  0  0  0.122013  0  1.063089  0  0  0.11917  0.117834  0  1.063733  0
H  H17  1  0.36094627  0.52570535  0.70825991  1  0  0.114023  0  0.994477  0  0  0.119763  0  1.063348  0  0  0.12214  0  1.063081  0  0  0.119218  0.117956  0  1.063732  0
H  H18  1  0.18265758  0.49285150  0.47754731  1  0  0.113886  0  0.947508  0  0  0.12262  0  1.011769  0  0  0.125557  0  1.007543  0  0  0.139448  0.120221  0  1.015223  0
H  H19  1  0.81734021  0.50714551  0.52244839  1  0  0.113867  0  0.947502  0  0  0.122594  0  1.011779  0  0  0.125531  0  1.007555  0  0  0.139413  0.120194  0  1.015237  0
H  H20  1  0.68638756  0.24821124  0.38502815  1  0  0.125599  0  0.946269  0  0  0.138159  0  1.005462  0  0  0.14107  0  1.003656  0  0  0.120596  0.136076  0  1.006762  0
H  H21  1  0.31361951  0.75179115  0.61496466  1  0  0.125614  0  0.946159  0  0  0.138186  0  1.005348  0  0  0.141097  0  1.003542  0  0  0.120581  0.136098  0  1.006655  0
H  H22  1  0.57868952  0.89560961  0.71817755  1  0  0.088616  0  0.953318  0  0  0.09526  0  1.022461  0  0  0.098016  0  1.019852  0  0  0.119311  0.093487  0  1.023893  0
H  H23  1  0.42132022  0.10440251  0.28182645  1  0  0.088631  0  0.953241  0  0  0.095307  0  1.022343  0  0  0.098052  0  1.019761  0  0  0.119323  0.093547  0  1.02375  0
H  H24  1  0.28019167  0.29728384  0.62667390  1  0  0.100646  0  0.989918  0  0  0.10423  0  1.06241  0  0  0.107443  0  1.059897  0  0  0.117079  0.101718  0  1.064713  0
H  H25  1  0.71981873  0.70272930  0.37331951  1  0  0.100724  0  0.990009  0  0  0.104338  0  1.062403  0  0  0.107549  0  1.059896  0  0  0.117108  0.10183  0  1.064707  0
H  H26  1  0.83029911  0.08477611  0.32731350  1  0  0.110489  0  0.932753  0  0  0.122319  0  0.991754  0  0  0.124583  0  0.988798  0  0  0.143732  0.120752  0  0.993665  0
H  H27  1  0.16971405  0.91522208  0.67269225  1  0  0.110438  0  0.932756  0  0  0.122274  0  0.99176  0  0  0.124541  0  0.988799  0  0  0.143745  0.120711  0  0.993665  0
H  H28  1  0.81220612  0.78146473  0.70382484  1  0  0.129956  0  0.972408  0  0  0.136201  0  1.037263  0  0  0.139699  0  1.034515  0  0  0.127063  0.133697  0  1.039282  0
H  H29  1  0.18779263  0.21852910  0.29617877  1  0  0.129974  0  0.972435  0  0  0.136219  0  1.037296  0  0  0.139715  0  1.034545  0  0  0.127083  0.133714  0  1.039317  0
H  H30  1  0.02729540  0.65594122  0.57068331  1  0  0.120507  0  0.981097  0  0  0.126688  0  1.045637  0  0  0.130236  0  1.04333  0  0  0.1152  0.123971  0  1.047654  0
H  H31  1  0.97269840  0.34405369  0.42932201  1  0  0.120477  0  0.981207  0  0  0.126669  0  1.045704  0  0  0.130251  0  1.04335  0  0  0.115192  0.123951  0  1.047728  0
H  H32  1  0.71646086  0.98579933  0.20500608  1  0  0.361184  0  0.973168  0  0  0.318912  0  1.057781  0  0  0.32995  0  1.041995  0  0  0.268729  0.311147  0  1.068825  0
H  H33  1  0.28354529  0.01420738  0.79499189  1  0  0.361074  0  0.97331  0  0  0.318801  0  1.057936  0  0  0.329839  0  1.042152  0  0  0.268719  0.311035  0  1.068981  0
H  H34  1  0.78889537  0.03911456  0.06691550  1  0  0.424739  0  0.880063  0  0  0.392571  0  0.944604  0  0  0.404154  0  0.927987  0  0  0.282889  0.384426  0  0.956267  0
H  H35  1  0.21110961  0.96088249  0.93308380  1  0  0.424665  0  0.880151  0  0  0.392485  0  0.944719  0  0  0.404068  0  0.928101  0  0  0.282872  0.384338  0  0.956384  0
C  C36  1  0.83724151  0.58504223  0.11744635  1  0  -0.107483  0  3.718905  0  0  -0.085512  0  3.944577  0  0  -0.092581  0  3.965991  0  0  -0.018994  -0.081032  0  3.930327  0
C  C37  1  0.16274526  0.41495267  0.88256210  1  0  -0.107751  0  3.719219  0  0  -0.08546  0  3.944613  0  0  -0.092534  0  3.966032  0  0  -0.018942  -0.080983  0  3.930372  0
C  C38  1  0.88507470  0.44039456  0.13945648  1  0  -0.092742  0  3.778275  0  0  -0.115933  0  4.027354  0  0  -0.116727  0  4.048803  0  0  -0.096797  -0.114995  0  4.012613  0
C  C39  1  0.11492899  0.55960360  0.86054926  1  0  -0.092542  0  3.778282  0  0  -0.115802  0  4.027298  0  0  -0.116594  0  4.048738  0  0  -0.096779  -0.114867  0  4.012563  0
C  C40  1  0.82436595  0.38717421  0.06775079  1  0  -0.071887  0  3.759903  0  0  -0.089163  0  4.017037  0  0  -0.091017  0  4.036467  0  0  -0.096618  -0.087737  0  4.003312  0
C  C41  1  0.17565051  0.61281966  0.93225044  1  0  -0.071965  0  3.759796  0  0  -0.089262  0  4.017012  0  0  -0.091112  0  4.036429  0  0  -0.096672  -0.087832  0  4.003276  0
C  C42  1  0.70927358  0.47925993  0.97532269  1  0  -0.058037  0  3.782107  0  0  -0.071113  0  4.03149  0  0  -0.071843  0  4.052248  0  0  -0.094793  -0.070771  0  4.017385  0
C  C43  1  0.29073341  0.52072426  0.02467975  1  0  -0.057956  0  3.7819  0  0  -0.071089  0  4.031285  0  0  -0.071821  0  4.052049  0  0  -0.094739  -0.070745  0  4.017178  0
C  C44  1  0.65685205  0.62246150  0.95576287  1  0  -0.137483  0  3.766406  0  0  -0.155335  0  4.016516  0  0  -0.158774  0  4.037804  0  0  -0.098811  -0.152932  0  4.002265  0
C  C45  1  0.34315955  0.37752269  0.04423411  1  0  -0.137192  0  3.766066  0  0  -0.154958  0  4.016288  0  0  -0.158419  0  4.037573  0  0  -0.098639  -0.15256  0  4.002042  0
C  C46  1  0.72126009  0.67850325  0.02402670  1  0  0.105567  0  3.723269  0  0  0.118145  0  3.956789  0  0  0.119726  0  3.981073  0  0  -0.009331  0.116696  0  3.940779  0
C  C47  1  0.27873657  0.32148413  0.97597285  1  0  0.105503  0  3.72331  0  0  0.117794  0  3.957129  0  0  0.119371  0  3.981435  0  0  -0.009504  0.116329  0  3.941105  0
C  C48  1  0.90986486  0.63904414  0.19448539  1  0  0.652391  0  3.927186  0  0  0.601616  0  4.223326  0  0  0.636476  0  4.215109  0  0  0.19885  0.57817  0  4.227765  0
C  C49  1  0.09010960  0.36094862  0.80553086  1  0  0.65242  0  3.927282  0  0  0.6016  0  4.223437  0  0  0.63646  0  4.215217  0  0  0.198863  0.578154  0  4.227885  0
C  C50  1  0.66278694  0.83379530  0.00020250  1  0  -0.30684  0  3.708008  0  0  -0.351208  0  3.956799  0  0  -0.356573  0  3.963651  0  0  -0.162853  -0.347595  0  3.952493  0
C  C51  1  0.33721211  0.16619634  0.99979181  1  0  -0.306982  0  3.708098  0  0  -0.351349  0  3.957016  0  0  -0.356699  0  3.963822  0  0  -0.162863  -0.347658  0  3.952634  0
C  C52  1  0.76637556  0.93348003  0.90954586  1  0  0.711239  0  3.839048  0  0  0.660085  0  4.140932  0  0  0.693951  0  4.13422  0  0  0.203595  0.637049  0  4.144749  0
C  C53  1  0.23362366  0.06651592  0.09044929  1  0  0.711267  0  3.838743  0  0  0.660097  0  4.140656  0  0  0.693961  0  4.133949  0  0  0.203569  0.637045  0  4.144468  0
C  C54  1  0.41968449  0.65111966  0.25845250  1  0  0.011206  0  3.742265  0  0  -0.019854  0  4.00813  0  0  -0.018522  0  4.029245  0  0  0.001061  -0.02071  0  3.993872  0
C  C55  1  0.58029798  0.34889663  0.74154461  1  0  0.011182  0  3.742077  0  0  -0.019801  0  4.007885  0  0  -0.018469  0  4.029002  0  0  0.001112  -0.020629  0  3.993657  0
C  C56  1  0.51630286  0.51692282  0.31285814  1  0  -0.06286  0  3.650574  0  0  -0.1033  0  3.910129  0  0  -0.10253  0  3.929296  0  0  5e-06  -0.103652  0  3.897489  0
C  C57  1  0.48368775  0.48309347  0.68713237  1  0  -0.063071  0  3.650751  0  0  -0.103527  0  3.910244  0  0  -0.102759  0  3.929411  0  0  -6e-05  -0.103879  0  3.897606  0
C  C58  1  0.27901337  0.52682978  0.41205248  1  0  0.181115  0  3.605361  0  0  0.120299  0  3.87247  0  0  0.134932  0  3.883988  0  0  0.149222  0.110925  0  3.86478  0
C  C59  1  0.72097890  0.47317044  0.58794330  1  0  0.181169  0  3.605345  0  0  0.120326  0  3.872402  0  0  0.134956  0  3.883925  0  0  0.149326  0.110954  0  3.864714  0
C  C60  1  0.47536308  0.29155265  0.49282293  1  0  0.164378  0  3.782407  0  0  0.15732  0  4.032763  0  0  0.161325  0  4.054912  0  0  0.107285  0.154269  0  4.018183  0
C  C61  1  0.52464094  0.70845724  0.50716807  1  0  0.164436  0  3.782582  0  0  0.15735  0  4.032895  0  0  0.161355  0  4.05504  0  0  0.107281  0.154299  0  4.018315  0
C  C62  1  0.61250664  0.20460097  0.46711459  1  0  -0.185937  0  3.658047  0  0  -0.220255  0  3.914005  0  0  -0.222164  0  3.93081  0  0  -0.072706  -0.218865  0  3.902532  0
C  C63  1  0.38749865  0.79540355  0.53287501  1  0  -0.185928  0  3.658207  0  0  -0.220313  0  3.914133  0  0  -0.222219  0  3.930941  0  0  -0.072652  -0.218921  0  3.902659  0
C  C64  1  0.65167541  0.05979095  0.54882579  1  0  0.16645  0  3.78063  0  0  0.159292  0  4.033681  0  0  0.163147  0  4.055463  0  0  0.108284  0.156474  0  4.018821  0
C  C65  1  0.34832712  0.94021574  0.45116912  1  0  0.166464  0  3.780596  0  0  0.159433  0  4.033503  0  0  0.163282  0  4.055297  0  0  0.108301  0.156614  0  4.018643  0
C  C66  1  0.55379298  0.00817321  0.65343462  1  0  0.039916  0  3.695369  0  0  -0.002106  0  3.962155  0  0  0.002031  0  3.977463  0  0  0.044281  -0.004499  0  3.951255  0
C  C67  1  0.44621811  0.99183782  0.34656547  1  0  0.03976  0  3.69554  0  0  -0.002386  0  3.962376  0  0  0.001744  0  3.977695  0  0  0.044203  -0.004777  0  3.951471  0
C  C68  1  0.38569212  0.23233064  0.60118547  1  0  0.024235  0  3.689789  0  0  -0.016859  0  3.956721  0  0  -0.013945  0  3.973845  0  0  0.042356  -0.018944  0  3.945701  0
C  C69  1  0.61431791  0.76767928  0.39880922  1  0  0.024133  0  3.689862  0  0  -0.016973  0  3.95672  0  0  -0.014065  0  3.973855  0  0  0.042381  -0.019062  0  3.945704  0
C  C70  1  0.85711564  0.98641398  0.41137158  1  0  0.183791  0  3.631032  0  0  0.120431  0  3.899982  0  0  0.135288  0  3.912747  0  0  0.146725  0.111064  0  3.890746  0
C  C71  1  0.14289250  0.01358526  0.58863335  1  0  0.183758  0  3.631058  0  0  0.12038  0  3.900056  0  0  0.135239  0  3.912814  0  0  0.146661  0.111011  0  3.890819  0
C  C72  1  0.84465306  0.82260033  0.60589027  1  0  -0.054763  0  3.63899  0  0  -0.096547  0  3.902945  0  0  -0.094622  0  3.920215  0  0  0.002387  -0.098214  0  3.891721  0
C  C73  1  0.15534491  0.17739673  0.39411301  1  0  -0.054785  0  3.638942  0  0  -0.096575  0  3.902912  0  0  -0.09465  0  3.920188  0  0  0.002385  -0.098243  0  3.891687  0
C  C74  1  0.95471185  0.76472423  0.53853362  1  0  -0.00695  0  3.733512  0  0  -0.0413  0  4.00592  0  0  -0.040691  0  4.02653  0  0  -0.004944  -0.041515  0  3.992291  0
C  C75  1  0.04528375  0.23527282  0.46146986  1  0  -0.006942  0  3.733414  0  0  -0.041279  0  4.005813  0  0  -0.040697  0  4.026406  0  0  -0.004932  -0.041496  0  3.992181  0
N  N76  1  0.27310742  0.65585112  0.32092484  1  0  -0.377411  0  3.216293  0  0  -0.307816  0  3.501368  0  0  -0.327972  0  3.517701  0  0  -0.347595  -0.294231  0  3.489776  0
N  N77  1  0.72687800  0.34415340  0.67907576  1  0  -0.377522  0  3.21636  0  0  -0.307966  0  3.501454  0  0  -0.328123  0  3.51779  0  0  -0.347706  -0.29438  0  3.489858  0
N  N78  1  0.42645272  0.43760061  0.41120340  1  0  -0.092279  0  3.583506  0  0  -0.002135  0  3.792298  0  0  -0.017548  0  3.818255  0  0  -0.22424  0.007856  0  3.775046  0
N  N79  1  0.57354566  0.56240820  0.58878850  1  0  -0.092333  0  3.583505  0  0  -0.002069  0  3.792147  0  0  -0.017481  0  3.818106  0  0  -0.224316  0.007923  0  3.774896  0
N  N80  1  0.42554566  0.09349093  0.67870672  1  0  -0.271398  0  3.208521  0  0  -0.208747  0  3.461134  0  0  -0.220773  0  3.478115  0  0  -0.304216  -0.200435  0  3.449659  0
N  N81  1  0.57446161  0.90652117  0.32129328  1  0  -0.271354  0  3.208675  0  0  -0.208638  0  3.461227  0  0  -0.220665  0  3.478207  0  0  -0.304232  -0.20033  0  3.449754  0
N  N82  1  0.78256001  0.96396358  0.52430245  1  0  -0.092361  0  3.594225  0  0  -0.002612  0  3.804095  0  0  -0.018255  0  3.830922  0  0  -0.223399  0.007889  0  3.785919  0
N  N83  1  0.21744067  0.03603669  0.47569849  1  0  -0.092269  0  3.594083  0  0  -0.002564  0  3.803943  0  0  -0.018203  0  3.830774  0  0  -0.223386  0.007939  0  3.785766  0
N  N84  1  0.96055911  0.86808531  0.41749568  1  0  -0.38478  0  3.251946  0  0  -0.311453  0  3.543717  0  0  -0.332738  0  3.560683  0  0  -0.35549  -0.29684  0  3.531626  0
N  N85  1  0.03944483  0.13191177  0.58250960  1  0  -0.384796  0  3.252049  0  0  -0.311448  0  3.543783  0  0  -0.332732  0  3.560756  0  0  -0.355481  -0.296835  0  3.531694  0
O  O86  1  0.96534476  0.75156073  0.13098407  1  0  -0.632829  0  2.025355  0  0  -0.555786  0  2.271232  0  0  -0.587162  0  2.261618  0  0  -0.326254  -0.533641  0  2.276735  0
O  O87  1  0.03463987  0.24843421  0.86903384  1  0  -0.632819  0  2.025555  0  0  -0.555882  0  2.271596  0  0  -0.587263  0  2.261982  0  0  -0.326291  -0.533739  0  2.277104  0
O  O88  1  0.90978008  0.57460645  0.31257026  1  0  -0.66452  0  1.919977  0  0  -0.617163  0  2.154163  0  0  -0.64106  0  2.143756  0  0  -0.342428  -0.59981  0  2.160363  0
O  O89  1  0.09019023  0.42538842  0.68744299  1  0  -0.66453  0  1.919738  0  0  -0.617135  0  2.153936  0  0  -0.641032  0  2.143535  0  0  -0.34243  -0.599766  0  2.160109  0
O  O90  1  0.83814584  0.91066115  0.81973859  1  0  -0.635575  0  1.926316  0  0  -0.578861  0  2.164194  0  0  -0.606095  0  2.157686  0  0  -0.321788  -0.55982  0  2.167965  0
O  O91  1  0.16186020  0.08933588  0.18025555  1  0  -0.635432  0  1.926199  0  0  -0.578756  0  2.164179  0  0  -0.605951  0  2.157593  0  0  -0.321714  -0.559718  0  2.167957  0
O  O92  1  0.76862259  0.04628482  0.92590985  1  0  -0.673178  0  2.011582  0  0  -0.587459  0  2.243774  0  0  -0.618193  0  2.232156  0  0  -0.331527  -0.565934  0  2.250958  0
O  O93  1  0.23137537  0.95370684  0.07408792  1  0  -0.673274  0  2.01147  0  0  -0.587483  0  2.243576  0  0  -0.618246  0  2.232014  0  0  -0.331559  -0.565962  0  2.250775  0
O  O94  1  0.80434388  0.03120824  0.15268653  1  0  -0.835154  0  1.8937  0  0  -0.771954  0  2.096055  0  0  -0.794779  0  2.062115  0  0  -0.595535  -0.755709  0  2.119162  0
O  O95  1  0.19565983  0.96879845  0.84730828  1  0  -0.834968  0  1.893762  0  0  -0.771771  0  2.096084  0  0  -0.794611  0  2.062173  0  0  -0.595524  -0.755529  0  2.119195  0
