# generated using pymatgen
data_CdH20C25(NO2)3
_symmetry_space_group_name_H-M   'P 1'
_cell_length_a   9.73347011
_cell_length_b   10.65970885
_cell_length_c   11.07278753
_cell_angle_alpha   108.86070448
_cell_angle_beta   99.43003182
_cell_angle_gamma   96.34319783
_symmetry_Int_Tables_number   1
_chemical_formula_structural   CdH20C25(NO2)3
_chemical_formula_sum   'Cd2 H40 C50 N6 O12'
_cell_volume   1055.92295807
_cell_formula_units_Z   2
loop_
 _symmetry_equiv_pos_site_id
 _symmetry_equiv_pos_as_xyz
  1  'x, y, z'
loop_
 _atom_site_type_symbol
 _atom_site_label
 _atom_site_symmetry_multiplicity
 _atom_site_fract_x
 _atom_site_fract_y
 _atom_site_fract_z
 _atom_site_occupancy
 _atom_site_hle17_bader_spin_density
 _atom_site_hle17_ddec_charge
 _atom_site_hle17_ddec_spin_density
 _atom_site_hle17_ddec_sum_bond_order
 _atom_site_hle17_magmom
 _atom_site_hse06_10hf_bader_spin_density
 _atom_site_hse06_10hf_ddec_charge
 _atom_site_hse06_10hf_ddec_spin_density
 _atom_site_hse06_10hf_ddec_sum_bond_order
 _atom_site_hse06_10hf_magmom
 _atom_site_hse06_bader_spin_density
 _atom_site_hse06_ddec_charge
 _atom_site_hse06_ddec_spin_density
 _atom_site_hse06_ddec_sum_bond_order
 _atom_site_hse06_magmom
 _atom_site_pbe_bader_spin_density
 _atom_site_pbe_cm5_charge
 _atom_site_pbe_ddec_charge
 _atom_site_pbe_ddec_spin_density
 _atom_site_pbe_ddec_sum_bond_order
 _atom_site_pbe_magmom
Cd  Cd0  1  0.19300155  0.47447262  0.64873776  1  0  1.1347  0  1.660462  0  0  0.952074  0  2.099239  0  0  1.008655  0  2.046915  0  0  0.767234  0.909276  0  2.136681  0
Cd  Cd1  1  0.80699763  0.52552700  0.35126196  1  0  1.134728  0  1.660431  0  0  0.952088  0  2.099201  0  0  1.008672  0  2.046877  0  0  0.767239  0.909292  0  2.136642  0
H  H2  1  0.91980608  0.31888679  0.49888279  1  0  0.430822  0  0.868865  0  0  0.397258  0  0.937303  0  0  0.408322  0  0.921367  0  0  0.287788  0.389319  0  0.948687  0
H  H3  1  0.08019396  0.68111182  0.50111675  1  0  0.43082  0  0.868872  0  0  0.39726  0  0.937306  0  0  0.408322  0  0.92137  0  0  0.287798  0.389321  0  0.948689  0
H  H4  1  0.00155992  0.26885968  0.61178546  1  0  0.41285  0  0.898223  0  0  0.380593  0  0.964557  0  0  0.392859  0  0.946841  0  0  0.279941  0.371847  0  0.977146  0
H  H5  1  0.99844098  0.73113792  0.38821390  1  0  0.41287  0  0.898194  0  0  0.380619  0  0.964516  0  0  0.392884  0  0.946801  0  0  0.279947  0.371874  0  0.977104  0
H  H6  1  0.14716424  0.93485018  0.66242963  1  0  0.104786  0  0.957136  0  0  0.112847  0  1.02451  0  0  0.116299  0  1.021718  0  0  0.106682  0.1107  0  1.025975  0
H  H7  1  0.85283286  0.06514941  0.33756707  1  0  0.104781  0  0.957205  0  0  0.112864  0  1.024553  0  0  0.116317  0  1.021758  0  0  0.106659  0.110717  0  1.026019  0
H  H8  1  0.53784295  0.88565972  0.87221587  1  0  0.088133  0  0.982257  0  0  0.09455  0  1.052453  0  0  0.097471  0  1.051186  0  0  0.096447  0.092777  0  1.052839  0
H  H9  1  0.46215292  0.11433888  0.12778395  1  0  0.088112  0  0.982279  0  0  0.094531  0  1.052467  0  0  0.09745  0  1.051201  0  0  0.09644  0.092756  0  1.052856  0
H  H10  1  0.63138794  0.13120736  0.93488296  1  0  0.090563  0  0.948729  0  0  0.100999  0  1.007232  0  0  0.103536  0  1.007736  0  0  0.09892  0.099276  0  1.006751  0
H  H11  1  0.36860879  0.86879023  0.06511668  1  0  0.090522  0  0.948713  0  0  0.100982  0  1.007195  0  0  0.103503  0  1.007718  0  0  0.098896  0.099257  0  1.006716  0
H  H12  1  0.48472726  0.27343449  0.85056163  1  0  0.075334  0  0.99476  0  0  0.08468  0  1.064274  0  0  0.087214  0  1.062735  0  0  0.094031  0.082973  0  1.06519  0
H  H13  1  0.51527001  0.72656612  0.14943812  1  0  0.075346  0  0.994732  0  0  0.084684  0  1.064251  0  0  0.087217  0  1.062711  0  0  0.094049  0.082979  0  1.065164  0
H  H14  1  0.02273882  0.65461863  0.85618351  1  0  0.077629  0  0.952619  0  0  0.083289  0  1.021953  0  0  0.085116  0  1.021527  0  0  0.112036  0.081824  0  1.022429  0
H  H15  1  0.97725950  0.34538199  0.14381639  1  0  0.077663  0  0.952593  0  0  0.083302  0  1.021948  0  0  0.08513  0  1.021522  0  0  0.112041  0.081832  0  1.022439  0
H  H16  1  0.02099667  0.73958390  0.09606794  1  0  0.105754  0  0.950702  0  0  0.115619  0  1.010797  0  0  0.118345  0  1.010869  0  0  0.108119  0.113588  0  1.010903  0
H  H17  1  0.97900251  0.26041572  0.90393268  1  0  0.105706  0  0.950719  0  0  0.11561  0  1.01077  0  0  0.118337  0  1.010841  0  0  0.108114  0.11357  0  1.010898  0
H  H18  1  0.18498117  0.66486497  0.24744037  1  0  0.119222  0  0.963783  0  0  0.124711  0  1.030402  0  0  0.128579  0  1.026785  0  0  0.112386  0.121741  0  1.033207  0
H  H19  1  0.81501801  0.33513465  0.75256025  1  0  0.119241  0  0.963758  0  0  0.124724  0  1.030381  0  0  0.128593  0  1.026762  0  0  0.112386  0.121757  0  1.033181  0
H  H20  1  0.32996203  0.42832998  0.91138721  1  0  0.073799  0  0.976958  0  0  0.080717  0  1.048706  0  0  0.08263  0  1.04769  0  0  0.110789  0.079505  0  1.048844  0
H  H21  1  0.67003715  0.57166963  0.08861161  1  0  0.073844  0  0.976872  0  0  0.080716  0  1.048677  0  0  0.082628  0  1.047661  0  0  0.110793  0.079504  0  1.048814  0
H  H22  1  0.43321636  0.42125704  0.11630552  1  0  0.097583  0  0.912191  0  0  0.112497  0  0.975729  0  0  0.113851  0  0.974433  0  0  0.119004  0.111574  0  0.976262  0
H  H23  1  0.56678282  0.57874257  0.88369421  1  0  0.097613  0  0.912153  0  0  0.112529  0  0.975685  0  0  0.113884  0  0.974388  0  0  0.119014  0.111606  0  0.976218  0
H  H24  1  0.46741914  0.58342524  0.23622047  1  0  0.100585  0  0.949703  0  0  0.115282  0  1.014252  0  0  0.116794  0  1.012336  0  0  0.119766  0.113912  0  1.016034  0
H  H25  1  0.53258213  0.41657437  0.76377866  1  0  0.100595  0  0.949703  0  0  0.115296  0  1.014241  0  0  0.116808  0  1.012325  0  0  0.119764  0.113926  0  1.016023  0
H  H26  1  0.25207777  0.21143988  0.02389222  1  0  0.105527  0  0.960344  0  0  0.113645  0  1.025384  0  0  0.115997  0  1.025564  0  0  0.10377  0.112071  0  1.025039  0
H  H27  1  0.74792454  0.78855975  0.97610887  1  0  0.105515  0  0.960338  0  0  0.113653  0  1.025363  0  0  0.115976  0  1.025573  0  0  0.103777  0.112079  0  1.025021  0
H  H28  1  0.12412590  0.99610766  0.02326214  1  0  0.087497  0  0.960731  0  0  0.10067  0  1.017453  0  0  0.102853  0  1.017697  0  0  0.099874  0.098954  0  1.017506  0
H  H29  1  0.87587641  0.00389198  0.97673986  1  0  0.087467  0  0.960747  0  0  0.100645  0  1.017466  0  0  0.102826  0  1.017711  0  0  0.099858  0.098929  0  1.017519  0
H  H30  1  0.04580269  0.97970086  0.22169259  1  0  0.09421  0  0.965412  0  0  0.10107  0  1.033842  0  0  0.104479  0  1.031964  0  0  0.098779  0.09866  0  1.03513  0
H  H31  1  0.95419875  0.02029977  0.77830868  1  0  0.094216  0  0.965444  0  0  0.101071  0  1.033873  0  0  0.104479  0  1.031996  0  0  0.098769  0.098661  0  1.035161  0
H  H32  1  0.10104269  0.17439842  0.42811375  1  0  0.10924  0  0.956314  0  0  0.11985  0  1.016298  0  0  0.122774  0  1.014396  0  0  0.109624  0.117627  0  1.017742  0
H  H33  1  0.89895771  0.82560221  0.57188646  1  0  0.109226  0  0.956303  0  0  0.119858  0  1.016267  0  0  0.122774  0  1.014375  0  0  0.109617  0.117636  0  1.017711  0
H  H34  1  0.43809753  0.65732364  0.57338355  1  0  0.092693  0  0.958738  0  0  0.101722  0  1.022614  0  0  0.103614  0  1.021607  0  0  0.109845  0.100323  0  1.023752  0
H  H35  1  0.56190287  0.34267699  0.42661757  1  0  0.09277  0  0.958621  0  0  0.10172  0  1.022609  0  0  0.103611  0  1.0216  0  0  0.109847  0.100325  0  1.023748  0
H  H36  1  0.51915689  0.64616083  0.43777980  1  0  0.083906  0  0.958084  0  0  0.088474  0  1.034208  0  0  0.090533  0  1.032247  0  0  0.109038  0.086961  0  1.036265  0
H  H37  1  0.48084388  0.35384180  0.56222108  1  0  0.083878  0  0.958058  0  0  0.088433  0  1.034195  0  0  0.090476  0  1.032246  0  0  0.10901  0.08692  0  1.036258  0
H  H38  1  0.25389310  0.93041149  0.36889677  1  0  0.109553  0  0.944393  0  0  0.122589  0  1.000948  0  0  0.125568  0  0.999723  0  0  0.104737  0.120369  0  1.002032  0
H  H39  1  0.74610852  0.06959017  0.63110664  1  0  0.109579  0  0.9444  0  0  0.122589  0  1.000987  0  0  0.125569  0  0.999761  0  0  0.104741  0.120368  0  1.002071  0
H  H40  1  0.61714978  0.84198454  0.58640849  1  0  0.094275  0  0.997781  0  0  0.104468  0  1.062903  0  0  0.106189  0  1.06389  0  0  0.097128  0.102981  0  1.06282  0
H  H41  1  0.38285098  0.15801811  0.41359511  1  0  0.094255  0  0.997789  0  0  0.104442  0  1.062928  0  0  0.106163  0  1.063913  0  0  0.097121  0.102949  0  1.062849  0
C  C42  1  0.22129012  0.20006571  0.69730493  1  0  0.648548  0  3.914814  0  0  0.595006  0  4.214108  0  0  0.629636  0  4.206933  0  0  0.203875  0.571463  0  4.218083  0
C  C43  1  0.77870906  0.79993390  0.30269479  1  0  0.648504  0  3.914815  0  0  0.594975  0  4.214099  0  0  0.629603  0  4.206926  0  0  0.203872  0.57143  0  4.218077  0
C  C44  1  0.30638065  0.11362297  0.75159819  1  0  -0.081324  0  3.769548  0  0  -0.05225  0  4.001639  0  0  -0.062323  0  4.025643  0  0  -0.022167  -0.045974  0  3.985917  0
C  C45  1  0.69361732  0.88637562  0.24839923  1  0  -0.081256  0  3.769431  0  0  -0.052215  0  4.001551  0  0  -0.062288  0  4.025556  0  0  -0.022163  -0.045937  0  3.985831  0
C  C46  1  0.25262372  0.97770382  0.72268906  1  0  -0.0559  0  3.686756  0  0  -0.093957  0  3.9323  0  0  -0.090508  0  3.951185  0  0  -0.07297  -0.096002  0  3.919411  0
C  C47  1  0.74737425  0.02229477  0.27730837  1  0  -0.055935  0  3.686862  0  0  -0.094017  0  3.932417  0  0  -0.09057  0  3.951306  0  0  -0.072942  -0.096058  0  3.919513  0
C  C48  1  0.33663789  0.89593883  0.76606533  1  0  -0.081465  0  3.764743  0  0  -0.054163  0  3.996289  0  0  -0.063978  0  4.018843  0  0  -0.023683  -0.047821  0  3.981252  0
C  C49  1  0.66335885  0.10405875  0.23393251  1  0  -0.081407  0  3.764753  0  0  -0.054105  0  3.996289  0  0  -0.063921  0  4.018849  0  0  -0.02372  -0.047761  0  3.981253  0
C  C50  1  0.47349754  0.95150326  0.84159854  1  0  -0.045961  0  3.725359  0  0  -0.071735  0  3.968948  0  0  -0.069103  0  3.987956  0  0  -0.077068  -0.073058  0  3.955674  0
C  C51  1  0.52649938  0.04849533  0.15839963  1  0  -0.045916  0  3.72532  0  0  -0.071691  0  3.968919  0  0  -0.069057  0  3.98792  0  0  -0.077017  -0.073018  0  3.955645  0
C  C52  1  0.52558164  0.08784667  0.87494581  1  0  -0.072697  0  3.77135  0  0  -0.081388  0  4.0231  0  0  -0.086224  0  4.044279  0  0  -0.091509  -0.078245  0  4.008391  0
C  C53  1  0.47441442  0.91215293  0.12505254  1  0  -0.072694  0  3.77138  0  0  -0.081401  0  4.023131  0  0  -0.086224  0  4.04431  0  0  -0.091518  -0.078256  0  4.008419  0
C  C54  1  0.44295638  0.16783907  0.82857967  1  0  -0.058228  0  3.738761  0  0  -0.088542  0  3.990131  0  0  -0.085653  0  4.008814  0  0  -0.084116  -0.089928  0  3.977226  0
C  C55  1  0.55704090  0.83216154  0.17142008  1  0  -0.058241  0  3.738704  0  0  -0.088546  0  3.990095  0  0  -0.085656  0  4.008775  0  0  -0.084127  -0.089932  0  3.977189  0
C  C56  1  0.28697968  0.74826839  0.72709644  1  0  0.636465  0  3.910427  0  0  0.58515  0  4.19999  0  0  0.619992  0  4.193242  0  0  0.194825  0.561539  0  4.203484  0
C  C57  1  0.71302001  0.25172819  0.27289972  1  0  0.636339  0  3.910602  0  0  0.58504  0  4.200117  0  0  0.619883  0  4.193375  0  0  0.19477  0.561427  0  4.203613  0
C  C58  1  0.09183658  0.62401551  0.92558970  1  0  0.120499  0  3.714666  0  0  0.089396  0  3.967373  0  0  0.096328  0  3.986199  0  0  0.045611  0.084797  0  3.954912  0
C  C59  1  0.90816174  0.37598511  0.07441020  1  0  0.120492  0  3.714718  0  0  0.089395  0  3.967436  0  0  0.096327  0  3.986266  0  0  0.045612  0.084797  0  3.954972  0
C  C60  1  0.09238188  0.67180088  0.05875981  1  0  -0.113621  0  3.734302  0  0  -0.122762  0  3.98445  0  0  -0.130064  0  4.007065  0  0  -0.080477  -0.118224  0  3.969621  0
C  C61  1  0.90761749  0.32819974  0.94124025  1  0  -0.113543  0  3.734278  0  0  -0.122718  0  3.984428  0  0  -0.130021  0  4.007043  0  0  -0.080462  -0.118181  0  3.969595  0
C  C62  1  0.18378363  0.63030775  0.14312614  1  0  -0.042693  0  3.652468  0  0  -0.071679  0  3.903212  0  0  -0.068824  0  3.921134  0  0  -0.064114  -0.073372  0  3.891468  0
C  C63  1  0.81621660  0.36969186  0.85687373  1  0  -0.042697  0  3.652432  0  0  -0.071684  0  3.903172  0  0  -0.068828  0  3.921092  0  0  -0.064095  -0.073375  0  3.891428  0
C  C64  1  0.27395794  0.54283616  0.09173680  1  0  0.015812  0  3.734895  0  0  0.040673  0  3.977538  0  0  0.034766  0  4.003067  0  0  -0.007852  0.044063  0  3.960431  0
C  C65  1  0.72604247  0.45716446  0.90826251  1  0  0.015749  0  3.734973  0  0  0.040637  0  3.977567  0  0  0.034731  0  4.003095  0  0  -0.007875  0.044028  0  3.960462  0
C  C66  1  0.26431918  0.49864360  0.95708929  1  0  0.061003  0  3.717757  0  0  0.025015  0  3.966555  0  0  0.030598  0  3.986543  0  0  0.037749  0.021648  0  3.952389  0
C  C67  1  0.73568019  0.50135702  0.04290986  1  0  0.061031  0  3.717644  0  0  0.025059  0  3.966457  0  0  0.030644  0  3.986446  0  0  0.037743  0.021692  0  3.952293  0
C  C68  1  0.38241930  0.49841505  0.17648737  1  0  -0.036602  0  3.645099  0  0  -0.105902  0  3.895463  0  0  -0.100536  0  3.90567  0  0  -0.045027  -0.109183  0  3.888597  0
C  C69  1  0.61758196  0.50158457  0.82351266  1  0  -0.036665  0  3.645119  0  0  -0.105972  0  3.895483  0  0  -0.100607  0  3.905695  0  0  -0.045061  -0.109254  0  3.888618  0
C  C70  1  0.24688803  0.31415418  0.22836460  1  0  0.102164  0  3.785768  0  0  0.089667  0  4.033758  0  0  0.093874  0  4.055471  0  0  0.093435  0.086842  0  4.019674  0
C  C71  1  0.75311237  0.68584645  0.77163652  1  0  0.102178  0  3.785818  0  0  0.089641  0  4.033836  0  0  0.093849  0  4.055546  0  0  0.093445  0.086814  0  4.019751  0
C  C72  1  0.21777869  0.20496566  0.11093171  1  0  -0.151791  0  3.759254  0  0  -0.166923  0  4.011601  0  0  -0.169939  0  4.031144  0  0  -0.096724  -0.165542  0  3.998897  0
C  C73  1  0.78222258  0.79503397  0.88906923  1  0  -0.151805  0  3.75928  0  0  -0.166951  0  4.011648  0  0  -0.169942  0  4.031204  0  0  -0.096782  -0.165573  0  3.998949  0
C  C74  1  0.14622993  0.08474703  0.11180579  1  0  -0.069604  0  3.779977  0  0  -0.083829  0  4.028324  0  0  -0.085304  0  4.050893  0  0  -0.093818  -0.082428  0  4.013036  0
C  C75  1  0.85377342  0.91525261  0.88819636  1  0  -0.069548  0  3.779945  0  0  -0.083777  0  4.028292  0  0  -0.085249  0  4.050851  0  0  -0.093783  -0.082376  0  4.013006  0
C  C76  1  0.10282537  0.07498046  0.22439918  1  0  -0.07769  0  3.756679  0  0  -0.094564  0  4.013945  0  0  -0.098068  0  4.036312  0  0  -0.092276  -0.092355  0  3.998285  0
C  C77  1  0.89717711  0.92502018  0.77560224  1  0  -0.077724  0  3.756701  0  0  -0.094594  0  4.013968  0  0  -0.098094  0  4.036328  0  0  -0.092241  -0.092383  0  3.998305  0
C  C78  1  0.13169643  0.18431295  0.34088536  1  0  -0.112823  0  3.712571  0  0  -0.131422  0  3.962721  0  0  -0.132404  0  3.98098  0  0  -0.082617  -0.130534  0  3.950134  0
C  C79  1  0.86830416  0.81568868  0.65911518  1  0  -0.112762  0  3.712564  0  0  -0.131399  0  3.962704  0  0  -0.132371  0  3.980967  0  0  -0.082624  -0.130514  0  3.950116  0
C  C80  1  0.20609146  0.30556010  0.34291031  1  0  0.1458  0  3.820453  0  0  0.143318  0  4.06939  0  0  0.146708  0  4.092181  0  0  0.08644  0.141274  0  4.054082  0
C  C81  1  0.79390998  0.69444053  0.65709096  1  0  0.145783  0  3.820406  0  0  0.143359  0  4.069293  0  0  0.146741  0  4.09209  0  0  0.086491  0.141321  0  4.053979  0
C  C82  1  0.32834213  0.50730609  0.39470363  1  0  0.344357  0  3.647605  0  0  0.309871  0  3.924163  0  0  0.32866  0  3.935024  0  0  0.235617  0.297048  0  3.917361  0
C  C83  1  0.67165742  0.49269553  0.60529586  1  0  0.344409  0  3.647524  0  0  0.309906  0  3.9241  0  0  0.328692  0  3.934957  0  0  0.235645  0.29707  0  3.917327  0
C  C84  1  0.41715105  0.64253785  0.46863005  1  0  -0.024465  0  3.653958  0  0  -0.081344  0  3.910088  0  0  -0.076322  0  3.911673  0  0  -0.062327  -0.085593  0  3.910394  0
C  C85  1  0.58285058  0.35746378  0.53137065  1  0  -0.024469  0  3.65385  0  0  -0.081301  0  3.910015  0  0  -0.076251  0  3.911592  0  0  -0.062337  -0.085557  0  3.910347  0
C  C86  1  0.42689217  0.87046116  0.47289863  1  0  0.243292  0  3.808133  0  0  0.233917  0  4.070475  0  0  0.242474  0  4.087398  0  0  0.069274  0.227873  0  4.058777  0
C  C87  1  0.57310841  0.12954048  0.52710372  1  0  0.243294  0  3.808042  0  0  0.233963  0  4.070305  0  0  0.242529  0  4.087228  0  0  0.069316  0.227924  0  4.058605  0
C  C88  1  0.36192161  0.96111504  0.42634256  1  0  -0.153399  0  3.756123  0  0  -0.174566  0  4.009618  0  0  -0.177767  0  4.02938  0  0  -0.104445  -0.172087  0  3.996189  0
C  C89  1  0.63807984  0.03888559  0.57365781  1  0  -0.153356  0  3.756149  0  0  -0.174519  0  4.009619  0  0  -0.177721  0  4.02938  0  0  -0.104424  -0.17204  0  3.996192  0
C  C90  1  0.56498310  0.90983442  0.54730679  1  0  -0.168546  0  3.786516  0  0  -0.189063  0  4.039239  0  0  -0.19254  0  4.061211  0  0  -0.111301  -0.186566  0  4.024378  0
C  C91  1  0.43501644  0.09016721  0.45269451  1  0  -0.168549  0  3.786449  0  0  -0.189083  0  4.039165  0  0  -0.192558  0  4.06113  0  0  -0.111343  -0.18658  0  4.024306  0
N  N92  1  0.17547919  0.53760860  0.87549070  1  0  -0.316039  0  3.259312  0  0  -0.240871  0  3.516728  0  0  -0.259903  0  3.53704  0  0  -0.323595  -0.228263  0  3.503092  0
N  N93  1  0.82451999  0.46239102  0.12450902  1  0  -0.316104  0  3.259312  0  0  -0.240915  0  3.5167  0  0  -0.259951  0  3.537016  0  0  -0.323606  -0.228306  0  3.503066  0
N  N94  1  0.32252653  0.44310698  0.26432337  1  0  -0.13946  0  3.479345  0  0  -0.057344  0  3.704326  0  0  -0.074418  0  3.727239  0  0  -0.23403  -0.046183  0  3.68913  0
N  N95  1  0.67747492  0.55689365  0.73567699  1  0  -0.139443  0  3.479352  0  0  -0.057318  0  3.704345  0  0  -0.074389  0  3.727261  0  0  -0.234006  -0.04615  0  3.689153  0
N  N96  1  0.25806697  0.42794258  0.44457063  1  0  -0.478081  0  3.111045  0  0  -0.417411  0  3.391257  0  0  -0.439995  0  3.404636  0  0  -0.344501  -0.401933  0  3.38221  0
N  N97  1  0.74193448  0.57205805  0.55542973  1  0  -0.478136  0  3.111016  0  0  -0.417467  0  3.391211  0  0  -0.440051  0  3.404603  0  0  -0.344554  -0.401985  0  3.382168  0
O  O98  1  0.29381929  0.30297927  0.68637311  1  0  -0.675147  0  2.030976  0  0  -0.606666  0  2.294173  0  0  -0.636018  0  2.282756  0  0  -0.339661  -0.584793  0  2.30141  0
O  O99  1  0.70617990  0.69702035  0.31362661  1  0  -0.675161  0  2.03103  0  0  -0.606667  0  2.294214  0  0  -0.636021  0  2.282798  0  0  -0.339664  -0.584798  0  2.301457  0
O  O100  1  0.08765757  0.16764662  0.66708138  1  0  -0.622175  0  1.920209  0  0  -0.566304  0  2.133788  0  0  -0.59039  0  2.123136  0  0  -0.321423  -0.54908  0  2.14039  0
O  O101  1  0.91234179  0.83235400  0.33291868  1  0  -0.622156  0  1.920161  0  0  -0.566295  0  2.133743  0  0  -0.590377  0  2.12309  0  0  -0.32142  -0.549073  0  2.140346  0
O  O102  1  0.16042824  0.69584115  0.65986980  1  0  -0.66853  0  2.005019  0  0  -0.595922  0  2.244912  0  0  -0.625886  0  2.235713  0  0  -0.328906  -0.574209  0  2.24956  0
O  O103  1  0.83956972  0.30415746  0.34012943  1  0  -0.668523  0  2.005016  0  0  -0.595904  0  2.244902  0  0  -0.625852  0  2.235665  0  0  -0.328924  -0.574189  0  2.249551  0
O  O104  1  0.37280665  0.67655706  0.75895899  1  0  -0.638771  0  1.947424  0  0  -0.584112  0  2.190426  0  0  -0.611224  0  2.182549  0  0  -0.332777  -0.564056  0  2.195385  0
O  O105  1  0.62719531  0.32344051  0.24103510  1  0  -0.638736  0  1.947474  0  0  -0.584062  0  2.19045  0  0  -0.61118  0  2.182572  0  0  -0.332706  -0.564008  0  2.19541  0
O  O106  1  0.34597062  0.74479106  0.44205606  1  0  -0.281074  0  2.32012  0  0  -0.209926  0  2.552001  0  0  -0.226604  0  2.554681  0  0  -0.184342  -0.19757  0  2.549954  0
O  O107  1  0.65403118  0.25521158  0.55794588  1  0  -0.281134  0  2.320119  0  0  -0.209978  0  2.551954  0  0  -0.226675  0  2.554639  0  0  -0.184352  -0.197625  0  2.549916  0
O  O108  1  0.97120798  0.34894446  0.59138226  1  0  -0.840528  0  1.879456  0  0  -0.776978  0  2.081845  0  0  -0.80073  0  2.046744  0  0  -0.591026  -0.759808  0  2.106212  0
O  O109  1  0.02879206  0.65105415  0.40861728  1  0  -0.840551  0  1.879454  0  0  -0.777004  0  2.081837  0  0  -0.800753  0  2.046742  0  0  -0.591044  -0.759832  0  2.106201  0
