# generated using pymatgen
data_HgH16C24(N7O)2
_symmetry_space_group_name_H-M   'P 1'
_cell_length_a   7.33067191
_cell_length_b   10.64658317
_cell_length_c   15.92165511
_cell_angle_alpha   89.99985400
_cell_angle_beta   90.00044829
_cell_angle_gamma   92.84510244
_symmetry_Int_Tables_number   1
_chemical_formula_structural   HgH16C24(N7O)2
_chemical_formula_sum   'Hg2 H32 C48 N28 O4'
_cell_volume   1241.09947794
_cell_formula_units_Z   2
loop_
 _symmetry_equiv_pos_site_id
 _symmetry_equiv_pos_as_xyz
  1  'x, y, z'
loop_
 _atom_site_type_symbol
 _atom_site_label
 _atom_site_symmetry_multiplicity
 _atom_site_fract_x
 _atom_site_fract_y
 _atom_site_fract_z
 _atom_site_occupancy
 _atom_site_hle17_bader_spin_density
 _atom_site_hle17_ddec_charge
 _atom_site_hle17_ddec_spin_density
 _atom_site_hle17_ddec_sum_bond_order
 _atom_site_hle17_magmom
 _atom_site_hse06_10hf_bader_spin_density
 _atom_site_hse06_10hf_ddec_charge
 _atom_site_hse06_10hf_ddec_spin_density
 _atom_site_hse06_10hf_ddec_sum_bond_order
 _atom_site_hse06_10hf_magmom
 _atom_site_hse06_bader_spin_density
 _atom_site_hse06_ddec_charge
 _atom_site_hse06_ddec_spin_density
 _atom_site_hse06_ddec_sum_bond_order
 _atom_site_hse06_magmom
 _atom_site_pbe_bader_spin_density
 _atom_site_pbe_cm5_charge
 _atom_site_pbe_ddec_charge
 _atom_site_pbe_ddec_spin_density
 _atom_site_pbe_ddec_sum_bond_order
 _atom_site_pbe_magmom
Hg  Hg0  1  0.00000098  0.49999939  0.00000021  1  0  0.810738  0  2.021668  0  0  0.638944  0  2.524401  0  0  0.691641  0  2.488661  0  0  0.672967  0.602789  0  2.548417  0
Hg  Hg1  1  0.49999327  0.50000120  0.50000065  1  0  0.810747  0  2.021623  0  0  0.638948  0  2.52436  0  0  0.691647  0  2.488618  0  0  0.672976  0.602785  0  2.548375  0
H  H2  1  0.45005432  0.20758673  0.22452567  1  0  0.117  0  0.955607  0  0  0.118773  0  1.028096  0  0  0.122876  0  1.025356  0  0  0.109188  0.115915  0  1.029971  0
H  H3  1  0.04994917  0.79241405  0.72452649  1  0  0.117006  0  0.955588  0  0  0.118794  0  1.028074  0  0  0.122898  0  1.025329  0  0  0.109183  0.115935  0  1.029947  0
H  H4  1  0.54994307  0.79241472  0.77547436  1  0  0.116968  0  0.955649  0  0  0.118743  0  1.028139  0  0  0.122844  0  1.025402  0  0  0.109193  0.115885  0  1.030009  0
H  H5  1  0.95005073  0.20758457  0.27547418  1  0  0.116997  0  0.955568  0  0  0.118777  0  1.028061  0  0  0.122881  0  1.025319  0  0  0.109191  0.115919  0  1.029933  0
H  H6  1  0.49140959  0.27619292  0.37138040  1  0  0.069717  0  0.973388  0  0  0.071349  0  1.050827  0  0  0.074142  0  1.0481  0  0  0.1054  0.06934  0  1.052831  0
H  H7  1  0.00859489  0.72380644  0.87138118  1  0  0.0697  0  0.973414  0  0  0.071328  0  1.05086  0  0  0.074121  0  1.048133  0  0  0.105384  0.069318  0  1.052865  0
H  H8  1  0.50859598  0.72380851  0.62861964  1  0  0.069703  0  0.973398  0  0  0.071327  0  1.050862  0  0  0.074121  0  1.048133  0  0  0.105389  0.069317  0  1.052865  0
H  H9  1  0.99140645  0.27619313  0.12862011  1  0  0.069722  0  0.973404  0  0  0.071348  0  1.050858  0  0  0.074142  0  1.04813  0  0  0.105399  0.069339  0  1.052862  0
H  H10  1  0.74761833  0.61526432  0.30188529  1  0  0.078244  0  0.956332  0  0  0.079782  0  1.031713  0  0  0.082498  0  1.029234  0  0  0.109831  0.077929  0  1.033253  0
H  H11  1  0.75238545  0.38473487  0.80188690  1  0  0.078217  0  0.95635  0  0  0.079764  0  1.031722  0  0  0.082481  0  1.029242  0  0  0.109849  0.077911  0  1.033273  0
H  H12  1  0.25238437  0.38473524  0.69811223  1  0  0.078231  0  0.95632  0  0  0.079779  0  1.031689  0  0  0.082497  0  1.029206  0  0  0.109842  0.077926  0  1.033241  0
H  H13  1  0.24761724  0.61526469  0.19811376  1  0  0.078246  0  0.956326  0  0  0.079792  0  1.031698  0  0  0.082509  0  1.029217  0  0  0.109847  0.077938  0  1.033248  0
H  H14  1  0.71193810  0.56388994  0.14834344  1  0  0.112126  0  0.959549  0  0  0.117232  0  1.027087  0  0  0.120241  0  1.02674  0  0  0.105647  0.115026  0  1.027576  0
H  H15  1  0.78806314  0.43610976  0.64834447  1  0  0.112056  0  0.959583  0  0  0.117184  0  1.027106  0  0  0.120195  0  1.026755  0  0  0.105627  0.114978  0  1.027592  0
H  H16  1  0.28806057  0.43611057  0.85165534  1  0  0.112048  0  0.959629  0  0  0.117178  0  1.027148  0  0  0.120188  0  1.026798  0  0  0.105619  0.114971  0  1.027635  0
H  H17  1  0.21193934  0.56388698  0.35165619  1  0  0.112055  0  0.959631  0  0  0.117193  0  1.02715  0  0  0.120205  0  1.026796  0  0  0.10562  0.114986  0  1.027636  0
H  H18  1  0.50014422  0.18448142  0.81238615  1  0  0.115266  0  0.948441  0  0  0.122525  0  1.013328  0  0  0.126161  0  1.011501  0  0  0.110668  0.120018  0  1.01457  0
H  H19  1  0.99985837  0.81551774  0.31238638  1  0  0.115238  0  0.948466  0  0  0.122517  0  1.013339  0  0  0.126161  0  1.011509  0  0  0.110678  0.12001  0  1.014583  0
H  H20  1  0.49985316  0.81552003  0.18761326  1  0  0.115262  0  0.948455  0  0  0.122525  0  1.013338  0  0  0.12615  0  1.011532  0  0  0.110679  0.120018  0  1.014584  0
H  H21  1  0.00014296  0.18448182  0.68761492  1  0  0.115346  0  0.948333  0  0  0.122575  0  1.013258  0  0  0.126218  0  1.011425  0  0  0.110709  0.120067  0  1.0145  0
H  H22  1  0.34244645  0.00547342  0.73845651  1  0  0.077878  0  0.939341  0  0  0.084679  0  1.003558  0  0  0.087553  0  1.001162  0  0  0.110878  0.082625  0  1.005256  0
H  H23  1  0.15754527  0.99453110  0.23845770  1  0  0.077865  0  0.939397  0  0  0.084687  0  1.003574  0  0  0.087557  0  1.001184  0  0  0.110841  0.082632  0  1.005271  0
H  H24  1  0.65754964  0.99452897  0.26154290  1  0  0.077859  0  0.939397  0  0  0.084679  0  1.003577  0  0  0.08755  0  1.001186  0  0  0.110846  0.082624  0  1.005275  0
H  H25  1  0.84245204  0.00546941  0.76154296  1  0  0.077883  0  0.939372  0  0  0.084701  0  1.003556  0  0  0.087575  0  1.00116  0  0  0.110868  0.082644  0  1.005253  0
H  H26  1  0.09679281  0.87362855  0.95811152  1  0  0.064728  0  0.969538  0  0  0.070488  0  1.040277  0  0  0.0727  0  1.039402  0  0  0.105024  0.068899  0  1.040975  0
H  H27  1  0.40320513  0.12637336  0.45811318  1  0  0.064704  0  0.969519  0  0  0.070455  0  1.040267  0  0  0.072668  0  1.039389  0  0  0.10501  0.068867  0  1.040964  0
H  H28  1  0.90320579  0.12637102  0.04188726  1  0  0.064719  0  0.969517  0  0  0.070478  0  1.040254  0  0  0.072692  0  1.039373  0  0  0.105027  0.068891  0  1.040951  0
H  H29  1  0.59679757  0.87362621  0.54188686  1  0  0.064732  0  0.969521  0  0  0.070507  0  1.040241  0  0  0.072721  0  1.039363  0  0  0.105022  0.068915  0  1.040938  0
H  H30  1  0.24673473  0.04569518  0.04243005  1  0  0.115147  0  0.937218  0  0  0.12455  0  0.998867  0  0  0.128229  0  0.997034  0  0  0.110852  0.122  0  1.000152  0
H  H31  1  0.25327228  0.95430243  0.54243070  1  0  0.115314  0  0.937131  0  0  0.124664  0  0.998837  0  0  0.128344  0  0.997002  0  0  0.110897  0.1221  0  1.000138  0
H  H32  1  0.75326388  0.95430438  0.95756936  1  0  0.115158  0  0.937214  0  0  0.124566  0  0.998861  0  0  0.128247  0  0.997026  0  0  0.110853  0.122015  0  1.000145  0
H  H33  1  0.74673171  0.04569619  0.45756933  1  0  0.115157  0  0.937233  0  0  0.124564  0  0.998887  0  0  0.128243  0  0.997055  0  0  0.110855  0.122005  0  1.000183  0
C  C34  1  0.56180400  0.34425838  0.08655895  1  0  0.367806  0  3.673421  0  0  0.331742  0  3.951278  0  0  0.349508  0  3.958358  0  0  0.230593  0.319772  0  3.946608  0
C  C35  1  0.93819493  0.65574247  0.58656015  1  0  0.367874  0  3.673343  0  0  0.331734  0  3.951283  0  0  0.349498  0  3.958362  0  0  0.230544  0.319758  0  3.946624  0
C  C36  1  0.43818807  0.65574496  0.91343983  1  0  0.367594  0  3.673504  0  0  0.331713  0  3.951128  0  0  0.349476  0  3.958206  0  0  0.230527  0.319737  0  3.946487  0
C  C37  1  0.06181165  0.34425427  0.41343988  1  0  0.367659  0  3.673549  0  0  0.331721  0  3.951238  0  0  0.349484  0  3.958316  0  0  0.230514  0.319747  0  3.946591  0
C  C38  1  0.47737139  0.23242092  0.97987431  1  0  0.352991  0  3.704476  0  0  0.315732  0  3.992618  0  0  0.332632  0  3.999982  0  0  0.226175  0.304501  0  3.987437  0
C  C39  1  0.02263352  0.76757808  0.47987539  1  0  0.353168  0  3.704545  0  0  0.315872  0  3.99273  0  0  0.332772  0  4.000095  0  0  0.22626  0.304654  0  3.987545  0
C  C40  1  0.52262470  0.76758147  0.02012510  1  0  0.35303  0  3.704579  0  0  0.315784  0  3.992693  0  0  0.332685  0  4.00006  0  0  0.226198  0.304555  0  3.987528  0
C  C41  1  0.97737177  0.23241959  0.52012591  1  0  0.353009  0  3.704655  0  0  0.315761  0  3.992782  0  0  0.332662  0  4.000145  0  0  0.22617  0.304539  0  3.98761  0
C  C42  1  0.57886257  0.38097667  0.17391419  1  0  0.02439  0  3.802391  0  0  0.037618  0  4.038874  0  0  0.037354  0  4.060348  0  0  0.008257  0.037844  0  4.024525  0
C  C43  1  0.92113651  0.61902483  0.67391539  1  0  0.024312  0  3.802425  0  0  0.037574  0  4.038902  0  0  0.037311  0  4.060379  0  0  0.008287  0.037809  0  4.024539  0
C  C44  1  0.42113216  0.61902572  0.82608459  1  0  0.024582  0  3.802227  0  0  0.03772  0  4.038707  0  0  0.037463  0  4.060171  0  0  0.00832  0.037951  0  4.024357  0
C  C45  1  0.07886748  0.38097379  0.32608527  1  0  0.024464  0  3.802341  0  0  0.037656  0  4.038806  0  0  0.037392  0  4.060284  0  0  0.008313  0.037889  0  4.024451  0
C  C46  1  0.51621139  0.29909371  0.23761795  1  0  -0.121775  0  3.691245  0  0  -0.148069  0  3.948388  0  0  -0.152851  0  3.968366  0  0  -0.077447  -0.14484  0  3.934825  0
C  C47  1  0.98379003  0.70090664  0.73761924  1  0  -0.121743  0  3.691265  0  0  -0.148054  0  3.948396  0  0  -0.152836  0  3.968374  0  0  -0.077437  -0.144824  0  3.934828  0
C  C48  1  0.48378599  0.70090774  0.76238209  1  0  -0.121795  0  3.691271  0  0  -0.148046  0  3.948341  0  0  -0.15283  0  3.968318  0  0  -0.077471  -0.144813  0  3.934769  0
C  C49  1  0.01621123  0.29909198  0.26238142  1  0  -0.121736  0  3.69116  0  0  -0.14805  0  3.948335  0  0  -0.152833  0  3.968313  0  0  -0.077453  -0.14482  0  3.934768  0
C  C50  1  0.53970387  0.33743848  0.32042091  1  0  0.117861  0  3.737615  0  0  0.093563  0  3.994136  0  0  0.098982  0  4.012218  0  0  0.038168  0.089763  0  3.981925  0
C  C51  1  0.96030029  0.66256159  0.82042218  1  0  0.117805  0  3.737592  0  0  0.093513  0  3.994099  0  0  0.098932  0  4.012184  0  0  0.038175  0.089712  0  3.981891  0
C  C52  1  0.46029761  0.66256297  0.67957913  1  0  0.117809  0  3.737595  0  0  0.09351  0  3.99411  0  0  0.098929  0  4.012193  0  0  0.038168  0.08971  0  3.981899  0
C  C53  1  0.03970370  0.33743702  0.17957911  1  0  0.117771  0  3.737674  0  0  0.093472  0  3.99419  0  0  0.098892  0  4.012274  0  0  0.038138  0.089673  0  3.981981  0
C  C54  1  0.68118413  0.52677213  0.28124983  1  0  0.120664  0  3.713998  0  0  0.094029  0  3.970503  0  0  0.099225  0  3.989692  0  0  0.040371  0.090423  0  3.957317  0
C  C55  1  0.81881659  0.47322714  0.78125153  1  0  0.120717  0  3.713892  0  0  0.094065  0  3.97043  0  0  0.099264  0  3.989618  0  0  0.040388  0.090453  0  3.95725  0
C  C56  1  0.31881591  0.47322838  0.71874832  1  0  0.12068  0  3.713948  0  0  0.094026  0  3.970481  0  0  0.099223  0  3.98967  0  0  0.040384  0.090414  0  3.9573  0
C  C57  1  0.18118733  0.52677054  0.21874976  1  0  0.120659  0  3.713905  0  0  0.094017  0  3.970428  0  0  0.099214  0  3.989619  0  0  0.040381  0.090408  0  3.957249  0
C  C58  1  0.66280084  0.49762976  0.19633842  1  0  -0.125268  0  3.677324  0  0  -0.143033  0  3.92138  0  0  -0.148823  0  3.943233  0  0  -0.07728  -0.139219  0  3.906714  0
C  C59  1  0.83719997  0.50237166  0.69633889  1  0  -0.125199  0  3.677302  0  0  -0.142991  0  3.921364  0  0  -0.148781  0  3.943214  0  0  -0.077276  -0.139175  0  3.90669  0
C  C60  1  0.33719654  0.50237169  0.80366099  1  0  -0.125232  0  3.677247  0  0  -0.143007  0  3.921313  0  0  -0.148799  0  3.943164  0  0  -0.077266  -0.139191  0  3.906646  0
C  C61  1  0.16280395  0.49762601  0.30366240  1  0  -0.125189  0  3.677326  0  0  -0.142999  0  3.9214  0  0  -0.14879  0  3.943252  0  0  -0.07725  -0.139182  0  3.906731  0
C  C62  1  0.38644916  0.12971446  0.93399834  1  0  0.020543  0  3.826189  0  0  0.036119  0  4.06076  0  0  0.036182  0  4.082555  0  0  0.004599  0.03632  0  4.045782  0
C  C63  1  0.11355499  0.87028470  0.43399958  1  0  0.020507  0  3.826225  0  0  0.036122  0  4.060755  0  0  0.036189  0  4.082555  0  0  0.004586  0.036326  0  4.045774  0
C  C64  1  0.61354958  0.87028699  0.06600044  1  0  0.020543  0  3.826282  0  0  0.03614  0  4.060815  0  0  0.036206  0  4.082612  0  0  0.004607  0.036347  0  4.045836  0
C  C65  1  0.88644771  0.12971487  0.56600108  1  0  0.020506  0  3.826302  0  0  0.036094  0  4.060866  0  0  0.036158  0  4.082663  0  0  0.004591  0.036301  0  4.045886  0
C  C66  1  0.41245636  0.11747542  0.84720340  1  0  -0.123573  0  3.675275  0  0  -0.144494  0  3.91564  0  0  -0.150063  0  3.936894  0  0  -0.074049  -0.140989  0  3.901298  0
C  C67  1  0.08754492  0.88252308  0.34720453  1  0  -0.123524  0  3.675224  0  0  -0.144499  0  3.915622  0  0  -0.150049  0  3.936809  0  0  -0.074096  -0.140994  0  3.901285  0
C  C68  1  0.58753822  0.88252509  0.15279537  1  0  -0.123565  0  3.675238  0  0  -0.144509  0  3.915605  0  0  -0.150046  0  3.936811  0  0  -0.074099  -0.141004  0  3.901267  0
C  C69  1  0.91245764  0.11747460  0.65279676  1  0  -0.123626  0  3.67514  0  0  -0.14454  0  3.915514  0  0  -0.150116  0  3.936763  0  0  -0.074109  -0.141035  0  3.901173  0
C  C70  1  0.32311559  0.01664589  0.80594756  1  0  0.119213  0  3.731847  0  0  0.096632  0  3.990899  0  0  0.101191  0  4.008418  0  0  0.044295  0.093727  0  3.978974  0
C  C71  1  0.17688113  0.98335558  0.30594884  1  0  0.119178  0  3.731782  0  0  0.0966  0  3.990836  0  0  0.101159  0  4.00837  0  0  0.044343  0.093696  0  3.978914  0
C  C72  1  0.67688043  0.98335556  0.19405121  1  0  0.119207  0  3.731828  0  0  0.096631  0  3.990862  0  0  0.101192  0  4.008389  0  0  0.044358  0.093726  0  3.978941  0
C  C73  1  0.82311748  0.01664399  0.69405182  1  0  0.119182  0  3.731824  0  0  0.096608  0  3.990867  0  0  0.101166  0  4.008389  0  0  0.044315  0.093703  0  3.978943  0
C  C74  1  0.18789782  0.94405040  0.92766755  1  0  0.107428  0  3.747709  0  0  0.083705  0  4.014105  0  0  0.088123  0  4.03186  0  0  0.032686  0.080858  0  4.001996  0
C  C75  1  0.31210227  0.05595067  0.42766774  1  0  0.107488  0  3.747763  0  0  0.083792  0  4.014119  0  0  0.088208  0  4.031874  0  0  0.032723  0.080949  0  4.002003  0
C  C76  1  0.81210086  0.05595011  0.07233248  1  0  0.107547  0  3.747776  0  0  0.083834  0  4.014165  0  0  0.088248  0  4.031926  0  0  0.032735  0.080992  0  4.002042  0
C  C77  1  0.68789647  0.94405078  0.57233229  1  0  0.107454  0  3.747762  0  0  0.083731  0  4.014143  0  0  0.088148  0  4.031895  0  0  0.032712  0.080894  0  4.002019  0
C  C78  1  0.27125667  0.04037885  0.97513715  1  0  -0.134852  0  3.70445  0  0  -0.165086  0  3.963728  0  0  -0.169817  0  3.983903  0  0  -0.085959  -0.161832  0  3.9499  0
C  C79  1  0.22874960  0.95962111  0.47513866  1  0  -0.134978  0  3.704404  0  0  -0.165193  0  3.963662  0  0  -0.169926  0  3.983831  0  0  -0.085958  -0.161924  0  3.94984  0
C  C80  1  0.72874344  0.95962260  0.02486289  1  0  -0.134869  0  3.704491  0  0  -0.165124  0  3.963746  0  0  -0.169857  0  3.983922  0  0  -0.085945  -0.161866  0  3.949913  0
C  C81  1  0.77125583  0.04037845  0.52486201  1  0  -0.134853  0  3.704451  0  0  -0.165112  0  3.963725  0  0  -0.169845  0  3.983901  0  0  -0.085948  -0.161847  0  3.949899  0
N  N82  1  0.64270430  0.39508100  0.02031720  1  0  -0.271905  0  2.982009  0  0  -0.238147  0  3.274222  0  0  -0.250583  0  3.287088  0  0  -0.212707  -0.229695  0  3.26562  0
N  N83  1  0.85729490  0.60492006  0.52031756  1  0  -0.271884  0  2.981979  0  0  -0.238109  0  3.274216  0  0  -0.250543  0  3.287078  0  0  -0.212703  -0.229655  0  3.265617  0
N  N84  1  0.35729042  0.60492139  0.97968158  1  0  -0.271852  0  2.982074  0  0  -0.238138  0  3.274221  0  0  -0.250575  0  3.28709  0  0  -0.212646  -0.229671  0  3.265598  0
N  N85  1  0.14270773  0.39507856  0.47968373  1  0  -0.271849  0  2.982064  0  0  -0.238125  0  3.274247  0  0  -0.250559  0  3.287111  0  0  -0.212655  -0.229658  0  3.265619  0
N  N86  1  0.58856131  0.32307891  0.95143204  1  0  -0.249898  0  2.886722  0  0  -0.235572  0  3.176122  0  0  -0.244788  0  3.189686  0  0  -0.210923  -0.229161  0  3.166885  0
N  N87  1  0.91143970  0.67692262  0.45143280  1  0  -0.250022  0  2.886842  0  0  -0.235677  0  3.176258  0  0  -0.244897  0  3.189824  0  0  -0.210979  -0.229269  0  3.167015  0
N  N88  1  0.41143478  0.67692348  0.04856737  1  0  -0.249926  0  2.886787  0  0  -0.23562  0  3.176201  0  0  -0.244841  0  3.189766  0  0  -0.210935  -0.229201  0  3.166962  0
N  N89  1  0.08856307  0.32307788  0.54856849  1  0  -0.249944  0  2.88682  0  0  -0.235635  0  3.176236  0  0  -0.244853  0  3.189801  0  0  -0.210949  -0.229218  0  3.166992  0
N  N90  1  0.61990381  0.44855904  0.34271826  1  0  -0.314667  0  3.156854  0  0  -0.25915  0  3.426099  0  0  -0.274602  0  3.443765  0  0  -0.317381  -0.248266  0  3.413857  0
N  N91  1  0.88009935  0.55144096  0.84272006  1  0  -0.314623  0  3.156738  0  0  -0.259111  0  3.425994  0  0  -0.274567  0  3.443664  0  0  -0.31742  -0.248231  0  3.413761  0
N  N92  1  0.38009895  0.55144146  0.65728114  1  0  -0.314603  0  3.156871  0  0  -0.259092  0  3.426125  0  0  -0.274547  0  3.443794  0  0  -0.317373  -0.248208  0  3.413886  0
N  N93  1  0.11990328  0.44855766  0.15728186  1  0  -0.314617  0  3.156843  0  0  -0.259092  0  3.426084  0  0  -0.274548  0  3.443755  0  0  -0.31737  -0.248211  0  3.413851  0
N  N94  1  0.21248611  0.93042703  0.84457135  1  0  -0.312352  0  3.073365  0  0  -0.276357  0  3.345154  0  0  -0.286674  0  3.361215  0  0  -0.320013  -0.269274  0  3.33404  0
N  N95  1  0.28751153  0.06957807  0.34457268  1  0  -0.312382  0  3.073408  0  0  -0.27639  0  3.345168  0  0  -0.286711  0  3.361233  0  0  -0.320057  -0.269306  0  3.334057  0
N  N96  1  0.78751393  0.06957348  0.15542743  1  0  -0.312449  0  3.073495  0  0  -0.276472  0  3.345297  0  0  -0.286793  0  3.361362  0  0  -0.320092  -0.269387  0  3.334187  0
N  N97  1  0.71248858  0.93042337  0.65542798  1  0  -0.312368  0  3.073427  0  0  -0.276373  0  3.345195  0  0  -0.286689  0  3.361255  0  0  -0.320047  -0.269288  0  3.334079  0
N  N98  1  0.92103641  0.68392981  0.03295622  1  0  -0.506933  0  2.71675  0  0  -0.477174  0  3.030163  0  0  -0.50464  0  3.041023  0  0  -0.287352  -0.45872  0  3.022771  0
N  N99  1  0.57895761  0.31607216  0.53295795  1  0  -0.506752  0  2.716891  0  0  -0.47696  0  3.030263  0  0  -0.50443  0  3.04114  0  0  -0.287296  -0.458509  0  3.022868  0
N  N100  1  0.07896076  0.31606882  0.96704318  1  0  -0.50672  0  2.716948  0  0  -0.476938  0  3.030349  0  0  -0.5044  0  3.041222  0  0  -0.287238  -0.458492  0  3.022959  0
N  N101  1  0.42103445  0.68393118  0.46703958  1  0  -0.506775  0  2.717036  0  0  -0.476995  0  3.030411  0  0  -0.504468  0  3.041302  0  0  -0.287239  -0.458548  0  3.023021  0
N  N102  1  0.99878748  0.74305118  0.08876458  1  0  0.368425  0  4.204597  0  0  0.405155  0  4.48813  0  0  0.420782  0  4.519791  0  0  0.086108  0.394704  0  4.466924  0
N  N103  1  0.50121169  0.25695248  0.58876424  1  0  0.368077  0  4.20431  0  0  0.4048  0  4.487876  0  0  0.420427  0  4.519533  0  0  0.085928  0.394349  0  4.466667  0
N  N104  1  0.00121564  0.25695402  0.91123985  1  0  0.368179  0  4.20421  0  0  0.404912  0  4.487765  0  0  0.42054  0  4.519427  0  0  0.085876  0.394461  0  4.466556  0
N  N105  1  0.49878146  0.74304710  0.41123831  1  0  0.368144  0  4.204209  0  0  0.404886  0  4.487759  0  0  0.420512  0  4.519422  0  0  0.085809  0.394436  0  4.466548  0
N  N106  1  0.06245071  0.80869757  0.14049237  1  0  -0.345252  0  2.393505  0  0  -0.343257  0  2.619743  0  0  -0.3506  0  2.631944  0  0  -0.163841  -0.338298  0  2.611577  0
N  N107  1  0.43754579  0.19130162  0.64049498  1  0  -0.345062  0  2.393012  0  0  -0.343073  0  2.619266  0  0  -0.350412  0  2.631465  0  0  -0.163724  -0.338111  0  2.611099  0
N  N108  1  0.93754366  0.19130012  0.85950516  1  0  -0.345261  0  2.392881  0  0  -0.343286  0  2.619134  0  0  -0.350633  0  2.631341  0  0  -0.163794  -0.338317  0  2.610963  0
N  N109  1  0.56245855  0.80870170  0.35950568  1  0  -0.345181  0  2.39279  0  0  -0.343214  0  2.619061  0  0  -0.350567  0  2.631269  0  0  -0.163733  -0.338248  0  2.610889  0
O  O110  1  0.45438606  0.24036006  0.06516533  1  0  -0.248297  0  2.299751  0  0  -0.17279  0  2.515338  0  0  -0.19075  0  2.517614  0  0  -0.088237  -0.160751  0  2.513669  0
O  O111  1  0.04561881  0.75964030  0.56516682  1  0  -0.248368  0  2.299742  0  0  -0.172827  0  2.515352  0  0  -0.190783  0  2.517618  0  0  -0.088216  -0.160807  0  2.513694  0
O  O112  1  0.54561010  0.75964327  0.93483344  1  0  -0.248264  0  2.299771  0  0  -0.172815  0  2.515282  0  0  -0.19077  0  2.517545  0  0  -0.088271  -0.160803  0  2.513643  0
O  O113  1  0.95439050  0.24035643  0.43483510  1  0  -0.248262  0  2.299847  0  0  -0.172785  0  2.515365  0  0  -0.190742  0  2.517636  0  0  -0.088225  -0.160785  0  2.513733  0
