# generated using pymatgen
data_MnH16C24(NO2)2
_symmetry_space_group_name_H-M   'P 1'
_cell_length_a   6.80294257
_cell_length_b   11.48638440
_cell_length_c   13.92556565
_cell_angle_alpha   114.34589938
_cell_angle_beta   98.08830119
_cell_angle_gamma   89.97336906
_symmetry_Int_Tables_number   1
_chemical_formula_structural   MnH16C24(NO2)2
_chemical_formula_sum   'Mn2 H32 C48 N4 O8'
_cell_volume   979.53317489
_cell_formula_units_Z   2
loop_
 _symmetry_equiv_pos_site_id
 _symmetry_equiv_pos_as_xyz
  1  'x, y, z'
loop_
 _atom_site_type_symbol
 _atom_site_label
 _atom_site_symmetry_multiplicity
 _atom_site_fract_x
 _atom_site_fract_y
 _atom_site_fract_z
 _atom_site_occupancy
 _atom_site_hle17_ddec_charge
 _atom_site_hle17_ddec_spin_density
 _atom_site_hle17_ddec_sum_bond_order
 _atom_site_hle17_magmom
 _atom_site_hse06_10hf_ddec_charge
 _atom_site_hse06_10hf_ddec_spin_density
 _atom_site_hse06_10hf_ddec_sum_bond_order
 _atom_site_hse06_10hf_magmom
 _atom_site_hse06_ddec_charge
 _atom_site_hse06_ddec_spin_density
 _atom_site_hse06_ddec_sum_bond_order
 _atom_site_hse06_magmom
 _atom_site_pbe_cm5_charge
 _atom_site_pbe_ddec_charge
 _atom_site_pbe_ddec_spin_density
 _atom_site_pbe_ddec_sum_bond_order
 _atom_site_pbe_magmom
Mn  Mn0  1  0.25003610  0.62197066  0.00001153  1  1.149805  -4.749516  2.013507  -4.61  1.026951  -4.569901  2.534024  -4.374  1.057388  -4.696368  2.463944  -4.517  0.666234  1.000109  -4.419322  2.586792  -4.215
Mn  Mn1  1  0.74996811  0.37802834  0.99998948  1  1.149845  4.749525  2.013428  4.61  1.027004  4.569919  2.533926  4.374  1.057439  4.69638  2.46385  4.517  0.666258  1.000164  4.419339  2.586695  4.216
H  H2  1  0.31735400  0.70039647  0.64862919  1  0.095557  -0.000257  0.967547  0.0  0.107912  -0.000408  1.024584  0.0  0.10801  -0.000319  1.028419  0.0  0.102209  0.108305  -0.000488  1.02147  0.0
H  H3  1  0.18255676  0.05174633  0.35140100  1  0.096143  -0.000257  0.967989  0.0  0.108507  -0.000408  1.024892  0.0  0.108596  -0.00032  1.028748  0.0  0.102361  0.108902  -0.000488  1.021767  0.0
H  H4  1  0.68263826  0.29960160  0.35136919  1  0.095594  0.000257  0.967508  0.0  0.107938  0.000407  1.024556  0.0  0.108036  0.000319  1.02839  0.0  0.102215  0.108333  0.000487  1.021444  0.0
H  H5  1  0.81744296  0.94825172  0.64859650  1  0.096175  0.000257  0.967974  0.0  0.108538  0.000408  1.024869  0.0  0.10862  0.00032  1.028733  0.0  0.102354  0.108934  0.000488  1.021745  0.0
H  H6  1  0.30712730  0.57454819  0.75991846  1  0.082681  0.000202  0.957996  0.0  0.088991  2.8e-05  1.026118  0.0  0.090344  0.000119  1.025593  0.0  0.117916  0.08838  -5.2e-05  1.025931  -0.001
H  H7  1  0.19260894  0.81465716  0.24014611  1  0.082568  0.0002  0.956584  0.0  0.088781  2.7e-05  1.024813  0.0  0.090181  0.000118  1.024289  0.0  0.117642  0.088159  -5.3e-05  1.024646  -0.001
H  H8  1  0.69286961  0.42545178  0.24008091  1  0.082686  -0.000202  0.957862  0.0  0.088996  -2.8e-05  1.025999  0.0  0.090359  -0.000119  1.025458  0.0  0.117904  0.08838  5.2e-05  1.025818  0.001
H  H9  1  0.80739096  0.18534281  0.75985277  1  0.082547  -0.000201  0.956589  0.0  0.088768  -2.7e-05  1.02481  0.0  0.09017  -0.000118  1.024282  0.0  0.11763  0.088146  5.3e-05  1.024643  0.001
H  H10  1  0.29117817  0.93889498  0.73617549  1  0.088235  5.8e-05  0.957021  0.0  0.101439  4.8e-05  1.018949  0.0  0.102506  2.5e-05  1.018897  0.0  0.103825  0.100875  8e-05  1.01886  0.0
H  H11  1  0.20903671  0.20271488  0.26385169  1  0.088609  5.7e-05  0.955661  0.0  0.101718  4.8e-05  1.017731  0.0  0.102817  2.4e-05  1.01763  0.0  0.103962  0.1011  8e-05  1.017708  0.0
H  H12  1  0.70881563  0.06110308  0.26382085  1  0.088254  -5.8e-05  0.957123  0.0  0.101458  -4.8e-05  1.01904  0.0  0.102524  -2.4e-05  1.018989  0.0  0.103838  0.100893  -8e-05  1.018951  0.0
H  H13  1  0.79096469  0.79728508  0.73614657  1  0.088616  -5.8e-05  0.955675  0.0  0.101724  -4.8e-05  1.017748  0.0  0.102823  -2.4e-05  1.017644  0.0  0.103961  0.101106  -8e-05  1.017724  0.0
H  H14  1  0.33710153  0.00119115  0.59676948  1  0.089428  -0.000222  0.954661  0.0  0.102152  -1e-05  1.012687  0.0  0.106072  -2.3e-05  1.009966  0.0  0.098446  0.099044  -2e-06  1.015161  0.0
H  H15  1  0.16283564  0.40445039  0.40349706  1  0.089308  -0.000222  0.954928  0.0  0.102369  -1e-05  1.012539  0.0  0.106204  -2.3e-05  1.009923  0.0  0.098607  0.099267  -1e-06  1.015006  0.0
H  H16  1  0.66289550  0.99880978  0.40322951  1  0.089372  0.000223  0.954653  0.0  0.102094  1.1e-05  1.012684  0.0  0.106012  2.3e-05  1.009967  0.0  0.098435  0.098986  1e-06  1.015158  0.0
H  H17  1  0.83716599  0.59555245  0.59650579  1  0.089259  0.000222  0.95489  0.0  0.102367  1e-05  1.01246  0.0  0.106175  2.3e-05  1.009873  0.0  0.09861  0.099264  1e-06  1.014926  0.0
H  H18  1  0.26884263  0.13779901  0.90628754  1  0.112505  -0.000288  0.956108  0.0  0.122634  -0.000173  1.018515  0.0  0.124933  -0.000256  1.018279  0.0  0.107939  0.120963  -9.9e-05  1.018871  0.0
H  H19  1  0.23147829  0.23149593  0.09375730  1  0.112098  -0.000289  0.956241  0.0  0.122523  -0.000175  1.018443  0.0  0.124783  -0.000256  1.018228  0.0  0.108078  0.120893  -0.000101  1.018751  0.0
H  H20  1  0.73115429  0.86220097  0.09371183  1  0.112558  0.000288  0.956032  0.0  0.122671  0.000174  1.018455  0.0  0.124965  0.000256  1.018225  0.0  0.107942  0.120998  9.9e-05  1.018811  0.0
H  H21  1  0.76851855  0.76850309  0.90624102  1  0.112116  0.000288  0.956231  0.0  0.122543  0.000175  1.018426  0.0  0.124803  0.000256  1.018213  0.0  0.108086  0.120915  0.000101  1.018735  0.0
H  H22  1  0.80611295  0.19390618  0.55899060  1  0.096093  -0.000294  0.947916  0.0  0.108542  -0.000196  1.005251  0.0  0.111854  -0.000142  1.003308  0.0  0.100375  0.106041  -0.000216  1.006947  0.0
H  H23  1  0.69361901  0.63432878  0.44041385  1  0.095242  -0.000295  0.948411  0.0  0.108151  -0.000198  1.005463  0.0  0.111468  -0.000144  1.003521  0.0  0.100149  0.105639  -0.00022  1.007165  0.0
H  H24  1  0.19388547  0.80609379  0.44100816  1  0.096077  0.000294  0.947793  0.0  0.108531  0.000196  1.005133  0.0  0.111843  0.000142  1.003189  0.0  0.10035  0.106032  0.000216  1.006828  0.0
H  H25  1  0.30638402  0.36567310  0.55958805  1  0.09528  0.000294  0.948393  0.0  0.108151  0.000198  1.005488  0.0  0.111463  0.000144  1.003548  0.0  0.100151  0.105636  0.000219  1.007189  0.0
H  H26  1  0.06364081  0.31084191  0.70055203  1  0.09656  -0.000261  0.95818  -0.001  0.10297  0.000293  1.027811  0.0  0.106356  0.000246  1.026041  0.0  0.100549  0.100418  0.000253  1.029074  0.0
H  H27  1  0.43623187  0.60975940  0.29917865  1  0.095902  -0.000259  0.958326  -0.001  0.103399  0.000291  1.026865  0.0  0.106843  0.000244  1.025013  0.0  0.100691  0.100818  0.000251  1.028168  0.0
H  H28  1  0.93635295  0.68915712  0.29945110  1  0.096554  0.000261  0.958186  0.001  0.102967  -0.000293  1.027819  0.0  0.106347  -0.000246  1.026066  0.0  0.100546  0.100415  -0.000253  1.029083  0.0
H  H29  1  0.56377421  0.39024343  0.70082452  1  0.095937  0.000259  0.958321  0.001  0.1034  -0.000291  1.026891  0.0  0.106842  -0.000244  1.025038  0.0  0.100705  0.100818  -0.000251  1.028191  0.0
H  H30  1  0.39613023  0.15798499  0.75850804  1  0.09804  -2.8e-05  0.975486  0.0  0.106086  -0.000382  1.045316  0.0  0.109324  -0.000411  1.042852  0.0  0.09657  0.10392  -0.000289  1.047394  0.0
H  H31  1  0.10331092  0.39954552  0.24142614  1  0.096948  -2.8e-05  0.975876  0.0  0.104998  -0.000383  1.045885  0.0  0.108244  -0.000412  1.043441  0.0  0.096095  0.102898  -0.000289  1.047885  0.0
H  H32  1  0.60386653  0.84201403  0.24149388  1  0.098056  2.9e-05  0.975521  0.0  0.106097  0.000382  1.045365  0.0  0.109344  0.000411  1.042875  0.0  0.096577  0.103933  0.000289  1.047433  0.0
H  H33  1  0.89669371  0.60045731  0.75857548  1  0.096939  3e-05  0.975901  0.0  0.104968  0.000383  1.045936  0.0  0.108214  0.000413  1.04349  0.0  0.096085  0.102869  0.000289  1.047929  0.0
C  C34  1  0.26135548  0.85979257  0.94449730  1  0.131194  -0.000575  3.750911  -0.001  0.12569  -0.001988  3.989263  -0.002  0.129911  -0.001672  4.008837  -0.002  0.125616  0.122531  -0.002225  3.97634  -0.002
C  C35  1  0.23834802  0.91528340  0.05551438  1  0.130738  -0.000545  3.751529  -0.001  0.126084  -0.001979  3.988549  -0.002  0.1303  -0.001658  4.00814  -0.002  0.125972  0.12293  -0.002215  3.975616  -0.002
C  C36  1  0.73864571  0.14020548  0.05550101  1  0.131264  0.000564  3.750748  0.001  0.12568  0.001988  3.989163  0.002  0.129903  0.00167  4.008737  0.002  0.125655  0.122522  0.002226  3.97624  0.002
C  C37  1  0.76165625  0.08471560  0.94448377  1  0.130688  0.000556  3.751481  0.001  0.126094  0.001978  3.98852  0.002  0.13031  0.001659  4.00811  0.002  0.125931  0.122938  0.002216  3.975587  0.002
C  C38  1  0.26972823  0.94037720  0.89026004  1  0.018551  -0.000138  3.805521  0.0  0.03469  -0.000323  4.036802  0.0  0.032269  -8.2e-05  4.061142  0.0  -0.003512  0.036214  -0.000501  4.020638  0.0
C  C39  1  0.23023969  0.05009851  0.10975283  1  0.01726  -0.000167  3.804496  0.0  0.033466  -0.000331  4.035473  0.0  0.031031  -9.3e-05  4.059802  0.0  -0.003455  0.035005  -0.000513  4.019305  0.0
C  C40  1  0.73027016  0.05962277  0.10974016  1  0.018572  0.000152  3.805587  0.0  0.034738  0.000322  4.036852  0.0  0.032317  8.4e-05  4.061191  0.0  -0.003518  0.036263  0.000501  4.020685  0.0
C  C41  1  0.76976310  0.94990049  0.89024521  1  0.017285  0.000153  3.80453  0.0  0.033443  0.000331  4.035561  0.0  0.031008  9.2e-05  4.05989  0.0  -0.003456  0.034984  0.000513  4.019394  0.0
C  C42  1  0.35131072  0.35456615  0.86337178  1  0.705287  0.013517  3.871531  0.013  0.653976  0.017669  4.167064  0.015  0.692084  0.013993  4.154583  0.013  0.215311  0.627814  0.017835  4.17458  0.015
C  C43  1  0.14845092  0.49117192  0.13651912  1  0.704233  0.013509  3.872826  0.013  0.652801  0.017643  4.168698  0.015  0.690828  0.01398  4.156341  0.013  0.215288  0.626659  0.017808  4.176141  0.015
C  C44  1  0.64868445  0.64543191  0.13662969  1  0.705261  -0.013522  3.871533  -0.013  0.653991  -0.017671  4.167002  -0.015  0.692099  -0.013997  4.154523  -0.013  0.215328  0.627828  -0.017837  4.174516  -0.015
C  C45  1  0.85155359  0.50882995  0.86348289  1  0.704002  -0.01351  3.87298  -0.013  0.652615  -0.017647  4.168788  -0.015  0.690641  -0.013984  4.156435  -0.013  0.215232  0.626473  -0.017811  4.176233  -0.015
C  C46  1  0.30089461  0.74932922  0.73250164  1  -0.138508  -0.000293  3.767486  0.0  -0.147487  -0.000207  4.013268  0.0  -0.156656  2.9e-05  4.041387  0.0  -0.090118  -0.140878  -0.000446  3.993001  0.0
C  C47  1  0.19904393  0.01683242  0.26751450  1  -0.139637  -0.000322  3.766839  0.0  -0.148554  -0.000218  4.0127  0.0  -0.15774  1.7e-05  4.040867  0.0  -0.08977  -0.141929  -0.000459  3.992395  0.0
C  C48  1  0.69910180  0.25066596  0.26749679  1  -0.138536  0.000304  3.76739  0.0  -0.147507  0.000207  4.013179  0.0  -0.156677  -2.6e-05  4.041299  0.0  -0.090145  -0.1409  0.000446  3.992913  0.0
C  C49  1  0.80095902  0.98316850  0.73248564  1  -0.139685  0.000311  3.766959  0.0  -0.148604  0.000219  4.012804  0.0  -0.157784  -1.7e-05  4.040975  0.0  -0.089751  -0.141978  0.000459  3.992501  0.0
C  C50  1  0.29551079  0.67801510  0.79371273  1  0.135091  -0.000762  3.693865  -0.001  0.108028  -0.002723  3.947891  -0.002  0.112896  -0.002173  3.967589  -0.002  0.060109  0.104876  -0.003065  3.933832  -0.002
C  C51  1  0.20430107  0.88429905  0.20631599  1  0.135642  -0.000725  3.69118  -0.001  0.108188  -0.002709  3.945437  -0.002  0.112985  -0.002155  3.965134  -0.002  0.060294  0.105052  -0.003047  3.931334  -0.002
C  C52  1  0.70448573  0.32198104  0.20628532  1  0.135093  0.00075  3.69373  0.001  0.108013  0.002724  3.947755  0.002  0.112875  0.002173  3.967454  0.002  0.06009  0.104863  0.003065  3.933696  0.002
C  C53  1  0.79570050  0.11570283  0.79368437  1  0.13565  0.000738  3.691068  0.001  0.108215  0.002708  3.945322  0.002  0.113013  0.002158  3.965015  0.002  0.060317  0.105079  0.003048  3.931224  0.002
C  C54  1  0.28776301  0.88049947  0.78097766  1  -0.05333  -0.000542  3.724922  0.0  -0.076074  -0.001868  3.968907  -0.001  -0.074562  -0.001658  3.990665  -0.001  -0.067415  -0.076789  -0.001907  3.953524  -0.001
C  C55  1  0.21232330  0.09953983  0.21904086  1  -0.052446  -0.000506  3.722354  0.0  -0.075203  -0.001851  3.966163  -0.001  -0.073683  -0.001641  3.987897  -0.001  -0.067952  -0.0759  -0.001884  3.950805  -0.001
C  C56  1  0.71223212  0.11949763  0.21902061  1  -0.053402  0.000529  3.725121  0.0  -0.076146  0.00187  3.969086  0.001  -0.074633  0.001654  3.990844  0.001  -0.067441  -0.076861  0.001908  3.953701  0.001
C  C57  1  0.78767979  0.90046204  0.78095745  1  -0.052431  0.00052  3.72262  0.0  -0.075172  0.001851  3.966417  0.001  -0.073651  0.001641  3.988149  0.001  -0.06793  -0.075869  0.001884  3.951059  0.001
C  C58  1  0.15171536  0.22713985  0.68626588  1  -0.076436  0.018769  3.762301  0.016  -0.100565  0.018298  4.022683  0.014  -0.098286  0.01503  4.036483  0.012  -0.089159  -0.101828  0.018521  4.014685  0.014
C  C59  1  0.34804517  0.54049549  0.31353736  1  -0.076877  0.018748  3.762514  0.016  -0.101888  0.018233  4.022947  0.014  -0.099697  0.015003  4.03687  0.012  -0.089806  -0.103096  0.018454  4.014886  0.014
C  C60  1  0.84828129  0.77285821  0.31373642  1  -0.076466  -0.018774  3.762316  -0.016  -0.100599  -0.0183  4.022722  -0.014  -0.098322  -0.015037  4.036518  -0.012  -0.089215  -0.101864  -0.018525  4.014728  -0.014
C  C61  1  0.65195942  0.45950734  0.68646570  1  -0.076816  -0.018722  3.762558  -0.016  -0.101834  -0.018233  4.022975  -0.014  -0.099641  -0.014995  4.036896  -0.012  -0.089796  -0.103043  -0.018454  4.014912  -0.014
C  C62  1  0.30600195  0.23821344  0.76322906  1  -0.218447  -0.017537  3.668141  -0.015  -0.24556  -0.007764  3.940661  -0.008  -0.245525  -0.010757  3.945686  -0.009  -0.10361  -0.248618  -0.004747  3.940041  -0.006
C  C63  1  0.19359315  0.47490924  0.23666787  1  -0.216446  -0.017532  3.668119  -0.015  -0.243446  -0.007751  3.940972  -0.008  -0.243489  -0.01075  3.946056  -0.009  -0.10271  -0.246512  -0.004749  3.940281  -0.006
C  C64  1  0.69399481  0.76178558  0.23677285  1  -0.218414  0.017541  3.668107  0.015  -0.245553  0.007761  3.940627  0.008  -0.245517  0.010761  3.945656  0.009  -0.103552  -0.248606  0.004747  3.940011  0.006
C  C65  1  0.80641137  0.52509263  0.76333342  1  -0.216421  0.017501  3.668173  0.015  -0.243427  0.00775  3.941018  0.008  -0.24347  0.010738  3.946102  0.009  -0.102751  -0.246494  0.004748  3.940324  0.006
C  C66  1  0.18831789  0.00097747  0.55531172  1  -0.115497  0.009351  3.749849  0.008  -0.134908  0.006852  3.998585  0.006  -0.134901  0.006239  4.013617  0.005  -0.095289  -0.13543  0.006525  3.990003  0.005
C  C67  1  0.31161921  0.44568095  0.44485925  1  -0.115852  0.009355  3.750611  0.008  -0.135533  0.006839  3.999532  0.006  -0.135461  0.006236  4.014568  0.005  -0.095489  -0.136054  0.006511  3.990952  0.005
C  C68  1  0.81167913  0.99902346  0.44468798  1  -0.115416  -0.009353  3.74972  -0.008  -0.134816  -0.006854  3.998455  -0.006  -0.134809  -0.00624  4.013487  -0.005  -0.095274  -0.135338  -0.006526  3.989872  -0.005
C  C69  1  0.68838242  0.55432189  0.55514359  1  -0.115701  -0.009353  3.750499  -0.008  -0.135456  -0.006839  3.999407  -0.006  -0.135361  -0.006234  4.014455  -0.005  -0.095467  -0.135975  -0.006511  3.990829  -0.005
C  C70  1  0.08142699  0.11284244  0.59098551  1  0.078027  -0.009871  3.832788  -0.009  0.092998  -0.006996  4.071766  -0.007  0.09567  -0.006719  4.091883  -0.006  -0.01954  0.090149  -0.006297  4.059407  -0.006
C  C71  1  0.41840160  0.52151352  0.40886078  1  0.07822  -0.009874  3.832661  -0.009  0.093035  -0.006983  4.072131  -0.007  0.095688  -0.006716  4.092271  -0.006  -0.019207  0.090197  -0.006285  4.059756  -0.006
C  C72  1  0.91856990  0.88715753  0.40901530  1  0.078044  0.009871  3.832822  0.009  0.093012  0.006994  4.071795  0.007  0.095686  0.006718  4.091905  0.006  -0.019502  0.090163  0.006296  4.05944  0.006
C  C73  1  0.58160141  0.47848835  0.59114184  1  0.07807  0.009872  3.832706  0.009  0.092992  0.006983  4.072042  0.007  0.095648  0.006715  4.092171  0.006  -0.019199  0.090154  0.006285  4.059669  0.006
C  C74  1  0.25944022  0.07550186  0.94716917  1  -0.08017  -0.000229  3.691717  0.0  -0.106295  -0.000154  3.952034  0.0  -0.108558  -0.000187  3.973274  0.0  -0.079495  -0.104819  -9.7e-05  3.937992  0.0
C  C75  1  0.24079764  0.12832752  0.05285319  1  -0.080418  -0.000186  3.690695  0.0  -0.106899  -0.00015  3.950852  0.0  -0.109099  -0.000177  3.972064  0.0  -0.080442  -0.105464  -9.2e-05  3.936778  0.0
C  C76  1  0.74055969  0.92449810  0.05282970  1  -0.080182  0.000199  3.691636  0.0  -0.106286  0.000156  3.951933  0.0  -0.108544  0.000184  3.973176  0.0  -0.079487  -0.104809  9.7e-05  3.937892  0.0
C  C77  1  0.75920374  0.87167244  0.94714579  1  -0.08049  0.000216  3.690765  0.0  -0.106971  0.00015  3.950956  0.0  -0.109172  0.000179  3.972168  0.0  -0.080452  -0.10554  9.2e-05  3.936885  0.0
C  C78  1  0.89168467  0.10879534  0.53244619  1  -0.118944  0.008525  3.747001  0.007  -0.136845  0.005449  3.995142  0.005  -0.137928  0.005338  4.010802  0.005  -0.092889  -0.136604  0.00488  3.986113  0.004
C  C79  1  0.60819759  0.57598355  0.46720512  1  -0.117803  0.008521  3.747315  0.007  -0.136045  0.005431  3.995634  0.005  -0.137149  0.00533  4.011318  0.005  -0.092905  -0.13577  0.004864  3.986554  0.004
C  C80  1  0.10831554  0.89120750  0.46755296  1  -0.118862  -0.008526  3.746899  -0.008  -0.13676  -0.005449  3.995038  -0.005  -0.137843  -0.005339  4.010696  -0.005  -0.092814  -0.136518  -0.00488  3.98601  -0.004
C  C81  1  0.39180404  0.42401929  0.53279772  1  -0.117775  -0.008519  3.747344  -0.007  -0.136015  -0.005432  3.995613  -0.005  -0.137115  -0.005329  4.0113  -0.005  -0.092884  -0.135739  -0.004864  3.986528  -0.004
N  N82  1  0.27504469  0.73148215  0.89624269  1  -0.314411  -0.026467  3.207427  -0.016  -0.262603  -0.0311  3.479651  -0.019  -0.274665  -0.028807  3.490782  -0.016  -0.298497  -0.252926  -0.033253  3.47171  -0.021
N  N83  1  0.22462144  0.83522218  0.10376217  1  -0.314683  -0.026486  3.207212  -0.016  -0.262076  -0.031112  3.478002  -0.019  -0.274168  -0.028809  3.489245  -0.016  -0.298555  -0.252384  -0.03328  3.469999  -0.021
N  N84  1  0.72495669  0.26851781  0.10375629  1  -0.314528  0.026479  3.20731  0.016  -0.262659  0.031103  3.479543  0.019  -0.274717  0.028808  3.490661  0.016  -0.298496  -0.252987  0.033255  3.471605  0.021
N  N85  1  0.77538133  0.16477683  0.89623659  1  -0.31459  0.026475  3.207186  0.016  -0.262053  0.031113  3.478028  0.019  -0.274143  0.028808  3.489268  0.016  -0.298554  -0.252363  0.03328  3.470029  0.021
O  O86  1  0.28435910  0.45952100  0.86542547  1  -0.64182  -0.022276  2.060963  -0.005  -0.573425  -0.017849  2.329327  0.004  -0.605906  -0.020094  2.316361  0.002  -0.307434  -0.54721  -0.018301  2.336186  0.003
O  O87  1  0.21548175  0.59401991  0.13449218  1  -0.641578  -0.02227  2.061686  -0.005  -0.573296  -0.017849  2.330258  0.004  -0.605713  -0.020086  2.317333  0.002  -0.307974  -0.547094  -0.018285  2.337161  0.003
O  O88  1  0.71564204  0.54047705  0.13457500  1  -0.641788  0.022276  2.060973  0.005  -0.573384  0.017847  2.329301  -0.004  -0.605863  0.020094  2.316338  -0.002  -0.307423  -0.547174  0.018299  2.336161  -0.003
O  O89  1  0.78451962  0.40598005  0.86550752  1  -0.641517  0.022268  2.061625  0.005  -0.573257  0.017847  2.330159  -0.004  -0.605674  0.020084  2.317239  -0.002  -0.307981  -0.547054  0.018283  2.337065  -0.003
O  O90  1  0.44993588  0.34218660  0.94375691  1  -0.644014  0.0186  2.049287  0.001  -0.58586  0.019622  2.327811  -0.002  -0.613871  0.01774  2.310499  -0.005  -0.314884  -0.56462  0.025284  2.338748  0.005
O  O91  1  0.05008024  0.39843392  0.05609725  1  -0.642754  0.01857  2.048781  0.001  -0.584623  0.019594  2.327416  -0.002  -0.612647  0.017709  2.310175  -0.005  -0.314195  -0.56333  0.025246  2.33825  0.005
O  O92  1  0.55006258  0.65781433  0.05624505  1  -0.64404  -0.018599  2.049292  -0.001  -0.585923  -0.019623  2.327833  0.002  -0.613931  -0.017739  2.310508  0.005  -0.314936  -0.564681  -0.025286  2.338771  -0.005
O  O93  1  0.94992574  0.60156795  0.94390559  1  -0.642633  -0.018572  2.04894  -0.001  -0.584479  -0.019593  2.327507  0.002  -0.6125  -0.017707  2.310265  0.005  -0.314108  -0.563199  -0.025245  2.338374  -0.005
