# generated using pymatgen
data_CdH6(C2O3)2
_symmetry_space_group_name_H-M   'P 1'
_cell_length_a   9.12026628
_cell_length_b   12.07370302
_cell_length_c   12.31100000
_cell_angle_alpha   90.00000000
_cell_angle_beta   90.00000000
_cell_angle_gamma   90.00000000
_symmetry_Int_Tables_number   1
_chemical_formula_structural   CdH6(C2O3)2
_chemical_formula_sum   'Cd8 H48 C32 O48'
_cell_volume   1355.63052295
_cell_formula_units_Z   8
loop_
 _symmetry_equiv_pos_site_id
 _symmetry_equiv_pos_as_xyz
  1  'x, y, z'
loop_
 _atom_site_type_symbol
 _atom_site_label
 _atom_site_symmetry_multiplicity
 _atom_site_fract_x
 _atom_site_fract_y
 _atom_site_fract_z
 _atom_site_occupancy
 _atom_site_hle17_bader_spin_density
 _atom_site_hle17_ddec_charge
 _atom_site_hle17_ddec_spin_density
 _atom_site_hle17_ddec_sum_bond_order
 _atom_site_hle17_magmom
 _atom_site_hse06_10hf_bader_spin_density
 _atom_site_hse06_10hf_ddec_charge
 _atom_site_hse06_10hf_ddec_spin_density
 _atom_site_hse06_10hf_ddec_sum_bond_order
 _atom_site_hse06_10hf_magmom
 _atom_site_hse06_bader_spin_density
 _atom_site_hse06_ddec_charge
 _atom_site_hse06_ddec_spin_density
 _atom_site_hse06_ddec_sum_bond_order
 _atom_site_hse06_magmom
 _atom_site_pbe_bader_charge
 _atom_site_pbe_bader_spin_density
 _atom_site_pbe_cm5_charge
 _atom_site_pbe_ddec_charge
 _atom_site_pbe_ddec_spin_density
 _atom_site_pbe_ddec_sum_bond_order
 _atom_site_pbe_magmom
Cd  Cd0  1  0.08254145  0.22695026  0.73368695  1  0  1.24335  0  1.568525  0  0  1.061849  0  2.011422  0  0  1.122187  0  1.950582  0  1.326794  0  0.775439  1.018505  0  2.053546  0
Cd  Cd1  1  0.41745163  0.77304866  0.23368695  1  0  1.243362  0  1.568533  0  0  1.061841  0  2.011422  0  0  1.122173  0  1.950586  0  1.326865  0  0.775416  1.018498  0  2.053543  0
Cd  Cd2  1  0.58254549  0.27304879  0.26631387  1  0  1.243334  0  1.568586  0  0  1.061844  0  2.0115  0  0  1.122184  0  1.950658  0  1.326791  0  0.775413  1.018501  0  2.053625  0
Cd  Cd3  1  0.91745786  0.72695096  0.76631062  1  0  1.243378  0  1.568559  0  0  1.06186  0  2.011457  0  0  1.122198  0  1.950615  0  1.326721  0  0.775441  1.018516  0  2.053578  0
Cd  Cd4  1  0.91745677  0.77305032  0.26631224  1  0  1.243372  0  1.568541  0  0  1.061851  0  2.011436  0  0  1.122187  0  1.950598  0  1.326833  0  0.775435  1.018508  0  2.053559  0
Cd  Cd5  1  0.58254549  0.22695026  0.76631468  1  0  1.243348  0  1.568548  0  0  1.061822  0  2.011452  0  0  1.12216  0  1.95061  0  1.326792  0  0.775412  1.018477  0  2.053575  0
Cd  Cd6  1  0.41745821  0.72695013  0.73368451  1  0  1.243367  0  1.568528  0  0  1.06189  0  2.011424  0  0  1.122225  0  1.950585  0  1.326738  0  0.775438  1.018548  0  2.053547  0
Cd  Cd7  1  0.08254474  0.27305127  0.23368857  1  0  1.243377  0  1.568604  0  0  1.061848  0  2.011513  0  0  1.122188  0  1.950668  0  1.32682  0  0.775446  1.018505  0  2.053635  0
H  H8  1  0.10468006  0.27993483  0.95596946  1  0  0.424454  0  0.863552  0  0  0.394075  0  0.932585  0  0  0.40327  0  0.919349  0  0.646034  0  0.298156  0.387481  0  0.942065  0
H  H9  1  0.39532289  0.72006823  0.45596865  1  0  0.424582  0  0.863489  0  0  0.394201  0  0.932422  0  0  0.403405  0  0.91918  0  0.646044  0  0.298197  0.387606  0  0.941904  0
H  H10  1  0.60468191  0.22006670  0.04403135  1  0  0.424596  0  0.863441  0  0  0.394228  0  0.932379  0  0  0.403421  0  0.919148  0  0.646025  0  0.298199  0.387635  0  0.941859  0
H  H11  1  0.89532254  0.77993388  0.54402892  1  0  0.424536  0  0.863469  0  0  0.394141  0  0.93249  0  0  0.403345  0  0.919248  0  0.646033  0  0.298181  0.387547  0  0.94197  0
H  H12  1  0.89532035  0.72006492  0.04403054  1  0  0.424477  0  0.863519  0  0  0.394096  0  0.932554  0  0  0.40329  0  0.919319  0  0.646037  0  0.298168  0.387502  0  0.942033  0
H  H13  1  0.60467642  0.27993152  0.54403217  1  0  0.424491  0  0.863515  0  0  0.394098  0  0.932546  0  0  0.403303  0  0.919303  0  0.646059  0  0.298179  0.387503  0  0.942028  0
H  H14  1  0.39531850  0.77993305  0.95596621  1  0  0.424471  0  0.863556  0  0  0.394093  0  0.932562  0  0  0.403287  0  0.919329  0  0.646047  0  0.298161  0.387498  0  0.942042  0
H  H15  1  0.10467786  0.22006670  0.45597027  1  0  0.424473  0  0.863512  0  0  0.394071  0  0.93258  0  0  0.403277  0  0.919337  0  0.646035  0  0.298159  0.387477  0  0.942059  0
H  H16  1  0.93857676  0.30271740  0.92688734  1  0  0.428996  0  0.865587  0  0  0.39775  0  0.929264  0  0  0.407607  0  0.915137  0  0.629961  0  0.295596  0.390614  0  0.939518  0
H  H17  1  0.56142330  0.69728152  0.42688490  1  0  0.429019  0  0.865558  0  0  0.397778  0  0.929235  0  0  0.407637  0  0.915104  0  0.629943  0  0.295582  0.390642  0  0.939488  0
H  H18  1  0.43858040  0.19728247  0.07311591  1  0  0.42905  0  0.865512  0  0  0.397819  0  0.929175  0  0  0.407679  0  0.915041  0  0.629967  0  0.295616  0.390682  0  0.939429  0
H  H19  1  0.06142474  0.80272059  0.57311348  1  0  0.428992  0  0.865601  0  0  0.397734  0  0.929288  0  0  0.407593  0  0.91516  0  0.629932  0  0.295593  0.390598  0  0.939542  0
H  H20  1  0.06142255  0.69728235  0.07311266  1  0  0.428968  0  0.865632  0  0  0.397716  0  0.929313  0  0  0.407573  0  0.915188  0  0.629964  0  0.295587  0.390581  0  0.939566  0
H  H21  1  0.43857601  0.30271823  0.57311672  1  0  0.428972  0  0.865619  0  0  0.397732  0  0.929295  0  0  0.40759  0  0.915166  0  0.629971  0  0.295586  0.390596  0  0.939548  0
H  H22  1  0.56142220  0.80271645  0.92688409  1  0  0.428989  0  0.865599  0  0  0.397756  0  0.929268  0  0  0.407614  0  0.91514  0  0.629979  0  0.295588  0.39062  0  0.939523  0
H  H23  1  0.93857676  0.19727916  0.42688571  1  0  0.428989  0  0.865607  0  0  0.39774  0  0.929279  0  0  0.407598  0  0.915153  0  0.629976  0  0.295603  0.390604  0  0.939533  0
H  H24  1  0.01972092  0.49747786  0.34616197  1  0  0.392872  0  0.905335  0  0  0.366351  0  0.976215  0  0  0.377746  0  0.960324  0  0.647399  0  0.296591  0.358339  0  0.984815  0
H  H25  1  0.48028203  0.50252271  0.84616197  1  0  0.392878  0  0.905321  0  0  0.366351  0  0.976207  0  0  0.377746  0  0.960322  0  0.647389  0  0.296571  0.358338  0  0.984808  0
H  H26  1  0.51971947  0.00252532  0.65383803  1  0  0.392852  0  0.905387  0  0  0.366342  0  0.976251  0  0  0.377735  0  0.960346  0  0.647414  0  0.296571  0.358329  0  0.984851  0
H  H27  1  0.98027949  0.99747691  0.15383722  1  0  0.392906  0  0.905307  0  0  0.366377  0  0.976198  0  0  0.377772  0  0.960292  0  0.647408  0  0.296582  0.358364  0  0.984799  0
H  H28  1  0.98028278  0.50252271  0.65383559  1  0  0.392897  0  0.905362  0  0  0.366389  0  0.976209  0  0  0.377783  0  0.960281  0  0.647389  0  0.29659  0.358376  0  0.984811  0
H  H29  1  0.51971947  0.49747621  0.15383803  1  0  0.392893  0  0.905293  0  0  0.366369  0  0.976181  0  0  0.377765  0  0.960295  0  0.647403  0  0.29658  0.358356  0  0.984782  0
H  H30  1  0.48027764  0.99747360  0.34616197  1  0  0.392899  0  0.905346  0  0  0.36639  0  0.976212  0  0  0.377786  0  0.960284  0  0.647432  0  0.296582  0.358377  0  0.984814  0
H  H31  1  0.01971872  0.00252367  0.84616522  1  0  0.392887  0  0.905328  0  0  0.366368  0  0.976201  0  0  0.377762  0  0.960304  0  0.647411  0  0.296579  0.358355  0  0.984802  0
H  H32  1  0.34510177  0.51119280  0.53517017  1  0  0.160084  0  0.939218  0  0  0.17091  0  1.00139  0  0  0.174735  0  0.999023  0  0.144406  0  0.116713  0.168162  0  1.003289  0
H  H33  1  0.15489789  0.48880447  0.03516611  1  0  0.160101  0  0.939187  0  0  0.170921  0  1.001366  0  0  0.174747  0  0.998996  0  0.144407  0  0.116721  0.168174  0  1.003264  0
H  H34  1  0.84509813  0.98880269  0.46482739  1  0  0.160034  0  0.939296  0  0  0.170855  0  1.001485  0  0  0.174682  0  0.999113  0  0.144434  0  0.116697  0.168107  0  1.003381  0
H  H35  1  0.65489645  0.01119292  0.96483145  1  0  0.16004  0  0.939206  0  0  0.17088  0  1.001378  0  0  0.174705  0  0.999009  0  0.144379  0  0.116716  0.168134  0  1.003276  0
H  H36  1  0.65489864  0.48880447  0.46482901  1  0  0.160085  0  0.939258  0  0  0.170886  0  1.001441  0  0  0.174713  0  0.999072  0  0.144401  0  0.116697  0.168137  0  1.003338  0
H  H37  1  0.84510252  0.51119445  0.96483145  1  0  0.160069  0  0.939206  0  0  0.170903  0  1.001395  0  0  0.174729  0  0.999024  0  0.144386  0  0.116713  0.168154  0  1.003291  0
H  H38  1  0.15490008  0.01119872  0.53517342  1  0  0.160139  0  0.939258  0  0  0.170961  0  1.001421  0  0  0.174788  0  0.99905  0  0.144658  0  0.116741  0.168213  0  1.003318  0
H  H39  1  0.34510286  0.98880849  0.03517099  1  0  0.160065  0  0.939284  0  0  0.17089  0  1.001436  0  0  0.174714  0  0.999074  0  0.144382  0  0.116718  0.168144  0  1.003335  0
H  H40  1  0.16192948  0.56025065  0.53092600  1  0  0.126985  0  0.921564  0  0  0.139675  0  0.979711  0  0  0.142835  0  0.977984  0  0.072279  0  0.10425  0.137377  0  0.981106  0
H  H41  1  0.33807127  0.43974827  0.03092113  1  0  0.126967  0  0.921524  0  0  0.139684  0  0.979651  0  0  0.142836  0  0.977932  0  0.072302  0  0.104229  0.137386  0  0.981048  0
H  H42  1  0.66192695  0.93974566  0.46907562  1  0  0.126934  0  0.92153  0  0  0.1396  0  0.979718  0  0  0.14276  0  0.977989  0  0.072189  0  0.104213  0.137304  0  0.981115  0
H  H43  1  0.83806983  0.06024829  0.96907481  1  0  0.126969  0  0.921466  0  0  0.139651  0  0.979651  0  0  0.14281  0  0.977923  0  0.072333  0  0.10422  0.137353  0  0.98105  0
H  H44  1  0.83807093  0.43974744  0.46907237  1  0  0.127002  0  0.921523  0  0  0.139652  0  0.979697  0  0  0.142812  0  0.977969  0  0.072216  0  0.104233  0.137353  0  0.981094  0
H  H45  1  0.66192914  0.56025065  0.96907644  1  0  0.126956  0  0.921518  0  0  0.139684  0  0.97965  0  0  0.142839  0  0.977928  0  0.072293  0  0.104236  0.137385  0  0.981049  0
H  H46  1  0.33807237  0.06025409  0.53092438  1  0  0.12697  0  0.921501  0  0  0.139632  0  0.979695  0  0  0.142793  0  0.977967  0  0.072223  0  0.104208  0.137335  0  0.981094  0
H  H47  1  0.16192948  0.93975311  0.03092763  1  0  0.127012  0  0.921489  0  0  0.139687  0  0.97964  0  0  0.142845  0  0.977916  0  0.072089  0  0.104252  0.13739  0  0.981036  0
H  H48  1  0.26003188  0.54841170  0.34754122  1  0  0.073138  0  0.904638  0  0  0.08572  0  0.960707  0  0  0.087128  0  0.960002  0  0.093307  0  0.11692  0.08475  0  0.961266  0
H  H49  1  0.23996997  0.45158805  0.84753554  1  0  0.073198  0  0.904567  0  0  0.085772  0  0.960664  0  0  0.087182  0  0.959955  0  0.093278  0  0.116927  0.084801  0  0.961223  0
H  H50  1  0.76003044  0.95158958  0.65245878  1  0  0.073112  0  0.904722  0  0  0.0857  0  0.960771  0  0  0.087109  0  0.960067  0  0.093314  0  0.116934  0.08473  0  0.961329  0
H  H51  1  0.73996743  0.04841017  0.15246040  1  0  0.073136  0  0.904673  0  0  0.085713  0  0.960714  0  0  0.087121  0  0.960011  0  0.093338  0  0.116944  0.084742  0  0.961272  0
H  H52  1  0.73997291  0.45158722  0.65245878  1  0  0.07306  0  0.904773  0  0  0.085653  0  0.960833  0  0  0.087059  0  0.960133  0  0.093291  0  0.116923  0.084682  0  0.961393  0
H  H53  1  0.76003154  0.54841170  0.15246203  1  0  0.073147  0  0.904667  0  0  0.085723  0  0.960731  0  0  0.08713  0  0.960027  0  0.093303  0  0.116921  0.084753  0  0.96129  0
H  H54  1  0.23996777  0.04841100  0.34754122  1  0  0.073137  0  0.904719  0  0  0.085722  0  0.960769  0  0  0.087131  0  0.960064  0  0.093335  0  0.116926  0.084752  0  0.961327  0
H  H55  1  0.26003188  0.95159207  0.84754285  1  0  0.073116  0  0.904697  0  0  0.085721  0  0.960748  0  0  0.087128  0  0.960048  0  0.093415  0  0.116971  0.08475  0  0.961307  0
C  C56  1  0.18649894  0.38821727  0.57403054  1  0  0.72707  0  3.802645  0  0  0.67383  0  4.103061  0  0  0.70807  0  4.095785  0  1.532525  0  0.216665  0.65066  0  4.107068  0
C  C57  1  0.31349852  0.61178414  0.07402973  1  0  0.727222  0  3.802586  0  0  0.673959  0  4.103016  0  0  0.708201  0  4.095748  0  1.532639  0  0.216759  0.650793  0  4.107019  0
C  C58  1  0.68649311  0.11177847  0.42596134  1  0  0.727089  0  3.802896  0  0  0.673863  0  4.103302  0  0  0.708099  0  4.096026  0  1.532941  0  0.216706  0.650697  0  4.107307  0
C  C59  1  0.81349708  0.88821714  0.92596783  1  0  0.72709  0  3.802799  0  0  0.673854  0  4.103211  0  0  0.708092  0  4.095937  0  1.53268  0  0.216736  0.650687  0  4.107214  0
C  C60  1  0.81350147  0.61178000  0.42596702  1  0  0.727171  0  3.802653  0  0  0.673933  0  4.103035  0  0  0.708171  0  4.095758  0  1.532538  0  0.216733  0.650764  0  4.107043  0
C  C61  1  0.68650189  0.38821810  0.92597027  1  0  0.727151  0  3.802695  0  0  0.673905  0  4.103127  0  0  0.708142  0  4.095857  0  1.532591  0  0.216719  0.650737  0  4.107133  0
C  C62  1  0.31350400  0.88822046  0.57403785  1  0  0.727085  0  3.802887  0  0  0.673959  0  4.10312  0  0  0.708197  0  4.09584  0  1.532703  0  0.216802  0.650791  0  4.107127  0
C  C63  1  0.18650223  0.11178426  0.07403623  1  0  0.727004  0  3.802948  0  0  0.673929  0  4.103082  0  0  0.708165  0  4.095804  0  1.532747  0  0.216746  0.650761  0  4.107088  0
C  C64  1  0.23242194  0.48966667  0.51058728  1  0  -0.338883  0  3.627242  0  0  -0.382111  0  3.875272  0  0  -0.389196  0  3.880519  0  -0.05749  0  -0.170356  -0.37713  0  3.87165  0
C  C65  1  0.26757662  0.51033225  0.01058322  1  0  -0.338832  0  3.627125  0  0  -0.382058  0  3.875169  0  0  -0.38914  0  3.880424  0  -0.057463  0  -0.170343  -0.377086  0  3.871556  0
C  C66  1  0.73241831  0.01033072  0.48941028  1  0  -0.338585  0  3.627102  0  0  -0.381811  0  3.875124  0  0  -0.388894  0  3.880375  0  -0.057422  0  -0.170274  -0.376837  0  3.871509  0
C  C67  1  0.76757408  0.98966572  0.98941353  1  0  -0.338729  0  3.627081  0  0  -0.382023  0  3.875159  0  0  -0.389105  0  3.880405  0  -0.057445  0  -0.170331  -0.377053  0  3.871551  0
C  C68  1  0.76757956  0.51033059  0.48941110  1  0  -0.338847  0  3.627283  0  0  -0.381978  0  3.875199  0  0  -0.389065  0  3.880451  0  -0.057365  0  -0.170296  -0.376996  0  3.871576  0
C  C69  1  0.73242379  0.48966833  0.98941516  1  0  -0.338757  0  3.62709  0  0  -0.382077  0  3.875199  0  0  -0.389158  0  3.88045  0  -0.057477  0  -0.170382  -0.377099  0  3.871583  0
C  C70  1  0.26757991  0.98966986  0.51059053  1  0  -0.33875  0  3.627088  0  0  -0.381993  0  3.875069  0  0  -0.389076  0  3.880316  0  -0.057655  0  -0.170339  -0.37702  0  3.871461  0
C  C71  1  0.23242413  0.01033569  0.01059053  1  0  -0.338878  0  3.62716  0  0  -0.382113  0  3.875119  0  0  -0.389201  0  3.880369  0  -0.057203  0  -0.170403  -0.37714  0  3.871504  0
C  C72  1  0.22990557  0.46987738  0.38771261  1  0  0.156817  0  3.63227  0  0  0.131783  0  3.887392  0  0  0.134387  0  3.89542  0  0.493648  0  0.00242  0.129904  0  3.881826  0
C  C73  1  0.27009518  0.53012237  0.88770855  1  0  0.156719  0  3.632323  0  0  0.131653  0  3.887537  0  0  0.134254  0  3.89557  0  0.493657  0  0.002386  0.129776  0  3.881973  0
C  C74  1  0.72990413  0.03012332  0.61228495  1  0  0.156706  0  3.632349  0  0  0.131708  0  3.887442  0  0  0.134316  0  3.895464  0  0.493551  0  0.002397  0.129832  0  3.881878  0
C  C75  1  0.77009374  0.96987560  0.11228820  1  0  0.156791  0  3.632402  0  0  0.131828  0  3.887362  0  0  0.134429  0  3.89539  0  0.493546  0  0.002406  0.129951  0  3.881796  0
C  C76  1  0.77009813  0.53012154  0.61228495  1  0  0.156769  0  3.632423  0  0  0.131735  0  3.887579  0  0  0.134342  0  3.895605  0  0.493956  0  0.002408  0.129856  0  3.882015  0
C  C77  1  0.72990522  0.46987656  0.11228982  1  0  0.156704  0  3.632396  0  0  0.131692  0  3.887479  0  0  0.134296  0  3.895508  0  0.493657  0  0.002395  0.129815  0  3.881914  0
C  C78  1  0.27009299  0.96987643  0.38771586  1  0  0.156644  0  3.632386  0  0  0.131663  0  3.887485  0  0  0.134268  0  3.895509  0  0.493513  0  0.002397  0.129787  0  3.88192  0
C  C79  1  0.22990338  0.03012663  0.88771586  1  0  0.156786  0  3.632396  0  0  0.13172  0  3.887567  0  0  0.134326  0  3.895589  0  0.493881  0  0.002374  0.129842  0  3.882001  0
C  C80  1  0.34748328  0.38824791  0.35067744  1  0  0.637521  0  3.839397  0  0  0.581248  0  4.141115  0  0  0.615927  0  4.135491  0  1.553731  0  0.20329  0.557604  0  4.144183  0
C  C81  1  0.15251857  0.61175349  0.85067338  1  0  0.637641  0  3.839376  0  0  0.581352  0  4.141138  0  0  0.616028  0  4.13552  0  1.553763  0  0.203388  0.557709  0  4.144205  0
C  C82  1  0.84748184  0.11175279  0.64931931  1  0  0.637644  0  3.839282  0  0  0.581313  0  4.141077  0  0  0.615992  0  4.135448  0  1.553721  0  0.203317  0.557668  0  4.144148  0
C  C83  1  0.65251713  0.88824365  0.14932337  1  0  0.637397  0  3.83962  0  0  0.581213  0  4.141145  0  0  0.615892  0  4.135525  0  1.55384  0  0.203282  0.55757  0  4.144209  0
C  C84  1  0.65252042  0.61175101  0.64932012  1  0  0.637752  0  3.839091  0  0  0.581368  0  4.140994  0  0  0.616046  0  4.135368  0  1.553355  0  0.203325  0.557723  0  4.144065  0
C  C85  1  0.84748293  0.38824708  0.14932418  1  0  0.637482  0  3.839577  0  0  0.581282  0  4.14117  0  0  0.61596  0  4.135548  0  1.553731  0  0.203315  0.557638  0  4.144237  0
C  C86  1  0.15251528  0.88824779  0.35068069  1  0  0.637666  0  3.839258  0  0  0.581283  0  4.141126  0  0  0.615962  0  4.135501  0  1.553729  0  0.203304  0.557638  0  4.144194  0
C  C87  1  0.34747999  0.11175776  0.85068069  1  0  0.637573  0  3.839437  0  0  0.581293  0  4.141174  0  0  0.615973  0  4.135549  0  1.553398  0  0.203331  0.557651  0  4.14424  0
O  O88  1  0.24050394  0.29420137  0.55044188  1  0  -0.668258  0  1.952262  0  0  -0.598501  0  2.169433  0  0  -0.624686  0  2.158294  0  -1.200909  0  -0.314264  -0.579973  0  2.176616  0
O  O89  1  0.25949242  0.70580003  0.05043944  1  0  -0.668324  0  1.95221  0  0  -0.598615  0  2.169485  0  0  -0.624759  0  2.158252  0  -1.201008  0  -0.314321  -0.580085  0  2.176665  0
O  O90  1  0.74050031  0.20579436  0.44955000  1  0  -0.668301  0  1.952506  0  0  -0.598525  0  2.169608  0  0  -0.624711  0  2.158483  0  -1.201017  0  -0.314284  -0.579995  0  2.17679  0
O  O91  1  0.75949098  0.79420042  0.94955487  1  0  -0.668256  0  1.952326  0  0  -0.598531  0  2.169525  0  0  -0.624706  0  2.15837  0  -1.200971  0  -0.314305  -0.580001  0  2.176705  0
O  O92  1  0.75949427  0.70579589  0.44955487  1  0  -0.668303  0  1.952283  0  0  -0.598567  0  2.169454  0  0  -0.62475  0  2.158317  0  -1.200837  0  -0.314318  -0.580039  0  2.176638  0
O  O93  1  0.74050689  0.29420220  0.94955893  1  0  -0.66831  0  1.952326  0  0  -0.598569  0  2.169508  0  0  -0.624748  0  2.15836  0  -1.200945  0  -0.314281  -0.58004  0  2.17669  0
O  O94  1  0.25949681  0.79420456  0.55044757  1  0  -0.668268  0  1.952469  0  0  -0.598549  0  2.169558  0  0  -0.624734  0  2.158426  0  -1.200848  0  -0.31432  -0.58002  0  2.176741  0
O  O95  1  0.24050833  0.20580099  0.05045000  1  0  -0.668185  0  1.952456  0  0  -0.598539  0  2.169574  0  0  -0.624723  0  2.158436  0  -1.200957  0  -0.314289  -0.58001  0  2.176755  0
O  O96  1  0.04007229  0.31091787  0.89950045  1  0  -0.816975  0  1.885074  0  0  -0.755469  0  2.083306  0  0  -0.778465  0  2.052261  0  -1.230697  0  -0.578947  -0.739228  0  2.105281  0
O  O97  1  0.45992626  0.68908271  0.39950045  1  0  -0.817138  0  1.885042  0  0  -0.755643  0  2.083251  0  0  -0.778653  0  2.052168  0  -1.230713  0  -0.578976  -0.739405  0  2.105233  0
O  O98  1  0.54007743  0.18908201  0.10050037  1  0  -0.817177  0  1.88496  0  0  -0.755727  0  2.083175  0  0  -0.778723  0  2.052118  0  -1.230701  0  -0.579011  -0.739489  0  2.105156  0
O  O99  1  0.95992702  0.81091857  0.60049874  1  0  -0.817074  0  1.885037  0  0  -0.755554  0  2.083377  0  0  -0.778566  0  2.052293  0  -1.230588  0  -0.578981  -0.73931  0  2.10534  0
O  O100  1  0.95992811  0.68908271  0.10050037  1  0  -0.816968  0  1.885075  0  0  -0.755458  0  2.083352  0  0  -0.778458  0  2.052305  0  -1.230707  0  -0.578946  -0.739222  0  2.10533  0
O  O101  1  0.54007195  0.31091704  0.60050118  1  0  -0.816976  0  1.885076  0  0  -0.755467  0  2.08332  0  0  -0.778477  0  2.052239  0  -1.230746  0  -0.578956  -0.739225  0  2.105292  0
O  O102  1  0.45992626  0.81091691  0.89949801  1  0  -0.816982  0  1.885075  0  0  -0.755518  0  2.083283  0  0  -0.778516  0  2.052237  0  -1.230766  0  -0.578953  -0.739285  0  2.105275  0
O  O103  1  0.04007339  0.18908201  0.39950045  1  0  -0.816991  0  1.885045  0  0  -0.755471  0  2.083393  0  0  -0.778484  0  2.052306  0  -1.230707  0  -0.578957  -0.739233  0  2.105371  0
O  O104  1  0.09488100  0.39954188  0.65299651  1  0  -0.651206  0  2.004783  0  0  -0.574756  0  2.244175  0  0  -0.606168  0  2.231695  0  -1.161866  0  -0.312641  -0.552774  0  2.251528  0
O  O105  1  0.40511536  0.60045787  0.15299569  1  0  -0.651289  0  2.004877  0  0  -0.574776  0  2.244231  0  0  -0.606195  0  2.23176  0  -1.161838  0  -0.312624  -0.552794  0  2.251581  0
O  O106  1  0.59487956  0.10045303  0.34699699  1  0  -0.651258  0  2.004836  0  0  -0.574823  0  2.244233  0  0  -0.606247  0  2.23178  0  -1.162103  0  -0.312664  -0.552842  0  2.251586  0
O  O107  1  0.90511721  0.89954093  0.84700349  1  0  -0.651307  0  2.004952  0  0  -0.574777  0  2.244252  0  0  -0.606204  0  2.231808  0  -1.161961  0  -0.312682  -0.552795  0  2.251602  0
O  O108  1  0.90512050  0.60045787  0.34700187  1  0  -0.651296  0  2.004796  0  0  -0.574819  0  2.24415  0  0  -0.606239  0  2.231691  0  -1.161929  0  -0.312678  -0.552837  0  2.251504  0
O  O109  1  0.59488395  0.39954188  0.84700512  1  0  -0.651269  0  2.004895  0  0  -0.574738  0  2.244219  0  0  -0.606152  0  2.231748  0  -1.161833  0  -0.31262  -0.552756  0  2.251571  0
O  O110  1  0.40512085  0.89954590  0.65300301  1  0  -0.651258  0  2.004877  0  0  -0.574856  0  2.244222  0  0  -0.606286  0  2.231784  0  -1.162059  0  -0.31269  -0.552874  0  2.251576  0
O  O111  1  0.09488100  0.10045882  0.15299894  1  0  -0.65128  0  2.005018  0  0  -0.574788  0  2.244217  0  0  -0.606219  0  2.231782  0  -1.162036  0  -0.312672  -0.552806  0  2.251569  0
O  O112  1  0.31629449  0.30966804  0.28392738  1  0  -0.673952  0  2.052377  0  0  -0.594558  0  2.31714  0  0  -0.627893  0  2.30334  0  -1.168617  0  -0.334662  -0.571052  0  2.325638  0
O  O113  1  0.18370736  0.69033088  0.78392251  1  0  -0.674057  0  2.052402  0  0  -0.594654  0  2.317178  0  0  -0.627992  0  2.303381  0  -1.168677  0  -0.334738  -0.57115  0  2.325677  0
O  O114  1  0.81629415  0.19033183  0.71607018  1  0  -0.673994  0  2.052354  0  0  -0.594583  0  2.317147  0  0  -0.627922  0  2.303349  0  -1.168579  0  -0.334646  -0.571078  0  2.325647  0
O  O115  1  0.68370701  0.80966543  0.21607181  1  0  -0.673925  0  2.052415  0  0  -0.594576  0  2.317122  0  0  -0.627911  0  2.303326  0  -1.168689  0  -0.334655  -0.571072  0  2.325621  0
O  O116  1  0.68370811  0.69033088  0.71607099  1  0  -0.674037  0  2.052224  0  0  -0.594616  0  2.317053  0  0  -0.627951  0  2.303252  0  -1.168562  0  -0.334683  -0.57111  0  2.325553  0
O  O117  1  0.81629525  0.30966970  0.21607505  1  0  -0.673962  0  2.052488  0  0  -0.594611  0  2.317238  0  0  -0.627946  0  2.303437  0  -1.16866  0  -0.334695  -0.571106  0  2.325737  0
O  O118  1  0.18370407  0.80966875  0.28393063  1  0  -0.673991  0  2.052352  0  0  -0.594555  0  2.31715  0  0  -0.627895  0  2.303354  0  -1.16857  0  -0.334643  -0.571049  0  2.325648  0
O  O119  1  0.31629120  0.19033680  0.78393063  1  0  -0.673934  0  2.052316  0  0  -0.59454  0  2.31709  0  0  -0.627879  0  2.303295  0  -1.168663  0  -0.334643  -0.571031  0  2.325578  0
O  O120  1  0.47782486  0.40380238  0.38167574  1  0  -0.607918  0  2.021636  0  0  -0.545051  0  2.271197  0  0  -0.574383  0  2.261151  0  -1.15197  0  -0.306892  -0.524927  0  2.277895  0
O  O121  1  0.02217589  0.59619903  0.88167168  1  0  -0.607944  0  2.021619  0  0  -0.545057  0  2.27117  0  0  -0.574392  0  2.261128  0  -1.151937  0  -0.306913  -0.524933  0  2.277864  0
O  O122  1  0.97782342  0.09619750  0.61832183  1  0  -0.60802  0  2.021675  0  0  -0.545139  0  2.271267  0  0  -0.574469  0  2.261215  0  -1.151964  0  -0.306943  -0.525014  0  2.277965  0
O  O123  1  0.52217335  0.90380060  0.11832751  1  0  -0.607859  0  2.021682  0  0  -0.545004  0  2.271144  0  0  -0.574339  0  2.261106  0  -1.151933  0  -0.306899  -0.524879  0  2.277838  0
O  O124  1  0.52217774  0.59619654  0.61832264  1  0  -0.608033  0  2.021585  0  0  -0.545138  0  2.271217  0  0  -0.57447  0  2.261167  0  -1.15191  0  -0.306931  -0.525015  0  2.277918  0
O  O125  1  0.97782452  0.40380155  0.11832426  1  0  -0.607888  0  2.021702  0  0  -0.545038  0  2.27121  0  0  -0.57437  0  2.261165  0  -1.151957  0  -0.306882  -0.524914  0  2.277907  0
O  O126  1  0.02217369  0.90380308  0.38167899  1  0  -0.608012  0  2.021559  0  0  -0.545086  0  2.271146  0  0  -0.574416  0  2.261096  0  -1.152058  0  -0.306931  -0.524961  0  2.277842  0
O  O127  1  0.47782377  0.09620081  0.88167574  1  0  -0.607953  0  2.021648  0  0  -0.545094  0  2.271218  0  0  -0.574424  0  2.261168  0  -1.151875  0  -0.306945  -0.524969  0  2.277914  0
O  O128  1  0.08944805  0.43316868  0.35193323  1  0  -0.614075  0  2.166668  0  0  -0.552716  0  2.407446  0  0  -0.573063  0  2.391582  0  -1.168566  0  -0.408267  -0.538281  0  2.416223  0
O  O129  1  0.41055380  0.56683273  0.85193079  1  0  -0.614096  0  2.166646  0  0  -0.552735  0  2.407464  0  0  -0.573082  0  2.391606  0  -1.168584  0  -0.408255  -0.538298  0  2.416241  0
O  O130  1  0.58944661  0.06683368  0.64806514  1  0  -0.614039  0  2.16676  0  0  -0.552685  0  2.407495  0  0  -0.57303  0  2.391615  0  -1.168605  0  -0.408246  -0.538248  0  2.41627  0
O  O131  1  0.91055236  0.93316773  0.14806677  1  0  -0.614086  0  2.166666  0  0  -0.552768  0  2.407439  0  0  -0.573113  0  2.391563  0  -1.168571  0  -0.408258  -0.538331  0  2.416217  0
O  O132  1  0.91055565  0.56683190  0.64806352  1  0  -0.614075  0  2.166773  0  0  -0.552725  0  2.407555  0  0  -0.573071  0  2.391654  0  -1.168601  0  -0.408258  -0.538289  0  2.416333  0
O  O133  1  0.58944770  0.43316702  0.14806839  1  0  -0.614059  0  2.166673  0  0  -0.552717  0  2.407458  0  0  -0.573064  0  2.391598  0  -1.168592  0  -0.408243  -0.53828  0  2.416234  0
O  O134  1  0.41055051  0.93316607  0.35193567  1  0  -0.6141  0  2.166744  0  0  -0.552763  0  2.407502  0  0  -0.573108  0  2.391605  0  -1.168561  0  -0.408266  -0.538326  0  2.416278  0
O  O135  1  0.08944476  0.06683451  0.85193567  1  0  -0.614058  0  2.16669  0  0  -0.552719  0  2.407501  0  0  -0.573063  0  2.391627  0  -1.168619  0  -0.40826  -0.538283  0  2.416278  0
