# generated using pymatgen
data_CdH11C20(NO2)3
_symmetry_space_group_name_H-M   'P 1'
_cell_length_a   7.37794693
_cell_length_b   10.27991619
_cell_length_c   11.81379253
_cell_angle_alpha   85.25187734
_cell_angle_beta   80.55722991
_cell_angle_gamma   78.94832437
_symmetry_Int_Tables_number   1
_chemical_formula_structural   CdH11C20(NO2)3
_chemical_formula_sum   'Cd2 H22 C40 N6 O12'
_cell_volume   866.26070069
_cell_formula_units_Z   2
loop_
 _symmetry_equiv_pos_site_id
 _symmetry_equiv_pos_as_xyz
  1  'x, y, z'
loop_
 _atom_site_type_symbol
 _atom_site_label
 _atom_site_symmetry_multiplicity
 _atom_site_fract_x
 _atom_site_fract_y
 _atom_site_fract_z
 _atom_site_occupancy
 _atom_site_hle17_bader_spin_density
 _atom_site_hle17_ddec_charge
 _atom_site_hle17_ddec_spin_density
 _atom_site_hle17_ddec_sum_bond_order
 _atom_site_hle17_magmom
 _atom_site_hse06_10hf_bader_spin_density
 _atom_site_hse06_10hf_ddec_charge
 _atom_site_hse06_10hf_ddec_spin_density
 _atom_site_hse06_10hf_ddec_sum_bond_order
 _atom_site_hse06_10hf_magmom
 _atom_site_hse06_bader_spin_density
 _atom_site_hse06_ddec_charge
 _atom_site_hse06_ddec_spin_density
 _atom_site_hse06_ddec_sum_bond_order
 _atom_site_hse06_magmom
 _atom_site_pbe_bader_spin_density
 _atom_site_pbe_cm5_charge
 _atom_site_pbe_ddec_charge
 _atom_site_pbe_ddec_spin_density
 _atom_site_pbe_ddec_sum_bond_order
 _atom_site_pbe_magmom
Cd  Cd0  1  0.80717433  0.11573188  0.09958083  1  0  1.13166  0  1.617721  0  0  0.932548  0  2.057943  0  0  0.995463  0  2.00439  0  0  0.777419  0.888453  0  2.094088  0
Cd  Cd1  1  0.19282139  0.88426954  0.90041741  1  0  1.131586  0  1.617804  0  0  0.932459  0  2.058038  0  0  0.995377  0  2.004486  0  0  0.777388  0.888368  0  2.094187  0
H  H2  1  0.39792118  0.23399476  0.26660756  1  0  0.083418  0  0.944719  0  0  0.086901  0  1.016903  0  0  0.089979  0  1.013654  0  0  0.115797  0.084501  0  1.019602  0
H  H3  1  0.60208726  0.76599956  0.73339574  1  0  0.083526  0  0.944695  0  0  0.087035  0  1.016827  0  0  0.090117  0  1.013571  0  0  0.115829  0.084636  0  1.019529  0
H  H4  1  0.25520631  0.42735549  0.38538355  1  0  0.109828  0  0.94548  0  0  0.119149  0  1.001927  0  0  0.122746  0  1.000767  0  0  0.107192  0.116631  0  1.002837  0
H  H5  1  0.74479678  0.57264390  0.61461491  1  0  0.109925  0  0.945326  0  0  0.119205  0  1.001817  0  0  0.122802  0  1.000658  0  0  0.107239  0.116687  0  1.002728  0
H  H6  1  0.43757110  0.61064406  0.38841757  1  0  0.095222  0  0.953392  0  0  0.106768  0  1.013928  0  0  0.108172  0  1.014701  0  0  0.105079  0.105666  0  1.013558  0
H  H7  1  0.56242622  0.38935641  0.61157803  1  0  0.095209  0  0.95336  0  0  0.106755  0  1.013907  0  0  0.108159  0  1.01468  0  0  0.105079  0.105654  0  1.013534  0
H  H8  1  0.73145764  0.70056320  0.32204395  1  0  0.107379  0  0.9653  0  0  0.115473  0  1.032018  0  0  0.118223  0  1.030988  0  0  0.104001  0.113681  0  1.032497  0
H  H9  1  0.26854133  0.29943617  0.67795747  1  0  0.107396  0  0.965303  0  0  0.115455  0  1.032051  0  0  0.118203  0  1.031026  0  0  0.104016  0.113663  0  1.03253  0
H  H10  1  0.05011859  0.67318381  0.20850643  1  0  0.098087  0  0.975494  0  0  0.109748  0  1.037825  0  0  0.111543  0  1.038249  0  0  0.102719  0.108428  0  1.037552  0
H  H11  1  0.94988200  0.32681455  0.79149574  1  0  0.098096  0  0.975507  0  0  0.109763  0  1.037827  0  0  0.111559  0  1.038249  0  0  0.102714  0.108441  0  1.037557  0
H  H12  1  0.30290917  0.54471272  0.07933962  1  0  0.113281  0  0.937334  0  0  0.125733  0  0.994979  0  0  0.128749  0  0.993024  0  0  0.111549  0.123761  0  0.996065  0
H  H13  1  0.69709394  0.45528657  0.92066477  1  0  0.113281  0  0.937335  0  0  0.12576  0  0.994953  0  0  0.128778  0  0.992996  0  0  0.111547  0.123788  0  0.996037  0
H  H14  1  0.42858668  0.33176402  0.97380277  1  0  0.126326  0  0.982943  0  0  0.134901  0  1.043579  0  0  0.138851  0  1.041624  0  0  0.108787  0.13194  0  1.045236  0
H  H15  1  0.57141669  0.66823422  0.02620504  1  0  0.12633  0  0.982778  0  0  0.134889  0  1.043431  0  0  0.13884  0  1.041475  0  0  0.108766  0.13193  0  1.045087  0
H  H16  1  0.22935469  0.16113231  0.98957649  1  0  0.091215  0  0.936509  0  0  0.098565  0  1.00122  0  0  0.100862  0  0.998639  0  0  0.120588  0.096758  0  1.003175  0
H  H17  1  0.77065142  0.83886599  0.01042681  1  0  0.091159  0  0.936494  0  0  0.098515  0  1.00121  0  0  0.100813  0  0.998628  0  0  0.120559  0.09671  0  1.003166  0
H  H18  1  0.54454496  0.91389800  0.44147837  1  0  0.112679  0  0.970538  0  0  0.118474  0  1.037296  0  0  0.121956  0  1.035371  0  0  0.107492  0.116076  0  1.038582  0
H  H19  1  0.45545309  0.08609951  0.55851649  1  0  0.112646  0  0.970522  0  0  0.118429  0  1.037303  0  0  0.121911  0  1.035382  0  0  0.107465  0.116031  0  1.038593  0
H  H20  1  0.28482790  0.85083632  0.58918027  1  0  0.123353  0  0.957973  0  0  0.126486  0  1.028018  0  0  0.13035  0  1.02567  0  0  0.11197  0.123655  0  1.029877  0
H  H21  1  0.71517032  0.14916611  0.41081597  1  0  0.123334  0  0.957968  0  0  0.126455  0  1.028033  0  0  0.130315  0  1.025694  0  0  0.111946  0.12362  0  1.02989  0
H  H22  1  0.95705459  0.84805527  0.31944077  1  0  0.139442  0  0.966022  0  0  0.143351  0  1.035039  0  0  0.148537  0  1.030252  0  0  0.116191  0.139589  0  1.038558  0
H  H23  1  0.04293904  0.15194913  0.68055836  1  0  0.139437  0  0.966031  0  0  0.143325  0  1.035053  0  0  0.148503  0  1.030286  0  0  0.116223  0.139568  0  1.03856  0
C  C24  1  0.47527694  0.31339709  0.27088073  1  0  0.148888  0  3.703454  0  0  0.115547  0  3.963909  0  0  0.12407  0  3.981142  0  0  0.055774  0.110109  0  3.95229  0
C  C25  1  0.52473012  0.68659728  0.72912017  1  0  0.148674  0  3.7036  0  0  0.115361  0  3.963965  0  0  0.123883  0  3.981201  0  0  0.055728  0.10992  0  3.952351  0
C  C26  1  0.39464193  0.42357109  0.33689265  1  0  -0.118799  0  3.740175  0  0  -0.132643  0  3.995828  0  0  -0.1397  0  4.015984  0  0  -0.085872  -0.128108  0  3.982093  0
C  C27  1  0.60536116  0.57642829  0.66310666  1  0  -0.118843  0  3.740198  0  0  -0.132673  0  3.995845  0  0  -0.139731  0  4.016  0  0  -0.085944  -0.128137  0  3.982109  0
C  C28  1  0.49519972  0.52341682  0.33863064  1  0  -0.043315  0  3.688753  0  0  -0.064562  0  3.930221  0  0  -0.061822  0  3.948865  0  0  -0.063344  -0.065943  0  3.917379  0
C  C29  1  0.50479786  0.47658260  0.66136839  1  0  -0.043298  0  3.688657  0  0  -0.064535  0  3.930119  0  0  -0.061795  0  3.948762  0  0  -0.063296  -0.065914  0  3.91727  0
C  C30  1  0.67687374  0.51281196  0.27521213  1  0  0.028876  0  3.785918  0  0  0.047142  0  4.012847  0  0  0.044536  0  4.037358  0  0  -0.000982  0.048479  0  3.996405  0
C  C31  1  0.32312823  0.48718640  0.72478989  1  0  0.028885  0  3.786011  0  0  0.047117  0  4.012954  0  0  0.044512  0  4.03746  0  0  -0.001004  0.048454  0  3.996509  0
C  C32  1  0.78877115  0.61239137  0.27360443  1  0  -0.106866  0  3.737229  0  0  -0.129506  0  3.989753  0  0  -0.133559  0  4.013414  0  0  -0.089353  -0.126718  0  3.973668  0
C  C33  1  0.21123171  0.38760895  0.72639739  1  0  -0.106832  0  3.737216  0  0  -0.129443  0  3.989756  0  0  -0.133494  0  4.013416  0  0  -0.089355  -0.126652  0  3.973664  0
C  C34  1  0.96393195  0.59777517  0.21137652  1  0  -0.094316  0  3.749968  0  0  -0.11832  0  4.003004  0  0  -0.121239  0  4.027476  0  0  -0.085582  -0.116065  0  3.986399  0
C  C35  1  0.03607027  0.40222218  0.78862639  1  0  -0.094367  0  3.749956  0  0  -0.118367  0  4.002985  0  0  -0.121286  0  4.027453  0  0  -0.085578  -0.116112  0  3.986382  0
C  C36  1  0.04063642  0.48321906  0.14696628  1  0  0.020759  0  3.801684  0  0  0.03711  0  4.032738  0  0  0.033999  0  4.057691  0  0  -0.003698  0.039107  0  4.015806  0
C  C37  1  0.95936530  0.51678030  0.85303487  1  0  0.020872  0  3.801644  0  0  0.037207  0  4.032722  0  0  0.034098  0  4.057674  0  0  -0.003667  0.039203  0  4.015789  0
C  C38  1  0.22126541  0.46618609  0.08166924  1  0  -0.048432  0  3.678787  0  0  -0.07408  0  3.930293  0  0  -0.071676  0  3.948403  0  0  -0.06536  -0.075327  0  3.917683  0
C  C39  1  0.77873931  0.53381224  0.91833250  1  0  -0.048406  0  3.678888  0  0  -0.074087  0  3.930398  0  0  -0.071684  0  3.948509  0  0  -0.06536  -0.07533  0  3.917784  0
C  C40  1  0.28952279  0.35152923  0.02376154  1  0  -0.116768  0  3.704555  0  0  -0.133034  0  3.962365  0  0  -0.140604  0  3.982625  0  0  -0.083756  -0.128522  0  3.949184  0
C  C41  1  0.71048518  0.64846705  0.97624338  1  0  -0.116781  0  3.704523  0  0  -0.132999  0  3.962307  0  0  -0.14057  0  3.982569  0  0  -0.083721  -0.128488  0  3.949128  0
C  C42  1  0.17656994  0.25459911  0.03088236  1  0  0.182746  0  3.648364  0  0  0.149138  0  3.905121  0  0  0.15976  0  3.920293  0  0  0.0673  0.142157  0  3.895059  0
C  C43  1  0.82343455  0.74540018  0.96912189  1  0  0.182771  0  3.648316  0  0  0.14914  0  3.905074  0  0  0.15976  0  3.920246  0  0  0.067338  0.142159  0  3.895013  0
C  C44  1  0.93442539  0.38180314  0.14695774  1  0  0.131854  0  3.767981  0  0  0.124987  0  4.004258  0  0  0.129584  0  4.026963  0  0  0.116809  0.121984  0  3.98882  0
C  C45  1  0.06557934  0.61819519  0.85304485  1  0  0.13168  0  3.767947  0  0  0.124816  0  4.004219  0  0  0.129411  0  4.026925  0  0  0.116747  0.121815  0  3.988781  0
C  C46  1  0.74800222  0.39732657  0.21159493  1  0  0.135672  0  3.744519  0  0  0.127698  0  3.982241  0  0  0.132263  0  4.004572  0  0  0.117901  0.124686  0  3.967074  0
C  C47  1  0.25200273  0.60267081  0.78840431  1  0  0.13566  0  3.744629  0  0  0.127723  0  3.982297  0  0  0.13229  0  4.004625  0  0  0.117876  0.124708  0  3.96713  0
C  C48  1  0.54577685  0.97205447  0.21782824  1  0  0.606306  0  3.956936  0  0  0.560129  0  4.247478  0  0  0.593564  0  4.243184  0  0  0.189173  0.537222  0  4.2498  0
C  C49  1  0.45422186  0.02794598  0.78216807  1  0  0.606203  0  3.956988  0  0  0.56004  0  4.247508  0  0  0.593475  0  4.243218  0  0  0.189132  0.537134  0  4.249832  0
C  C50  1  0.39840912  0.91406791  0.29915675  1  0  -0.032005  0  3.659393  0  0  -0.026242  0  3.89866  0  0  -0.029356  0  3.916915  0  0  0.00278  -0.02437  0  3.886982  0
C  C51  1  0.60159072  0.08593351  0.70084023  1  0  -0.032077  0  3.6595  0  0  -0.026304  0  3.89873  0  0  -0.029419  0  3.916985  0  0  0.002767  -0.024431  0  3.887052  0
C  C52  1  0.41582474  0.89755201  0.41613612  1  0  -0.067812  0  3.70643  0  0  -0.09036  0  3.963741  0  0  -0.092096  0  3.982191  0  0  -0.08052  -0.089306  0  3.951657  0
C  C53  1  0.58417372  0.10244946  0.58385846  1  0  -0.067804  0  3.706376  0  0  -0.090345  0  3.96368  0  0  -0.092082  0  3.982131  0  0  -0.080482  -0.089296  0  3.951597  0
C  C54  1  0.27326297  0.86186270  0.49814398  1  0  -0.097851  0  3.711645  0  0  -0.127322  0  3.978214  0  0  -0.126495  0  3.995252  0  0  -0.083477  -0.127668  0  3.966739  0
C  C55  1  0.72673137  0.13813876  0.50185271  1  0  -0.097809  0  3.711581  0  0  -0.127288  0  3.978152  0  0  -0.126458  0  3.995186  0  0  -0.083494  -0.127644  0  3.966702  0
C  C56  1  0.11054968  0.84432799  0.46022582  1  0  0.070367  0  3.735283  0  0  0.058931  0  3.994801  0  0  0.056591  0  4.017641  0  0  0.069122  0.060341  0  3.979314  0
C  C57  1  0.88944645  0.15567741  0.53977130  1  0  0.070294  0  3.735295  0  0  0.058908  0  3.994736  0  0  0.056568  0  4.017571  0  0  0.069139  0.060317  0  3.979249  0
C  C58  1  0.08913117  0.85800148  0.34443236  1  0  -0.122186  0  3.678716  0  0  -0.158524  0  3.937678  0  0  -0.158106  0  3.954029  0  0  -0.078255  -0.158684  0  3.926742  0
C  C59  1  0.91085922  0.14200489  0.65556867  1  0  -0.122201  0  3.678706  0  0  -0.158527  0  3.937669  0  0  -0.158107  0  3.954015  0  0  -0.078318  -0.158692  0  3.926739  0
C  C60  1  0.23594756  0.88924771  0.26267788  1  0  -0.021901  0  3.668211  0  0  -0.006334  0  3.906091  0  0  -0.009947  0  3.923216  0  0  0.007169  -0.004265  0  3.894791  0
C  C61  1  0.76404171  0.11075766  0.73732503  1  0  -0.021694  0  3.668253  0  0  -0.006143  0  3.906137  0  0  -0.009757  0  3.92326  0  0  0.00724  -0.004074  0  3.894838  0
C  C62  1  0.22197110  0.88130966  0.13762768  1  0  0.674393  0  3.900201  0  0  0.617538  0  4.199713  0  0  0.653824  0  4.19014  0  0  0.210376  0.592946  0  4.205442  0
C  C63  1  0.77802229  0.11869571  0.86237310  1  0  0.674263  0  3.900117  0  0  0.617394  0  4.199641  0  0  0.653686  0  4.190052  0  0  0.21032  0.592801  0  4.205372  0
N  N64  1  0.64610337  0.30071543  0.21049120  1  0  -0.364924  0  3.239636  0  0  -0.295735  0  3.504775  0  0  -0.315866  0  3.523508  0  0  -0.320847  -0.282249  0  3.491816  0
N  N65  1  0.35390046  0.69928093  0.78951075  1  0  -0.364843  0  3.239456  0  0  -0.295686  0  3.504583  0  0  -0.315818  0  3.523318  0  0  -0.320806  -0.282206  0  3.491642  0
N  N66  1  0.00405430  0.27016362  0.08902729  1  0  -0.360032  0  3.257996  0  0  -0.289066  0  3.522959  0  0  -0.310573  0  3.541227  0  0  -0.325437  -0.274607  0  3.510393  0
N  N67  1  0.99594718  0.72983673  0.91097381  1  0  -0.359921  0  3.257899  0  0  -0.288956  0  3.52287  0  0  -0.310461  0  3.541138  0  0  -0.325415  -0.274496  0  3.510306  0
N  N68  1  0.95614392  0.80925542  0.54470082  1  0  0.462357  0  3.946237  0  0  0.506419  0  4.222415  0  0  0.525745  0  4.232511  0  0  0.056054  0.493516  0  4.215643  0
N  N69  1  0.04385480  0.19074499  0.45529803  1  0  0.462356  0  3.946298  0  0  0.506386  0  4.2225  0  0  0.525712  0  4.232598  0  0  0.05604  0.493484  0  4.215727  0
O  O70  1  0.50035238  0.03428105  0.12692807  1  0  -0.581942  0  1.934427  0  0  -0.525256  0  2.163837  0  0  -0.552691  0  2.157519  0  0  -0.303751  -0.505718  0  2.167407  0
O  O71  1  0.49964908  0.96571937  0.87306881  1  0  -0.58188  0  1.934402  0  0  -0.525215  0  2.16383  0  0  -0.552649  0  2.157513  0  0  -0.303732  -0.505689  0  2.167426  0
O  O72  1  0.70677333  0.96419517  0.24850820  1  0  -0.64225  0  1.959755  0  0  -0.579706  0  2.204623  0  0  -0.610136  0  2.196212  0  0  -0.332337  -0.558002  0  2.209486  0
O  O73  1  0.29322198  0.03580230  0.75149033  1  0  -0.642234  0  1.9598  0  0  -0.579673  0  2.204641  0  0  -0.610105  0  2.196235  0  0  -0.332326  -0.557953  0  2.209467  0
O  O74  1  0.81767622  0.78478823  0.50836684  1  0  -0.364784  0  1.795759  0  0  -0.346278  0  2.002856  0  0  -0.3585  0  2.001006  0  0  -0.126178  -0.338372  0  2.004447  0
O  O75  1  0.18232323  0.21520916  0.49163465  1  0  -0.364757  0  1.79577  0  0  -0.346238  0  2.002879  0  0  -0.358456  0  2.001028  0  0  -0.126145  -0.338333  0  2.00447  0
O  O76  1  0.97063118  0.80483403  0.64830244  1  0  -0.335715  0  1.773664  0  0  -0.323362  0  1.977834  0  0  -0.333611  0  1.977308  0  0  -0.119211  -0.316643  0  1.978409  0
O  O77  1  0.02937077  0.19516436  0.35169704  1  0  -0.3357  0  1.773642  0  0  -0.32335  0  1.977836  0  0  -0.333586  0  1.977285  0  0  -0.119211  -0.31663  0  1.978409  0
O  O78  1  0.31724016  0.78059010  0.08858830  1  0  -0.614399  0  1.940825  0  0  -0.563426  0  2.179356  0  0  -0.590464  0  2.170037  0  0  -0.309695  -0.543864  0  2.184495  0
O  O79  1  0.68274343  0.21941037  0.91141378  1  0  -0.614348  0  1.940696  0  0  -0.563363  0  2.179223  0  0  -0.590401  0  2.169897  0  0  -0.309694  -0.543802  0  2.184362  0
O  O80  1  0.10848014  0.96845775  0.08788663  1  0  -0.659802  0  2.088918  0  0  -0.578956  0  2.354213  0  0  -0.612912  0  2.341992  0  0  -0.323587  -0.555229  0  2.361738  0
O  O81  1  0.89151826  0.03154961  0.91211098  1  0  -0.659797  0  2.088977  0  0  -0.578965  0  2.354298  0  0  -0.612923  0  2.342073  0  0  -0.323558  -0.555235  0  2.361823  0
