# generated using pymatgen
data_AlH9(C3O)6
_symmetry_space_group_name_H-M   'P 1'
_cell_length_a   3.95684955
_cell_length_b   20.92665346
_cell_length_c   20.92595762
_cell_angle_alpha   120.00029869
_cell_angle_beta   89.99744857
_cell_angle_gamma   90.00003858
_symmetry_Int_Tables_number   1
_chemical_formula_structural   AlH9(C3O)6
_chemical_formula_sum   'Al2 H18 C36 O12'
_cell_volume   1500.59669469
_cell_formula_units_Z   2
loop_
 _symmetry_equiv_pos_site_id
 _symmetry_equiv_pos_as_xyz
  1  'x, y, z'
loop_
 _atom_site_type_symbol
 _atom_site_label
 _atom_site_symmetry_multiplicity
 _atom_site_fract_x
 _atom_site_fract_y
 _atom_site_fract_z
 _atom_site_occupancy
 _atom_site_pbe_bader_charge
 _atom_site_pbe_bader_spin_density
 _atom_site_pbe_cm5_charge
 _atom_site_pbe_ddec_charge
 _atom_site_pbe_ddec_spin_density
 _atom_site_pbe_ddec_sum_bond_order
 _atom_site_pbe_magmom
Al  Al0  1  0.01712530  0.50000041  0.50001421  1  2.503396  0  0.423703  1.594042  0  2.572294  0
Al  Al1  1  0.01739837  0.16665934  0.83333062  1  2.502846  0  0.423957  1.592345  0  2.573154  0
H  H2  1  0.45600770  0.18837840  0.63874093  1  0.042363  0  0.106895  0.110672  0  0.989683  0
H  H3  1  0.54036282  0.37773281  0.85640549  1  0.075766  0  0.107206  0.110292  0  0.98523  0
H  H4  1  0.49410511  0.46157912  0.80447866  1  0.082421  0  0.100434  0.097479  0  0.997418  0
H  H5  1  0.45604237  0.47846056  0.69474422  1  0.072448  0  0.107178  0.111361  0  0.988974  0
H  H6  1  0.54173162  0.28902818  0.47707019  1  0.060134  0  0.107066  0.110432  0  0.984779  0
H  H7  1  0.49513262  0.20522796  0.52907978  1  0.046342  0  0.10084  0.098426  0  0.997019  0
H  H8  1  0.45604511  0.95036091  0.81161041  1  0.095894  0  0.106848  0.110563  0  0.989687  0
H  H9  1  0.54034166  0.97864928  0.62224146  1  0.080774  0  0.107275  0.110241  0  0.985363  0
H  H10  1  0.49416795  0.84287308  0.53840047  1  0.014965  0  0.10049  0.097436  0  0.997454  0
H  H11  1  0.45614185  0.71625742  0.52152446  1  0.072295  0  0.107117  0.111298  0  0.988817  0
H  H12  1  0.54170517  0.68804781  0.71097665  1  0.06179  0  0.107084  0.110474  0  0.984658  0
H  H13  1  0.49515107  0.82386273  0.79477110  1  0.04084  0  0.100847  0.098462  0  0.996955  0
H  H14  1  0.45598170  0.36126241  0.04964061  1  0.07813  0  0.106877  0.110538  0  0.989767  0
H  H15  1  0.54037730  0.14360921  0.02133992  1  0.031583  0  0.107256  0.110271  0  0.985338  0
H  H16  1  0.49417317  0.19553647  0.15712206  1  0.031946  0  0.100415  0.097371  0  0.997443  0
H  H17  1  0.45612070  0.30527564  0.28373999  1  0.07554  0  0.107144  0.111336  0  0.988931  0
H  H18  1  0.54173410  0.52293630  0.31196489  1  0.065589  0  0.107087  0.110415  0  0.984826  0
H  H19  1  0.49512955  0.47092383  0.17615023  1  0.044793  0  0.100841  0.098436  0  0.997023  0
C  C20  1  0.51332115  0.44940393  0.38675732  1  1.583273  0  0.279006  0.659921  0  4.05398  0
C  C21  1  0.51329924  0.43735501  0.55061119  1  1.573137  0  0.278922  0.659773  0  4.053913  0
C  C22  1  0.51331097  0.61324806  0.56265306  1  1.554436  0  0.278851  0.65973  0  4.053855  0
C  C23  1  0.51324850  0.22930688  0.78268498  1  1.584115  0  0.279524  0.661118  0  4.052969  0
C  C24  1  0.51324688  0.05336296  0.77067391  1  1.587679  0  0.279505  0.660843  0  4.052962  0
C  C25  1  0.51321901  0.21731193  0.94662538  1  1.585065  0  0.279447  0.660919  0  4.053257  0
C  C26  1  0.46926420  0.24815035  0.67449325  1  -0.068243  0  -0.077115  -0.142305  0  3.931635  0
C  C27  1  0.51472056  0.35568485  0.79716586  1  -0.018682  0  -0.084136  -0.098479  0  3.996444  0
C  C28  1  0.49178920  0.40178095  0.76817423  1  -0.083555  0  -0.088091  -0.131973  0  4.007635  0
C  C29  1  0.47565410  0.37276124  0.69068775  1  0.006143  0  -0.002374  0.080786  0  3.996291  0
C  C30  1  0.46962035  0.41869170  0.65895132  1  0.007396  0  -0.077837  -0.144201  0  3.931834  0
C  C31  1  0.51586068  0.31109173  0.53630900  1  0.037138  0  -0.083997  -0.099085  0  3.996963  0
C  C32  1  0.49260630  0.26502765  0.56533112  1  -0.036161  0  -0.0885  -0.132648  0  4.009598  0
C  C33  1  0.47566711  0.29411851  0.64280884  1  0.046508  0  -0.00244  0.079772  0  3.998569  0
C  C34  1  0.49611008  0.27811397  0.74999578  1  0.05352  0  -0.007583  -0.021429  0  3.972955  0
C  C35  1  0.49697922  0.38865674  0.58342696  1  -0.134659  0  -0.006798  -0.019794  0  3.972062  0
C  C36  1  0.46929495  0.92633565  0.75183516  1  -0.005116  0  -0.076961  -0.141914  0  3.931533  0
C  C37  1  0.51471250  0.94146046  0.64428973  1  -0.098486  0  -0.084195  -0.098306  0  3.99643  0
C  C38  1  0.49184346  0.86636888  0.59819856  1  0.05418  0  -0.08817  -0.131992  0  4.007841  0
C  C39  1  0.47574376  0.81791043  0.62722381  1  0.073809  0  -0.002347  0.08087  0  3.996333  0
C  C40  1  0.46970627  0.74024036  0.58129593  1  -0.01181  0  -0.07777  -0.144086  0  3.931751  0
C  C41  1  0.51587926  0.72521979  0.68890838  1  0.049628  0  -0.084053  -0.099141  0  3.997092  0
C  C42  1  0.49262069  0.80030439  0.73496677  1  -0.07576  0  -0.088434  -0.132583  0  4.00957  0
C  C43  1  0.47573204  0.84868282  0.70586986  1  -0.080868  0  -0.002394  0.079711  0  3.998592  0
C  C44  1  0.49610278  0.97186698  0.72186531  1  -0.019101  0  -0.007624  -0.021712  0  3.973034  0
C  C45  1  0.49701472  0.69476311  0.61134123  1  -0.034043  0  -0.00685  -0.020011  0  3.972465  0
C  C46  1  0.46924183  0.32551588  0.07366688  1  -0.052203  0  -0.076995  -0.141881  0  3.931498  0
C  C47  1  0.51472389  0.20284804  0.05853466  1  0.028055  0  -0.084324  -0.098506  0  3.996908  0
C  C48  1  0.49183833  0.23184189  0.13362541  1  -0.040175  0  -0.08799  -0.131864  0  4.00795  0
C  C49  1  0.47570636  0.30932717  0.18208947  1  -0.066552  0  -0.002321  0.081128  0  3.996156  0
C  C50  1  0.46970009  0.34106476  0.25975788  1  -0.003324  0  -0.077795  -0.14432  0  3.931889  0
C  C51  1  0.51586925  0.46370038  0.27479252  1  -0.040488  0  -0.084031  -0.098924  0  3.997012  0
C  C52  1  0.49261962  0.43467872  0.19970609  1  0.047301  0  -0.088515  -0.132781  0  4.009584  0
C  C53  1  0.47569244  0.35720328  0.15132038  1  0.009464  0  -0.002514  0.079528  0  3.998108  0
C  C54  1  0.49608905  0.25001080  0.02812550  1  -0.01725  0  -0.007595  -0.021657  0  3.972918  0
C  C55  1  0.49701971  0.41658774  0.30524363  1  -0.008875  0  -0.006786  -0.019866  0  3.972134  0
O  O56  1  0.75425880  0.57962568  0.57402627  1  -1.250259  0  -0.234426  -0.593852  0  2.355943  0
O  O57  1  0.75429185  0.49439101  0.42037931  1  -1.251601  0  -0.234418  -0.593807  0  2.355887  0
O  O58  1  0.75427906  0.42598196  0.50561830  1  -1.248265  0  -0.2343  -0.593683  0  2.356053  0
O  O59  1  0.28532977  0.58225465  0.51332553  1  -1.258305  0  -0.241185  -0.602105  0  2.348721  0
O  O60  1  0.28533556  0.48668796  0.56895022  1  -1.2482  0  -0.241359  -0.602392  0  2.349059  0
O  O61  1  0.28536841  0.43106050  0.41775158  1  -1.250503  0  -0.241309  -0.602258  0  2.348611  0
O  O62  1  0.75466492  0.17245885  0.91306319  1  -1.255133  0  -0.234501  -0.593528  0  2.356452  0
O  O63  1  0.75469544  0.24059095  0.82753345  1  -1.254641  0  -0.234538  -0.593718  0  2.356381  0
O  O64  1  0.75469040  0.08692966  0.75939154  1  -1.254711  0  -0.234481  -0.593415  0  2.356424  0
O  O65  1  0.28579938  0.23568978  0.91554983  1  -1.263397  0  -0.241546  -0.602552  0  2.34836  0
O  O66  1  0.28583547  0.08444389  0.82013659  1  -1.266893  0  -0.241648  -0.602581  0  2.347899  0
O  O67  1  0.28585497  0.17984945  0.76430220  1  -1.263441  0  -0.241566  -0.602636  0  2.348316  0
