# generated using pymatgen
data_ZnH9C12N2O5
_symmetry_space_group_name_H-M   'P 1'
_cell_length_a   8.08263876
_cell_length_b   11.90727510
_cell_length_c   14.87360627
_cell_angle_alpha   103.60441016
_cell_angle_beta   97.81368099
_cell_angle_gamma   102.09124300
_symmetry_Int_Tables_number   1
_chemical_formula_structural   ZnH9C12N2O5
_chemical_formula_sum   'Zn4 H36 C48 N8 O20'
_cell_volume   1334.35283607
_cell_formula_units_Z   4
loop_
 _symmetry_equiv_pos_site_id
 _symmetry_equiv_pos_as_xyz
  1  'x, y, z'
loop_
 _atom_site_type_symbol
 _atom_site_label
 _atom_site_symmetry_multiplicity
 _atom_site_fract_x
 _atom_site_fract_y
 _atom_site_fract_z
 _atom_site_occupancy
 _atom_site_pbe_bader_charge
 _atom_site_pbe_bader_spin_density
 _atom_site_pbe_cm5_charge
 _atom_site_pbe_ddec_charge
 _atom_site_pbe_ddec_spin_density
 _atom_site_pbe_ddec_sum_bond_order
 _atom_site_pbe_magmom
Zn  Zn0  1  0.47266631  0.26199322  0.13954194  1  1.32089  0  0.687721  0.870911  0  2.253947  0
Zn  Zn1  1  0.52730398  0.73802206  0.86045574  1  1.320889  0  0.687595  0.870694  0  2.254108  0
Zn  Zn2  1  0.13176102  0.21695848  0.43250981  1  1.259459  0  0.702219  0.770283  0  2.379812  0
Zn  Zn3  1  0.86824655  0.78306225  0.56748930  1  1.259412  0  0.702087  0.770111  0  2.380031  0
H  H4  1  0.65823247  0.11044811  0.17411792  1  0.637325  0  0.283557  0.38352  0  0.967122  0
H  H5  1  0.34178270  0.88957482  0.82587144  1  0.637393  0  0.283606  0.383536  0  0.967058  0
H  H6  1  0.77363833  0.23828206  0.24625825  1  0.65201  0  0.283322  0.383099  0  0.961644  0
H  H7  1  0.22637328  0.76171799  0.75374048  1  0.652384  0  0.28335  0.383128  0  0.961638  0
H  H8  1  0.59438462  0.49722323  0.23154107  1  0.649518  0  0.2892  0.387445  0  0.948138  0
H  H9  1  0.40560922  0.50279283  0.76847020  1  0.649464  0  0.28919  0.38736  0  0.948267  0
H  H10  1  0.75519734  0.44035330  0.23604078  1  0.663974  0  0.284629  0.379551  0  0.967365  0
H  H11  1  0.24477370  0.55964727  0.76397337  1  0.664237  0  0.284601  0.379529  0  0.967396  0
H  H12  1  0.03058338  0.91041550  0.19411561  1  0.104091  0  0.117486  0.129779  0  0.978845  0
H  H13  1  0.96944816  0.08959038  0.80588377  1  0.104222  0  0.117393  0.129636  0  0.978894  0
H  H14  1  0.99562519  0.77726867  0.03045271  1  0.090334  0  0.102377  0.091518  0  1.050657  0
H  H15  1  0.00440359  0.22272488  0.96955112  1  0.090321  0  0.102302  0.091448  0  1.050781  0
H  H16  1  0.15588552  0.85455193  0.91561082  1  0.1281  0  0.1118  0.117461  0  1.021035  0
H  H17  1  0.84412654  0.14544640  0.08439034  1  0.12818  0  0.111842  0.117532  0  1.020794  0
H  H18  1  0.15909258  0.34808931  0.19936285  1  0.131498  0  0.116408  0.092505  0  1.035268  0
H  H19  1  0.84089384  0.65193575  0.80064457  1  0.131837  0  0.116407  0.092488  0  1.035311  0
H  H20  1  0.94704560  0.44858059  0.14057492  1  0.121188  0  0.112394  0.125401  0  1.035257  0
H  H21  1  0.05287249  0.55138907  0.85941341  1  0.120876  0  0.112322  0.125332  0  1.035796  0
H  H22  1  0.22718779  0.47789412  0.91380489  1  0.156195  0  0.109876  0.126404  0  1.034016  0
H  H23  1  0.77271061  0.52205299  0.08616321  1  0.156072  0  0.109958  0.12653  0  1.034144  0
H  H24  1  0.42123499  0.37170641  0.98166817  1  0.125385  0  0.123956  0.103394  0  0.991922  0
H  H25  1  0.57871161  0.62827657  0.01830934  1  0.124885  0  0.123888  0.103267  0  0.992038  0
H  H26  1  0.49875906  0.59439499  0.65507857  1  0.146253  0  0.113926  0.129643  0  1.05275  0
H  H27  1  0.50123189  0.40560762  0.34492955  1  0.146452  0  0.113882  0.129678  0  1.052542  0
H  H28  1  0.41645048  0.73203782  0.56523977  1  0.119589  0  0.108843  0.106899  0  0.998321  0
H  H29  1  0.58356809  0.26798031  0.43476995  1  0.119556  0  0.108773  0.10679  0  0.998234  0
H  H30  1  0.18290559  0.64724813  0.41733077  1  0.120494  0  0.110065  0.117369  0  1.014309  0
H  H31  1  0.81711390  0.35275891  0.58266844  1  0.120893  0  0.110089  0.117358  0  1.014233  0
H  H32  1  0.00189468  0.16891887  0.60015651  1  0.117794  0  0.126827  0.104468  0  0.975567  0
H  H33  1  0.99813550  0.83107070  0.39983535  1  0.118292  0  0.126594  0.10401  0  0.975326  0
H  H34  1  0.72107270  0.08423506  0.63756726  1  0.116381  0  0.115533  0.12208  0  1.006595  0
H  H35  1  0.27895823  0.91574612  0.36241453  1  0.115907  0  0.115517  0.122179  0  1.00649  0
H  H36  1  0.51101527  0.97603159  0.33681016  1  0.085713  0  0.12023  0.130041  0  0.988111  0
H  H37  1  0.48900186  0.02399058  0.66318462  1  0.085554  0  0.120237  0.130115  0  0.988251  0
H  H38  1  0.79818353  0.06572007  0.31337525  1  0.140086  0  0.12802  0.108505  0  0.989358  0
H  H39  1  0.20183854  0.93429694  0.68662987  1  0.14038  0  0.128015  0.108503  0  0.989467  0
C  C40  1  0.20960499  0.05346438  0.16625908  1  0.524852  0  0.116023  0.110672  0  3.977594  0
C  C41  1  0.79042557  0.94653871  0.83373639  1  0.52482  0  0.115804  0.110326  0  3.977603  0
C  C42  1  0.09953230  0.93939635  0.14233753  1  -0.02627  0  -0.066659  -0.115185  0  3.90883  0
C  C43  1  0.90049078  0.06059428  0.85765457  1  -0.026634  0  -0.066525  -0.11488  0  3.909132  0
C  C44  1  0.07989921  0.86693831  0.05113838  1  0.005805  0  -0.061069  -0.012457  0  3.929823  0
C  C45  1  0.92013727  0.13305734  0.94885234  1  0.006182  0  -0.061127  -0.012606  0  3.930024  0
C  C46  1  0.16819562  0.90981456  0.98689485  1  -0.037063  0  -0.065283  -0.104094  0  3.898715  0
C  C47  1  0.83183907  0.09018044  0.01310233  1  -0.037113  0  -0.065241  -0.10397  0  3.89873  0
C  C48  1  0.27660024  0.02528583  0.01631201  1  0.513336  0  0.116858  0.104362  0  3.946726  0
C  C49  1  0.72343785  0.97471829  0.98369303  1  0.512999  0  0.11692  0.104305  0  3.946892  0
C  C50  1  0.23756879  0.14211974  0.26085741  1  1.591509  0  0.215603  0.546588  0  4.217008  0
C  C51  1  0.76243637  0.85784905  0.73913828  1  1.591514  0  0.215598  0.546635  0  4.217198  0
C  C52  1  0.38347826  0.08437944  0.95477994  1  1.624401  0  0.202726  0.540278  0  4.244797  0
C  C53  1  0.61651583  0.91562621  0.04521349  1  1.624784  0  0.20303  0.540703  0  4.2443  0
C  C54  1  0.16768082  0.37829242  0.13613113  1  0.430195  0  0.047543  0.096184  0  3.93211  0
C  C55  1  0.83228604  0.62170490  0.86386194  1  0.429565  0  0.047367  0.095935  0  3.932033  0
C  C56  1  0.04887773  0.43442400  0.10182665  1  0.041072  0  -0.073979  -0.155382  0  3.901581  0
C  C57  1  0.95109364  0.56557875  0.89817175  1  0.041705  0  -0.073852  -0.155083  0  3.902137  0
C  C58  1  0.06321474  0.47101120  0.01960035  1  -0.067411  0  0.017664  0.105018  0  3.962179  0
C  C59  1  0.93670580  0.52896349  0.98037893  1  -0.037683  0  0.017783  0.105117  0  3.962556  0
C  C60  1  0.20258496  0.45009890  0.97654927  1  -0.025775  0  -0.076554  -0.163917  0  3.904108  0
C  C61  1  0.79737134  0.54988791  0.02344316  1  -0.015545  0  -0.076626  -0.164156  0  3.904847  0
C  C62  1  0.31499208  0.39237177  0.01486586  1  0.434493  0  0.051027  0.093952  0  3.934754  0
C  C63  1  0.68497698  0.60762200  0.98512950  1  0.435095  0  0.051196  0.094202  0  3.935244  0
C  C64  1  0.32151599  0.43891616  0.55787344  1  0.479467  0  0.112299  0.101635  0  3.972414  0
C  C65  1  0.67847441  0.56109335  0.44212637  1  0.479184  0  0.112353  0.101611  0  3.972608  0
C  C66  1  0.40008680  0.56035430  0.59148737  1  0.073293  0  -0.072632  -0.122197  0  3.914854  0
C  C67  1  0.59993288  0.43964875  0.40852735  1  0.030468  0  -0.072515  -0.122416  0  3.915021  0
C  C68  1  0.35318857  0.63709913  0.54061813  1  -0.127703  0  -0.059161  -0.004017  0  3.90615  0
C  C69  1  0.64684182  0.36292569  0.45941389  1  -0.084774  0  -0.059207  -0.003798  0  3.907331  0
C  C70  1  0.22577803  0.59115515  0.45892243  1  -0.022464  0  -0.067736  -0.115477  0  3.900934  0
C  C71  1  0.77419907  0.40885050  0.54108703  1  -0.0233  0  -0.067698  -0.115352  0  3.901996  0
C  C72  1  0.15190847  0.46843704  0.42935222  1  0.509535  0  0.117279  0.114219  0  3.952773  0
C  C73  1  0.84809886  0.53155988  0.57065772  1  0.510624  0  0.117207  0.114037  0  3.952516  0
C  C74  1  0.35992640  0.34615121  0.60713322  1  1.614797  0  0.199569  0.536978  0  4.252262  0
C  C75  1  0.64004190  0.65384082  0.39286313  1  1.614894  0  0.19939  0.536753  0  4.252719  0
C  C76  1  0.00615090  0.40959690  0.34516314  1  1.5883  0  0.208335  0.538789  0  4.247771  0
C  C77  1  0.99385126  0.59040416  0.65486050  1  1.588444  0  0.208332  0.538852  0  4.247723  0
C  C78  1  0.88754855  0.12662135  0.54471360  1  0.432104  0  0.050846  0.086946  0  3.941797  0
C  C79  1  0.11249881  0.87337057  0.45528013  1  0.431815  0  0.051239  0.087705  0  3.941499  0
C  C80  1  0.72927029  0.07908721  0.56446246  1  0.00852  0  -0.066557  -0.142725  0  3.908016  0
C  C81  1  0.27075604  0.92091143  0.43553057  1  0.009252  0  -0.066582  -0.14301  0  3.90892  0
C  C82  1  0.58573704  0.02480468  0.49068228  1  0.023578  0  0.027424  0.117765  0  3.933569  0
C  C83  1  0.41426546  0.97518715  0.50930420  1  -0.011566  0  0.027426  0.118048  0  3.933564  0
C  C84  1  0.61301503  0.01903109  0.39864318  1  0.059514  0  -0.063186  -0.141078  0  3.890303  0
C  C85  1  0.38702851  0.98098886  0.60135755  1  0.059493  0  -0.063057  -0.141013  0  3.889724  0
C  C86  1  0.77487568  0.06888574  0.38419370  1  0.438274  0  0.060682  0.107741  0  3.902812  0
C  C87  1  0.22514857  0.93113660  0.61581182  1  0.438487  0  0.060614  0.107591  0  3.902079  0
N  N88  1  0.29458873  0.09335111  0.10425769  1  -1.258617  0  -0.314568  -0.272266  0  3.597481  0
N  N89  1  0.70542779  0.90665522  0.89574519  1  -1.258315  0  -0.314502  -0.272106  0  3.597157  0
N  N90  1  0.29770884  0.35596065  0.09304584  1  -1.246904  0  -0.322009  -0.235746  0  3.546995  0
N  N91  1  0.70227657  0.64404012  0.90695680  1  -1.246753  0  -0.321938  -0.23565  0  3.546873  0
N  N92  1  0.20346997  0.39576824  0.47749232  1  -1.272713  0  -0.332012  -0.27308  0  3.654635  0
N  N93  1  0.79650904  0.60423921  0.52251894  1  -1.273375  0  -0.331956  -0.272902  0  3.654092  0
N  N94  1  0.90983891  0.12358300  0.45610815  1  -1.245942  0  -0.330923  -0.227592  0  3.590484  0
N  N95  1  0.09018370  0.87640685  0.54388714  1  -1.24559  0  -0.330963  -0.22769  0  3.589682  0
O  O96  1  0.48574521  0.18653703  0.99586619  1  -1.167301  0  -0.32226  -0.550377  0  2.264798  0
O  O97  1  0.51426210  0.81347765  0.00413929  1  -1.168092  0  -0.322392  -0.550453  0  2.265278  0
O  O98  1  0.36439487  0.02956767  0.86898331  1  -1.1891  0  -0.328764  -0.549038  0  2.17107  0
O  O99  1  0.63562911  0.97044230  0.13102686  1  -1.188675  0  -0.328976  -0.549429  0  2.170473  0
O  O100  1  0.32228849  0.24698737  0.27187009  1  -1.178225  0  -0.291598  -0.529219  0  2.282668  0
O  O101  1  0.67775846  0.75300370  0.72812481  1  -1.178738  0  -0.291331  -0.528844  0  2.283465  0
O  O102  1  0.16719789  0.10166872  0.32343230  1  -1.16185  0  -0.323841  -0.537485  0  2.362936  0
O  O103  1  0.83280292  0.89834133  0.67656379  1  -1.16142  0  -0.323959  -0.537658  0  2.362448  0
O  O104  1  0.66063719  0.19665507  0.20187380  1  -1.286922  0  -0.594791  -0.787455  0  2.174899  0
O  O105  1  0.33938132  0.80336311  0.79810901  1  -1.287533  0  -0.594793  -0.78744  0  2.175201  0
O  O106  1  0.64151284  0.43342874  0.19467649  1  -1.297682  0  -0.57582  -0.758355  0  2.138986  0
O  O107  1  0.35847550  0.56658291  0.80533291  1  -1.297888  0  -0.575802  -0.758271  0  2.13906  0
O  O108  1  0.30004257  0.23661390  0.55782180  1  -1.168407  0  -0.334043  -0.559787  0  2.257935  0
O  O109  1  0.69993414  0.76337822  0.44218404  1  -1.168542  0  -0.334017  -0.559747  0  2.257751  0
O  O110  1  0.44326217  0.38145970  0.69027117  1  -1.169774  0  -0.324823  -0.526979  0  2.10982  0
O  O111  1  0.55671807  0.61853126  0.30972872  1  -1.169655  0  -0.324687  -0.526731  0  2.110295  0
O  O112  1  0.95748440  0.29577069  0.32321116  1  -1.150863  0  -0.311177  -0.559787  0  2.259593  0
O  O113  1  0.04252006  0.70423935  0.67678726  1  -1.150988  0  -0.31121  -0.559791  0  2.259485  0
O  O114  1  0.94306581  0.47802961  0.30542411  1  -1.181301  0  -0.312949  -0.537883  0  2.193144  0
O  O115  1  0.05689461  0.52197571  0.69461951  1  -1.181394  0  -0.312822  -0.537872  0  2.193139  0
