# generated using pymatgen
data_ZnH21C29NCl6O11
_symmetry_space_group_name_H-M   'P 1'
_cell_length_a   13.68288665
_cell_length_b   18.66404079
_cell_length_c   19.55193586
_cell_angle_alpha   90.72097595
_cell_angle_beta   89.69850847
_cell_angle_gamma   98.73813207
_symmetry_Int_Tables_number   1
_chemical_formula_structural   ZnH21C29NCl6O11
_chemical_formula_sum   'Zn2 H42 C58 N2 Cl12 O22'
_cell_volume   4934.75901027
_cell_formula_units_Z   2
loop_
 _symmetry_equiv_pos_site_id
 _symmetry_equiv_pos_as_xyz
  1  'x, y, z'
loop_
 _atom_site_type_symbol
 _atom_site_label
 _atom_site_symmetry_multiplicity
 _atom_site_fract_x
 _atom_site_fract_y
 _atom_site_fract_z
 _atom_site_occupancy
 _atom_site_pbe_bader_charge
 _atom_site_pbe_bader_spin_density
 _atom_site_pbe_cm5_charge
 _atom_site_pbe_ddec_charge
 _atom_site_pbe_ddec_spin_density
 _atom_site_pbe_ddec_sum_bond_order
 _atom_site_pbe_magmom
Zn  Zn0  1  0.49926928  0.41967375  0.49965996  1  1.315133  0  0.681192  0.893011  0  2.269584  0
Zn  Zn1  1  0.49989601  0.58045395  0.49555030  1  1.318784  0  0.681638  0.887252  0  2.313987  0
H  H2  1  0.02328082  0.32307424  0.54340359  1  0.042254  0  0.100097  0.101018  0  0.986513  0
H  H3  1  0.02905048  0.31618753  0.45190160  1  0.045409  0  0.094532  0.091853  0  0.992783  0
H  H4  1  0.91541766  0.28403939  0.49618599  1  0.061735  0  0.10724  0.112147  0  0.980073  0
H  H5  1  0.97874938  0.65021677  0.54656287  1  0.056791  0  0.102796  0.10593  0  0.978194  0
H  H6  1  0.96494444  0.66025510  0.45625435  1  0.053004  0  0.097583  0.097846  0  0.991321  0
H  H7  1  0.08268387  0.69026084  0.49625469  1  0.083628  0  0.105998  0.110371  0  0.980829  0
H  H8  1  0.50666257  0.15788618  0.32741414  1  0.041509  0  0.095129  0.09376  0  0.994043  0
H  H9  1  0.42609812  0.22550843  0.32690520  1  0.0916  0  0.098602  0.10357  0  1.039522  0
H  H10  1  0.37945255  0.13330083  0.30317485  1  0.082159  0  0.109644  0.119722  0  0.965567  0
H  H11  1  0.49127417  0.91047147  0.35842545  1  0.050664  0  0.091418  0.08751  0  1.027555  0
H  H12  1  0.48830814  0.82632079  0.31170665  1  0.036104  0  0.097249  0.092682  0  0.999385  0
H  H13  1  0.58938805  0.89864453  0.30019325  1  0.082315  0  0.111776  0.121172  0  0.963156  0
H  H14  1  0.26464684  0.31270310  0.38282008  1  0.081545  0  0.11335  0.126812  0  0.962665  0
H  H15  1  0.26595907  0.30021861  0.47341909  1  0.081079  0  0.101617  0.112151  0  1.005777  0
H  H16  1  0.26761301  0.22325794  0.41591082  1  0.091294  0  0.094643  0.093476  0  1.020595  0
H  H17  1  0.54204958  0.70197608  0.31566356  1  0.082187  0  0.099414  0.10193  0  1.022557  0
H  H18  1  0.64229101  0.65205303  0.32305447  1  0.092373  0  0.114366  0.130715  0  0.961905  0
H  H19  1  0.66702609  0.74990224  0.32490375  1  0.072587  0  0.097273  0.096253  0  1.005818  0
H  H20  1  0.26263925  0.95692587  0.41386247  1  0.049613  0  0.091254  0.091607  0  1.014599  0
H  H21  1  0.31658089  0.87746816  0.39141122  1  0.044185  0  0.091359  0.08688  0  1.008424  0
H  H22  1  0.20204137  0.86869635  0.43795718  1  0.071158  0  0.112511  0.124322  0  0.963492  0
H  H23  1  0.67306888  0.12332638  0.39081573  1  0.017778  0  0.093633  0.090796  0  0.99752  0
H  H24  1  0.73716518  0.04757305  0.40654110  1  0.055971  0  0.089314  0.087302  0  1.021611  0
H  H25  1  0.79147207  0.13747760  0.43208908  1  0.065971  0  0.112222  0.123326  0  0.964979  0
H  H26  1  0.53483082  0.33097233  0.85255804  1  0.047985  0  0.092681  0.087829  0  1.001781  0
H  H27  1  0.43301716  0.30898983  0.91107656  1  0.05739  0  0.108222  0.117073  0  0.96753  0
H  H28  1  0.52269726  0.38783518  0.92592895  1  0.058018  0  0.089312  0.094764  0  1.033867  0
H  H29  1  0.32700071  0.68885968  0.20484630  1  0.041694  0  0.094364  0.094866  0  1.006131  0
H  H30  1  0.25505314  0.60326511  0.18231097  1  0.061602  0  0.094648  0.091465  0  1.013216  0
H  H31  1  0.29086607  0.66882344  0.11736119  1  0.0603  0  0.103483  0.110875  0  0.973054  0
H  H32  1  0.52188656  0.32814057  0.71133902  1  0.035985  0  0.086592  0.0773  0  1.043119  0
H  H33  1  0.41114570  0.29441316  0.66569819  1  0.058147  0  0.101043  0.108634  0  0.98148  0
H  H34  1  0.40887757  0.29752788  0.75763100  1  0.065665  0  0.09218  0.08889  0  1.018558  0
H  H35  1  0.30478022  0.64492033  0.36750663  1  0.048115  0  0.10457  0.113285  0  0.971334  0
H  H36  1  0.31527078  0.55157878  0.37205031  1  0.108955  0  0.101316  0.116883  0  1.029409  0
H  H37  1  0.23834536  0.58221690  0.30737887  1  0.026998  0  0.091176  0.082863  0  1.003771  0
H  H38  1  0.49002614  0.09880769  0.64277619  1  0.067597  0  0.093152  0.093559  0  1.009251  0
H  H39  1  0.52203335  0.18297099  0.68909777  1  0.042176  0  0.096758  0.09665  0  1.002898  0
H  H40  1  0.60076474  0.11428907  0.69312123  1  0.075072  0  0.113166  0.124541  0  0.959857  0
H  H41  1  0.53592122  0.86671822  0.65680559  1  0.032587  0  0.094474  0.096261  0  0.98818  0
H  H42  1  0.46668458  0.78014644  0.67874614  1  0.087265  0  0.088735  0.087699  0  1.043678  0
H  H43  1  0.41956023  0.86206257  0.70117380  1  0.075377  0  0.111017  0.124215  0  0.961627  0
C  C44  1  0.47065766  0.49981935  0.36685924  1  1.629521  0  0.208302  0.602401  0  4.202815  0
C  C45  1  0.51233907  0.50855784  0.62813808  1  1.680719  0  0.215822  0.632401  0  4.154993  0
C  C46  1  0.46411176  0.45150838  0.74179145  1  0.51467  0  0.084546  0.150236  0  4.034331  0
C  C47  1  0.42171397  0.55513252  0.25649964  1  0.533558  0  0.07713  0.134252  0  4.0208  0
C  C48  1  0.50947915  0.51251214  0.70549253  1  0.05795  0  -0.019355  -0.150623  0  3.907543  0
C  C49  1  0.45810665  0.49782357  0.28984714  1  0.061803  0  -0.024705  -0.162596  0  3.926957  0
C  C50  1  0.39625241  0.51133385  0.95659118  1  0.158936  0  0.011523  0.056049  0  4.009365  0
C  C51  1  0.56426721  0.52457082  0.03927450  1  0.079412  0  0.005237  0.046119  0  4.025093  0
C  C52  1  0.38648055  0.50539553  0.02796300  1  0.12726  0  0.009412  0.049929  0  4.012779  0
C  C53  1  0.57400794  0.52382742  0.96779186  1  0.14935  0  0.004156  0.037683  0  4.048948  0
C  C54  1  0.47016476  0.51227140  0.07015047  1  0.073405  0  -0.014407  0.002033  0  4.001171  0
C  C55  1  0.49020837  0.51812814  0.92557067  1  0.072462  0  -0.016986  -0.008941  0  4.010349  0
C  C56  1  0.56989993  0.27459340  0.54786784  1  0.604129  0  0.138104  0.184093  0  4.072927  0
C  C57  1  0.43956443  0.72675468  0.54247829  1  0.656228  0  0.135638  0.182344  0  4.08193  0
C  C58  1  0.56054129  0.19882559  0.55405612  1  0.666295  0  0.080361  0.106166  0  4.05957  0
C  C59  1  0.44735990  0.80250384  0.54664639  1  0.645442  0  0.076175  0.102146  0  4.074454  0
C  C60  1  0.50337106  0.15476372  0.50534861  1  0.03358  0  -0.008016  -0.054725  0  4.026272  0
C  C61  1  0.49657858  0.84375945  0.49354957  1  0.003878  0  -0.008398  -0.052172  0  4.028784  0
C  C62  1  0.45170364  0.18852068  0.45639811  1  0.588279  0  0.072393  0.058876  0  4.068458  0
C  C63  1  0.54259875  0.80799835  0.44171983  1  0.52863  0  0.071224  0.052751  0  4.050215  0
C  C64  1  0.45235905  0.26388811  0.46177636  1  1.076159  0  0.207082  0.296741  0  4.073913  0
C  C65  1  0.54536440  0.73306082  0.44822732  1  1.176044  0  0.214594  0.309407  0  4.064221  0
C  C66  1  0.31116714  0.46959710  0.50832455  1  1.692668  0  0.214665  0.652695  0  4.250727  0
C  C67  1  0.68478495  0.51765054  0.48401229  1  1.692427  0  0.215101  0.654796  0  4.256197  0
C  C68  1  0.41211476  0.02695303  0.50591360  1  0.056159  0  0.007029  0.006634  0  4.041723  0
C  C69  1  0.59010582  0.97148377  0.49729272  1  0.052337  0  0.00719  0.009006  0  4.024043  0
C  C70  1  0.41078718  0.95202092  0.49778639  1  0.622475  0  0.078079  0.145336  0  4.050494  0
C  C71  1  0.59097589  0.04697297  0.49695980  1  0.54818  0  0.0785  0.148306  0  4.03789  0
C  C72  1  0.50042639  0.92344141  0.49511498  1  0.092092  0  -0.014271  -0.043194  0  4.009452  0
C  C73  1  0.50153378  0.07534887  0.50310828  1  0.04133  0  -0.015744  -0.045426  0  4.013328  0
C  C74  1  0.79076987  0.52339615  0.48213367  1  0.095923  0  -0.028669  -0.129309  0  3.925494  0
C  C75  1  0.20494366  0.45684240  0.50554660  1  -0.152016  0  -0.033698  -0.14454  0  3.939377  0
C  C76  1  0.98120733  0.52055039  0.48639555  1  0.633727  0  0.081359  0.149756  0  4.129207  0
C  C77  1  0.01454820  0.45425491  0.49157053  1  0.633607  0  0.078899  0.143496  0  4.135938  0
C  C78  1  0.11526298  0.45134516  0.49899258  1  -0.137875  0  -0.047165  -0.105556  0  4.193153  0
C  C79  1  0.88026380  0.52457269  0.48350472  1  -0.35605  0  -0.044964  -0.102975  0  4.180707  0
C  C80  1  0.54818170  0.57589656  0.74187122  1  0.065054  0  0.007587  0.077374  0  4.028455  0
C  C81  1  0.49119817  0.44266149  0.25020568  1  0.128228  0  0.00273  0.067818  0  4.034247  0
C  C82  1  0.54024193  0.57845600  0.81348444  1  0.1449  0  -0.003227  0.035408  0  4.054307  0
C  C83  1  0.49031506  0.44584002  0.17852233  1  0.082406  0  -0.003067  0.036043  0  4.064025  0
C  C84  1  0.49987725  0.51652917  0.84998398  1  0.004279  0  -0.03178  -0.074046  0  4.063104  0
C  C85  1  0.46139075  0.50544685  0.14549079  1  0.059332  0  -0.032039  -0.070638  0  4.059127  0
C  C86  1  0.46383727  0.45239549  0.81379587  1  0.576449  0  0.069993  0.102568  0  4.034516  0
C  C87  1  0.42579076  0.55981380  0.18456980  1  0.528957  0  0.073408  0.107952  0  4.058444  0
C  C88  1  0.98143244  0.32541842  0.49576879  1  0.407654  0  -0.13563  -0.171183  0  3.940409  0
C  C89  1  0.01617341  0.64932891  0.49668893  1  0.366155  0  -0.135327  -0.175174  0  3.928683  0
C  C90  1  0.43058300  0.16828141  0.33663020  1  0.333548  0  -0.138218  -0.175385  0  3.880321  0
C  C91  1  0.53640418  0.87138723  0.33724116  1  0.378142  0  -0.134873  -0.171401  0  3.912069  0
C  C92  1  0.29166156  0.28164115  0.42390340  1  0.315906  0  -0.133908  -0.170523  0  3.847822  0
C  C93  1  0.61484142  0.70180098  0.33896957  1  0.346515  0  -0.133051  -0.159189  0  3.854514  0
C  C94  1  0.27383912  0.90263008  0.43045475  1  0.383551  0  -0.137469  -0.16944  0  3.908655  0
C  C95  1  0.72191935  0.10022973  0.42634799  1  0.408518  0  -0.136222  -0.16584  0  3.905742  0
C  C96  1  0.48190148  0.35324746  0.88640375  1  0.383706  0  -0.140177  -0.170959  0  3.907023  0
C  C97  1  0.31365063  0.64635077  0.16526457  1  0.391878  0  -0.141457  -0.171848  0  3.927524  0
C  C98  1  0.44090753  0.32471505  0.71133798  1  0.391472  0  -0.142993  -0.170299  0  3.931026  0
C  C99  1  0.30724578  0.59559593  0.33694310  1  0.379199  0  -0.137138  -0.165258  0  3.880803  0
C  C100  1  0.55155192  0.13979412  0.66035975  1  0.367532  0  -0.13208  -0.16468  0  3.888721  0
C  C101  1  0.46124424  0.83573556  0.66289130  1  0.351557  0  -0.138603  -0.173053  0  3.891637  0
N  N102  1  0.51340261  0.30592623  0.50468865  1  -1.206819  0  -0.311342  -0.324597  0  3.477871  0
N  N103  1  0.49070975  0.69344616  0.49619378  1  -1.246794  0  -0.315799  -0.332428  0  3.483991  0
Cl  Cl104  1  0.30192137  0.05790161  0.52290411  1  -0.177625  0  0.008025  -0.047892  0  1.56854  0
Cl  Cl105  1  0.70136840  0.93967902  0.50446266  1  -0.177686  0  0.010785  -0.043921  0  1.561182  0
Cl  Cl106  1  0.60848064  0.65092214  0.70028073  1  -0.185837  0  -0.012883  -0.055494  0  1.578927  0
Cl  Cl107  1  0.54099443  0.37315254  0.28743514  1  -0.179623  0  -0.007115  -0.045822  0  1.617911  0
Cl  Cl108  1  0.57672322  0.65880043  0.85734242  1  -0.197684  0  -0.02656  -0.079802  0  1.577302  0
Cl  Cl109  1  0.52449650  0.37579735  0.12990143  1  -0.203606  0  -0.027807  -0.086313  0  1.58474  0
Cl  Cl110  1  0.29300801  0.51055515  0.90684959  1  -0.163587  0  0.002602  -0.044686  0  1.56124  0
Cl  Cl111  1  0.66826196  0.53941388  0.08957505  1  -0.18052  0  -0.005982  -0.050326  0  1.571986  0
Cl  Cl112  1  0.27046429  0.48781168  0.06412663  1  -0.192024  0  0.002112  -0.053982  0  1.573907  0
Cl  Cl113  1  0.68925260  0.52696277  0.93138888  1  -0.178226  0  -0.002539  -0.052117  0  1.589873  0
Cl  Cl114  1  0.65751088  0.32807844  0.59517667  1  -0.122468  0  0.053354  0.000788  0  1.575873  0
Cl  Cl115  1  0.35892305  0.67584342  0.59611793  1  -0.119961  0  0.055185  0.007807  0  1.595454  0
O  O116  1  0.44813761  0.44147624  0.39890256  1  -1.155305  0  -0.306906  -0.549709  0  2.403823  0
O  O117  1  0.48802652  0.56278359  0.59789349  1  -1.162267  0  -0.317541  -0.561183  0  2.449338  0
O  O118  1  0.50456033  0.56157773  0.39230976  1  -1.155557  0  -0.307633  -0.537289  0  2.384972  0
O  O119  1  0.53772814  0.45251048  0.60038888  1  -1.159622  0  -0.314838  -0.559712  0  2.361042  0
O  O120  1  0.35475690  0.41670100  0.52587608  1  -1.140212  0  -0.314868  -0.538424  0  2.27491  0
O  O121  1  0.64869843  0.57397340  0.50162739  1  -1.131079  0  -0.31144  -0.535655  0  2.280945  0
O  O122  1  0.35065363  0.53314144  0.49166215  1  -1.147421  0  -0.306166  -0.551511  0  2.331129  0
O  O123  1  0.63798178  0.45508204  0.46803925  1  -1.149746  0  -0.320868  -0.554582  0  2.307767  0
O  O124  1  0.94497514  0.39295652  0.49000691  1  -1.040432  0  -0.18447  -0.147554  0  2.55898  0
O  O125  1  0.05119091  0.58157667  0.48499301  1  -1.040603  0  -0.185084  -0.149429  0  2.54883  0
O  O126  1  0.40043966  0.14798037  0.40565346  1  -1.066725  0  -0.203776  -0.178582  0  2.618708  0
O  O127  1  0.59471960  0.84466663  0.38937370  1  -1.077749  0  -0.20263  -0.171972  0  2.618162  0
O  O128  1  0.39828619  0.29943061  0.42040337  1  -1.059784  0  -0.178313  -0.168107  0  2.646879  0
O  O129  1  0.60556686  0.69637971  0.41246125  1  -1.07639  0  -0.169597  -0.14678  0  2.608688  0
O  O130  1  0.32296010  0.90565054  0.49560826  1  -1.067539  0  -0.20071  -0.17194  0  2.585188  0
O  O131  1  0.67833573  0.09365446  0.49358960  1  -1.068079  0  -0.201155  -0.173746  0  2.589692  0
O  O132  1  0.41826772  0.39188084  0.84746551  1  -1.076161  0  -0.204259  -0.175546  0  2.57451  0
O  O133  1  0.40291132  0.61759132  0.14895088  1  -1.069895  0  -0.199315  -0.161105  0  2.583511  0
O  O134  1  0.41333429  0.39536845  0.70508223  1  -1.069471  0  -0.194619  -0.145299  0  2.565075  0
O  O135  1  0.39010702  0.61197724  0.29093352  1  -1.076509  0  -0.198281  -0.176591  0  2.609132  0
O  O136  1  0.61156934  0.16965192  0.60376704  1  -1.061605  0  -0.202776  -0.176003  0  2.604888  0
O  O137  1  0.40660008  0.83603895  0.59977156  1  -1.060778  0  -0.202135  -0.173404  0  2.590466  0
