# generated using pymatgen
data_AlH5C14Cl3O5
_symmetry_space_group_name_H-M   'P 1'
_cell_length_a   6.57595123
_cell_length_b   11.19362638
_cell_length_c   17.49328134
_cell_angle_alpha   87.69195204
_cell_angle_beta   82.95483841
_cell_angle_gamma   72.01733147
_symmetry_Int_Tables_number   1
_chemical_formula_structural   AlH5C14Cl3O5
_chemical_formula_sum   'Al2 H10 C28 Cl6 O10'
_cell_volume   1215.50511466
_cell_formula_units_Z   2
loop_
 _symmetry_equiv_pos_site_id
 _symmetry_equiv_pos_as_xyz
  1  'x, y, z'
loop_
 _atom_site_type_symbol
 _atom_site_label
 _atom_site_symmetry_multiplicity
 _atom_site_fract_x
 _atom_site_fract_y
 _atom_site_fract_z
 _atom_site_occupancy
 _atom_site_pbe_bader_charge
 _atom_site_pbe_bader_spin_density
 _atom_site_pbe_cm5_charge
 _atom_site_pbe_ddec_charge
 _atom_site_pbe_ddec_spin_density
 _atom_site_pbe_ddec_sum_bond_order
 _atom_site_pbe_magmom
Al  Al0  1  0.51048499  0.48294301  0.50106809  1  2.501533  0  0.387622  1.640252  0  2.574313  0
Al  Al1  1  0.01132724  0.48320784  0.50039725  1  2.502059  0  0.390989  1.642684  0  2.564404  0
H  H2  1  0.32705455  0.33252230  0.54238024  1  0.640717  0  0.332325  0.412394  0  0.899222  0
H  H3  1  0.76040282  0.54355233  0.40835157  1  0.612972  0  0.342918  0.415597  0  0.883438  0
H  H4  1  0.53766975  0.60942542  0.28386503  1  0.118701  0  0.102891  0.102159  0  1.031639  0
H  H5  1  0.59836919  0.64904617  0.14383118  1  0.065621  0  0.109425  0.116589  0  0.984368  0
H  H6  1  0.15852034  0.44570473  0.10530585  1  0.087396  0  0.110639  0.128517  0  0.986581  0
H  H7  1  0.78571710  0.63873711  0.88271053  1  0.101699  0  0.109375  0.126375  0  0.991181  0
H  H8  1  0.41217126  0.43810507  0.72245538  1  0.090614  0  0.111292  0.120533  0  1.001426  0
H  H9  1  0.29931893  0.45939031  0.86365475  1  0.087811  0  0.107417  0.114014  0  0.988728  0
H  H10  1  0.21931134  0.20784202  0.39963368  1  0.145956  0  0.109218  0.133147  0  1.026344  0
H  H11  1  0.46895072  0.74245196  0.41980438  1  0.121639  0  0.113789  0.133096  0  1.03628  0
C  C12  1  0.87063886  0.25579752  0.49383472  1  1.658477  0  0.267305  0.656921  0  4.092489  0
C  C13  1  0.71667876  0.50181127  0.63770344  1  1.597082  0  0.268844  0.65242  0  4.081194  0
C  C14  1  0.15085361  0.70771377  0.50689499  1  1.651575  0  0.267973  0.651998  0  4.095798  0
C  C15  1  0.29277181  0.48818278  0.36026108  1  1.580468  0  0.262673  0.648554  0  4.090698  0
C  C16  1  0.31476087  0.50671558  0.27506522  1  0.016023  0  -0.02059  -0.11523  0  3.931024  0
C  C17  1  0.45459846  0.57433632  0.24405435  1  -0.0898  0  -0.079938  -0.068177  0  3.997035  0
C  C18  1  0.48916907  0.59648688  0.16588461  1  0.073882  0  -0.082946  -0.13333  0  3.944854  0
C  C19  1  0.38517090  0.54821270  0.11437118  1  0.061789  0  0.008131  0.168262  0  4.107368  0
C  C20  1  0.24062730  0.48305296  0.14431618  1  0.074615  0  -0.087257  -0.199158  0  3.913142  0
C  C21  1  0.20485846  0.46299644  0.22329039  1  0.01746  0  0.023188  0.143203  0  4.026749  0
C  C22  1  0.43104733  0.55847427  0.03371697  1  -0.190113  0  -0.039067  -0.099816  0  4.092666  0
C  C23  1  0.47883819  0.55813989  0.96402241  1  -0.158472  0  -0.035067  -0.091941  0  4.090537  0
C  C24  1  0.53682108  0.54906014  0.88341914  1  0.136203  0  0.006911  0.166002  0  4.114422  0
C  C25  1  0.70412267  0.59328805  0.84816997  1  -0.011541  0  -0.088835  -0.203245  0  3.924505  0
C  C26  1  0.76813589  0.57928295  0.76915250  1  0.049266  0  0.025305  0.145038  0  4.023712  0
C  C27  1  0.66376682  0.52174495  0.72260179  1  0.009931  0  -0.016097  -0.1063  0  3.914557  0
C  C28  1  0.49429188  0.48021207  0.75884233  1  0.054378  0  -0.077431  -0.069009  0  3.994053  0
C  C29  1  0.43086960  0.49244959  0.83724473  1  -0.063957  0  -0.085126  -0.137062  0  3.959764  0
C  C30  1  0.94228870  0.11485417  0.49524894  1  -0.017723  0  -0.009241  -0.123596  0  3.90824  0
C  C31  1  0.14117626  0.04565408  0.45279540  1  0.056366  0  0.000133  0.076005  0  3.970708  0
C  C32  1  0.81643987  0.05155386  0.53865029  1  0.104452  0  0.015976  0.068601  0  4.016949  0
C  C33  1  0.27026432  0.10615963  0.40505026  1  0.033348  0  -0.094163  -0.187266  0  3.94232  0
C  C34  1  0.46235880  0.03838473  0.36465412  1  0.059927  0  0.009286  0.093448  0  4.061853  0
C  C35  1  0.07817210  0.84852626  0.50284491  1  0.042916  0  -0.007456  -0.123817  0  3.901291  0
C  C36  1  0.88083450  0.91769815  0.54076167  1  0.056888  0  0.017648  0.067853  0  4.037397  0
C  C37  1  0.21177320  0.91121005  0.45789057  1  0.047932  0  0.001702  0.077872  0  3.966394  0
C  C38  1  0.40967932  0.84403471  0.41559001  1  0.022497  0  -0.091585  -0.182128  0  3.940384  0
C  C39  1  0.53278948  0.90510361  0.36998532  1  0.027599  0  0.007547  0.090728  0  4.055318  0
Cl  Cl40  1  0.02808402  0.37832785  0.25177081  1  -0.180001  0  0.008861  -0.054377  0  1.537774  0
Cl  Cl41  1  0.97578582  0.63746085  0.73387829  1  -0.176021  0  0.019823  -0.047152  0  1.607827  0
Cl  Cl42  1  0.71243561  0.84605269  0.59276705  1  -0.150408  0  0.027525  -0.018898  0  1.672497  0
Cl  Cl43  1  0.58509083  0.13141994  0.59608777  1  -0.175418  0  0.026008  -0.034541  0  1.61086  0
Cl  Cl44  1  0.61397359  0.11662438  0.30803564  1  -0.188324  0  -0.007141  -0.06287  0  1.506933  0
Cl  Cl45  1  0.77120299  0.81773587  0.31933491  1  -0.197636  0  0.000272  -0.055631  0  1.5165  0
O  O46  1  0.68063335  0.31019738  0.47810511  1  -1.248429  0  -0.236885  -0.597076  0  2.381153  0
O  O47  1  0.88989373  0.51665256  0.60437164  1  -1.250542  0  -0.229948  -0.580334  0  2.401458  0
O  O48  1  0.02122127  0.65222031  0.49003357  1  -1.246577  0  -0.227113  -0.581447  0  2.407819  0
O  O49  1  0.43902373  0.50691776  0.39562968  1  -1.266726  0  -0.239827  -0.602908  0  2.370323  0
O  O50  1  0.33974522  0.65386941  0.52443784  1  -1.251686  0  -0.228799  -0.56664  0  2.324345  0
O  O51  1  0.13032166  0.45892179  0.39259443  1  -1.260558  0  -0.241588  -0.604192  0  2.402445  0
O  O52  1  0.00570235  0.30959355  0.50905971  1  -1.256362  0  -0.232172  -0.586917  0  2.337161  0
O  O53  1  0.58247596  0.46809411  0.60362548  1  -1.267486  0  -0.235624  -0.597607  0  2.373907  0
O  O54  1  0.28257802  0.42231504  0.53205391  1  -1.445916  0  -0.450017  -0.982372  0  2.213977  0
O  O55  1  0.74403634  0.53698279  0.46416339  1  -1.416099  0  -0.449097  -0.979226  0  2.211518  0
