# generated using pymatgen
data_MnH20C18N2ClO4
_symmetry_space_group_name_H-M   'P 1'
_cell_length_a   9.58459624
_cell_length_b   9.75622219
_cell_length_c   9.76502771
_cell_angle_alpha   82.28005163
_cell_angle_beta   77.62275682
_cell_angle_gamma   77.83833250
_symmetry_Int_Tables_number   1
_chemical_formula_structural   MnH20C18N2ClO4
_chemical_formula_sum   'Mn2 H40 C36 N4 Cl2 O8'
_cell_volume   868.07161075
_cell_formula_units_Z   2
loop_
 _symmetry_equiv_pos_site_id
 _symmetry_equiv_pos_as_xyz
  1  'x, y, z'
loop_
 _atom_site_type_symbol
 _atom_site_label
 _atom_site_symmetry_multiplicity
 _atom_site_fract_x
 _atom_site_fract_y
 _atom_site_fract_z
 _atom_site_occupancy
 _atom_site_pbe_cm5_charge
 _atom_site_pbe_ddec_charge
 _atom_site_pbe_ddec_spin_density
 _atom_site_pbe_ddec_sum_bond_order
 _atom_site_pbe_magmom
Mn  Mn0  1  0.99988030  0.00004605  0.99995116  1  0.740309  0.931632  3.77502  3.037508  3.513
Mn  Mn1  1  0.49968617  0.99991295  0.00009005  1  0.66007  0.754885  0.08728  3.349264  0.163
H  H2  1  0.08489328  0.37341835  0.83245676  1  0.118821  0.082401  -0.003133  0.993234  -0.002
H  H3  1  0.41539745  0.16492709  0.62693770  1  0.112342  0.077481  -0.000178  1.004177  0.0
H  H4  1  0.91511527  0.62658010  0.16754090  1  0.118825  0.082348  -0.003131  0.993296  -0.002
H  H5  1  0.58467685  0.83506830  0.37304744  1  0.112377  0.077604  -0.000181  1.003982  0.0
H  H6  1  0.10421047  0.40533276  0.58460387  1  0.096313  0.09782  -8e-05  1.017073  0.0
H  H7  1  0.39414957  0.41555617  0.59478622  1  0.094767  0.097636  0.000245  1.018726  0.0
H  H8  1  0.89578654  0.59466461  0.41539843  1  0.096307  0.097811  -7.9e-05  1.017073  0.0
H  H9  1  0.60584786  0.58443910  0.40521832  1  0.094776  0.097592  0.000245  1.018676  0.0
H  H10  1  0.17068555  0.30190620  0.35344161  1  0.099386  0.104538  2.7e-05  1.028518  0.0
H  H11  1  0.32977992  0.64628127  0.69828452  1  0.098099  0.103126  -0.00025  1.029305  0.0
H  H12  1  0.82931212  0.69809327  0.64656027  1  0.099375  0.104559  2.8e-05  1.028535  0.0
H  H13  1  0.67022177  0.35371400  0.30171400  1  0.098123  0.10311  -0.000247  1.029246  0.0
H  H14  1  0.20528271  0.04449000  0.34465437  1  0.105334  0.124639  -0.00034  1.025728  0.0
H  H15  1  0.29653061  0.65553524  0.95544510  1  0.102956  0.121748  -0.000291  1.028909  0.0
H  H16  1  0.79471775  0.95551159  0.65534867  1  0.105359  0.124741  -0.000337  1.025594  0.0
H  H17  1  0.70347259  0.34446319  0.04455165  1  0.102946  0.121771  -0.000287  1.028867  0.0
H  H18  1  0.13510648  0.82462388  0.38551596  1  0.089639  0.089988  0.000131  1.065409  0.0
H  H19  1  0.36601371  0.61451679  0.17466812  1  0.091507  0.093209  9.7e-05  1.065511  0.0
H  H20  1  0.86489033  0.17537455  0.61448727  1  0.089635  0.090014  0.000128  1.065516  0.0
H  H21  1  0.63398762  0.38548585  0.82533461  1  0.091491  0.09321  0.000104  1.065496  0.0
H  H22  1  0.22981318  0.67783248  0.48197089  1  0.100065  0.102906  -1.5e-05  1.001583  0.0
H  H23  1  0.27073541  0.51838622  0.32194990  1  0.100092  0.103285  5.5e-05  1.000865  0.0
H  H24  1  0.77018854  0.32216805  0.51802589  1  0.100036  0.102892  -1.5e-05  1.001583  0.0
H  H25  1  0.72926290  0.48161536  0.67804951  1  0.100093  0.103288  5.5e-05  1.000847  0.0
H  H26  1  0.32223961  0.81501295  0.38933920  1  0.090198  0.08949  0.000171  1.049784  0.0
H  H27  1  0.17861192  0.61099531  0.18523830  1  0.087807  0.085206  4e-05  1.049403  0.0
H  H28  1  0.67776106  0.18498758  0.61065986  1  0.090137  0.089471  0.000175  1.04963  0.0
H  H29  1  0.82138722  0.38900207  0.81475945  1  0.08781  0.085233  4.3e-05  1.049362  0.0
H  H30  1  0.12487505  0.21657134  0.13827383  1  0.110264  0.136748  -0.000874  0.99836  -0.001
H  H31  1  0.37521084  0.86172751  0.78343549  1  0.107335  0.132748  -0.000996  1.001648  -0.001
H  H32  1  0.87512715  0.78343237  0.86173369  1  0.11023  0.136845  -0.000865  0.998166  -0.001
H  H33  1  0.62477683  0.13822979  0.21652914  1  0.107285  0.132717  -0.000999  1.001406  -0.001
H  H34  1  0.93319264  0.26842139  0.16213349  1  0.107356  0.130502  -0.000224  1.025446  0.0
H  H35  1  0.56686923  0.83706487  0.73369852  1  0.106245  0.128732  -0.000363  1.026801  -0.001
H  H36  1  0.06680929  0.73157809  0.83786236  1  0.107353  0.130539  -0.000226  1.025446  0.0
H  H37  1  0.43311965  0.16295777  0.26631336  1  0.106204  0.128675  -0.000359  1.026755  -0.001
H  H38  1  0.04867494  0.38155944  0.05437711  1  0.093695  0.097993  -0.001892  1.026877  -0.001
H  H39  1  0.45432589  0.94565103  0.61905889  1  0.091198  0.09363  0.000344  1.028657  0.0
H  H40  1  0.95133000  0.61844111  0.94562616  1  0.093694  0.097989  -0.001883  1.026905  -0.001
H  H41  1  0.54567261  0.05434950  0.38092833  1  0.09118  0.093671  0.000341  1.028646  0.0
C  C42  1  0.07037572  0.26369634  0.83941696  1  0.085176  0.10273  0.020631  3.93403  0.016
C  C43  1  0.43010464  0.15951324  0.73624010  1  0.06199  0.064443  0.000692  3.94164  0.003
C  C44  1  0.92963690  0.73630317  0.16058379  1  0.085161  0.102829  0.020685  3.933996  0.017
C  C45  1  0.56987207  0.84047883  0.26377849  1  0.062025  0.064476  0.000759  3.941072  0.003
C  C46  1  0.09594773  0.20407313  0.70756675  1  -0.036307  -0.086089  0.009617  4.098648  0.007
C  C47  1  0.40357349  0.29197811  0.79543930  1  -0.035246  -0.06979  -0.012163  4.091109  -0.007
C  C48  1  0.90405015  0.79592530  0.29243523  1  -0.036343  -0.08629  0.009626  4.098831  0.007
C  C49  1  0.59640254  0.70801185  0.20457051  1  -0.035272  -0.069839  -0.012049  4.091157  -0.007
C  C50  1  0.11736365  0.29203701  0.57978458  1  -0.104932  -0.151267  0.004391  4.0646  0.002
C  C51  1  0.38152566  0.41989049  0.70809749  1  -0.108979  -0.161915  0.000131  4.072277  0.002
C  C52  1  0.88263337  0.70796036  0.42021875  1  -0.104918  -0.151225  0.004416  4.064666  0.002
C  C53  1  0.61847218  0.58010267  0.29190725  1  -0.109003  -0.161793  0.000118  4.072091  0.002
C  C54  1  0.15473552  0.23479327  0.45190320  1  -0.108169  -0.09569  0.010114  4.055803  0.007
C  C55  1  0.34485531  0.54787372  0.76551401  1  -0.109507  -0.093853  -0.015974  4.063559  -0.008
C  C56  1  0.84526235  0.76520515  0.54809775  1  -0.108134  -0.095694  0.010107  4.055905  0.007
C  C57  1  0.65514745  0.45212155  0.23448530  1  -0.109443  -0.093825  -0.015807  4.063372  -0.008
C  C58  1  0.17543796  0.08793702  0.44651510  1  -0.100249  -0.178806  0.005488  3.972575  0.003
C  C59  1  0.32471943  0.55364765  0.91221018  1  -0.108254  -0.194206  -0.000657  3.992213  0.001
C  C60  1  0.82455864  0.91206245  0.55348701  1  -0.100282  -0.178888  0.005511  3.972534  0.003
C  C61  1  0.67528720  0.44634974  0.08779110  1  -0.108285  -0.19415  -0.000661  3.991779  0.001
C  C62  1  0.15696450  0.99934011  0.57032720  1  0.074159  0.13832  0.002895  4.037271  0.002
C  C63  1  0.34279412  0.42973052  0.00053704  1  0.07374  0.141207  -0.010207  4.042381  -0.006
C  C64  1  0.84303851  0.00065938  0.42967559  1  0.074098  0.138207  0.002896  4.037445  0.002
C  C65  1  0.65722001  0.57027215  0.99946193  1  0.073826  0.141353  -0.010117  4.042088  -0.006
C  C66  1  0.11273435  0.05646345  0.70361332  1  0.099481  0.217201  0.002171  4.068074  0.003
C  C67  1  0.38735781  0.29637830  0.94315588  1  0.093553  0.200856  0.006338  4.05739  0.008
C  C68  1  0.88727696  0.94353184  0.29639033  1  0.099541  0.217285  0.002146  4.067961  0.003
C  C69  1  0.61262594  0.70361589  0.05685273  1  0.093481  0.200623  0.006282  4.057312  0.008
C  C70  1  0.21851760  0.79106600  0.45075454  1  -0.147087  -0.176115  0.000402  3.899506  0.0
C  C71  1  0.28220299  0.54936411  0.20869238  1  -0.146722  -0.175387  0.00044  3.903159  0.001
C  C72  1  0.78148519  0.20893454  0.54924406  1  -0.147035  -0.176083  0.000401  3.899413  0.0
C  C73  1  0.71779832  0.45063853  0.79130727  1  -0.146747  -0.175312  0.000445  3.903066  0.001
C  C74  1  0.03500222  0.27209313  0.08657250  1  -0.142477  -0.255415  3.2e-05  3.915999  0.001
C  C75  1  0.46597625  0.91322154  0.72892100  1  -0.144827  -0.253088  0.003197  3.915494  0.003
C  C76  1  0.96500379  0.72790742  0.91342951  1  -0.142506  -0.25563  4.9e-05  3.915865  0.001
C  C77  1  0.53399101  0.08676945  0.27107414  1  -0.144706  -0.253055  0.003193  3.914941  0.003
N  N78  1  0.03839605  0.19948947  0.96438717  1  -0.356898  -0.181663  -0.023933  3.517781  -0.033
N  N79  1  0.46271914  0.03516631  0.80257210  1  -0.359212  -0.159781  -0.009433  3.548158  -0.012
N  N80  1  0.96162150  0.80051215  0.03561430  1  -0.356778  -0.181487  -0.023918  3.517447  -0.033
N  N81  1  0.53712871  0.96481290  0.19748070  1  -0.359033  -0.159605  -0.009482  3.547445  -0.012
Cl  Cl82  1  0.74456422  0.08447337  0.91255933  1  -0.195341  -0.44071  0.056193  1.186498  0.044
Cl  Cl83  1  0.25598542  0.91566927  0.08730196  1  -0.194347  -0.43907  0.054567  1.191316  0.043
O  O84  1  0.09474172  0.96746699  0.81637574  1  -0.314502  -0.439421  0.036793  2.522347  0.024
O  O85  1  0.40629754  0.18336582  0.03182453  1  -0.307158  -0.401843  -0.009808  2.547498  -0.005
O  O86  1  0.90531291  0.03251995  0.18362803  1  -0.314447  -0.439189  0.03688  2.522346  0.024
O  O87  1  0.59364622  0.81664726  0.96820027  1  -0.307175  -0.401822  -0.009566  2.547065  -0.005
O  O88  1  0.17741991  0.85634819  0.57966514  1  -0.183367  -0.143773  0.001215  2.627649  0.001
O  O89  1  0.32205554  0.42047654  0.14359492  1  -0.183113  -0.144154  -0.00179  2.628996  -0.001
O  O90  1  0.82257902  0.14365024  0.42033252  1  -0.183368  -0.143761  0.001213  2.62776  0.001
O  O91  1  0.67794965  0.57952822  0.85640670  1  -0.183095  -0.144268  -0.001754  2.629023  -0.001
