# generated using pymatgen
data_AlH9C21N(ClO2)3
_symmetry_space_group_name_H-M   'P 1'
_cell_length_a   4.10734029
_cell_length_b   23.37713148
_cell_length_c   23.37734821
_cell_angle_alpha   119.99885491
_cell_angle_beta   89.99905166
_cell_angle_gamma   90.00145647
_symmetry_Int_Tables_number   1
_chemical_formula_structural   AlH9C21N(ClO2)3
_chemical_formula_sum   'Al3 H27 C63 N3 Cl9 O18'
_cell_volume   1943.93971804
_cell_formula_units_Z   3
loop_
 _symmetry_equiv_pos_site_id
 _symmetry_equiv_pos_as_xyz
  1  'x, y, z'
loop_
 _atom_site_type_symbol
 _atom_site_label
 _atom_site_symmetry_multiplicity
 _atom_site_fract_x
 _atom_site_fract_y
 _atom_site_fract_z
 _atom_site_occupancy
 _atom_site_pbe_bader_charge
 _atom_site_pbe_bader_spin_density
 _atom_site_pbe_cm5_charge
 _atom_site_pbe_ddec_charge
 _atom_site_pbe_ddec_spin_density
 _atom_site_pbe_ddec_sum_bond_order
 _atom_site_pbe_magmom
Al  Al0  1  0.99205179  0.00038733  0.50015149  1  2.510767  0  0.43256  1.628559  0  2.533439  0
Al  Al1  1  0.99210291  0.33317667  0.16690187  1  2.511153  0  0.432564  1.62882  0  2.533278  0
Al  Al2  1  0.99207093  0.66642112  0.83293433  1  2.510196  0  0.432651  1.628882  0  2.533013  0
H  H3  1  0.21140066  0.86878721  0.92124127  1  0.0827  0  0.112423  0.119858  0  0.969969  0
H  H4  1  0.20576937  0.97489453  0.92270327  1  0.088703  0  0.103745  0.114055  0  1.025948  0
H  H5  1  0.76574464  0.88645864  0.74251991  1  0.093289  0  0.104249  0.121684  0  1.034815  0
H  H6  1  0.76574740  0.02272914  0.94687912  1  0.091731  0  0.104238  0.121701  0  1.034916  0
H  H7  1  0.21146007  0.21911611  0.96453522  1  0.083381  0  0.112414  0.11995  0  0.969886  0
H  H8  1  0.20580437  0.11447002  0.85843469  1  0.076939  0  0.103775  0.114102  0  1.025846  0
H  H9  1  0.76577802  0.09081212  0.81060080  1  0.092223  0  0.104246  0.121651  0  1.034824  0
H  H10  1  0.21134499  0.91209060  0.61422380  1  0.096477  0  0.112369  0.119875  0  0.9699  0
H  H11  1  0.20573784  0.91063286  0.71887079  1  0.07528  0  0.103715  0.113994  0  1.025942  0
H  H12  1  0.78054429  0.42018561  0.36724228  1  0.092532  0  0.112994  0.121814  0  0.969301  0
H  H13  1  0.79283210  0.42237560  0.47371777  1  0.084602  0  0.103512  0.113551  0  1.026033  0
H  H14  1  0.23390702  0.24209176  0.38732567  1  0.10341  0  0.104284  0.12203  0  1.035813  0
H  H15  1  0.23384937  0.44599183  0.52142650  1  0.101713  0  0.10423  0.121833  0  1.035815  0
H  H16  1  0.78044587  0.46607954  0.71960104  1  0.093004  0  0.113035  0.12188  0  0.969287  0
H  H17  1  0.79277969  0.35960577  0.61531960  1  0.050458  0  0.103594  0.113632  0  1.025969  0
H  H18  1  0.23383911  0.31189157  0.59122288  1  0.074138  0  0.104302  0.121979  0  1.035875  0
H  H19  1  0.78054007  0.11372261  0.41315008  1  0.097539  0  0.11298  0.121816  0  0.969305  0
H  H20  1  0.79286448  0.21800708  0.41095369  1  0.047193  0  0.103508  0.113579  0  1.025954  0
H  H21  1  0.78163570  0.44711615  0.08003886  1  0.095329  0  0.113118  0.121059  0  0.969223  0
H  H22  1  0.79345127  0.55127565  0.07770565  1  0.046329  0  0.103554  0.113322  0  1.026458  0
H  H23  1  0.23388297  0.64518238  0.25789186  1  0.074113  0  0.10414  0.121652  0  1.036099  0
H  H24  1  0.23386080  0.57543967  0.05396235  1  0.102619  0  0.104118  0.121658  0  1.036033  0
H  H25  1  0.78157418  0.75329696  0.03373824  1  0.094165  0  0.113168  0.121125  0  0.969296  0
H  H26  1  0.79340185  0.75563503  0.14022991  1  0.085564  0  0.10351  0.113227  0  1.026585  0
H  H27  1  0.23383967  0.77936976  0.18814952  1  0.100684  0  0.104135  0.12164  0  1.036086  0
H  H28  1  0.78163647  0.79958900  0.38621306  1  0.097418  0  0.113169  0.121114  0  0.969243  0
H  H29  1  0.79347849  0.69309942  0.28205608  1  0.047899  0  0.103551  0.113319  0  1.026444  0
C  C30  1  0.49092720  0.91376091  0.41161127  1  1.618763  0  0.279763  0.684086  0  4.06006  0
C  C31  1  0.49621072  0.99990653  0.58731872  1  1.613486  0  0.279905  0.685269  0  4.056038  0
C  C32  1  0.49096233  0.08852138  0.50206465  1  1.636908  0  0.281227  0.688691  0  4.046987  0
C  C33  1  0.49625931  0.24600927  0.07925529  1  1.608587  0  0.280064  0.685446  0  4.055434  0
C  C34  1  0.49098427  0.42172367  0.16881701  1  1.634664  0  0.279525  0.683638  0  4.06045  0
C  C35  1  0.49100806  0.33126347  0.25312248  1  1.638974  0  0.281337  0.688808  0  4.046988  0
C  C36  1  0.49623552  0.75406989  0.83341728  1  1.609629  0  0.279999  0.685504  0  4.055699  0
C  C37  1  0.49093467  0.66451096  0.91956597  1  1.636605  0  0.279807  0.683995  0  4.060253  0
C  C38  1  0.49095881  0.58019795  0.74479610  1  1.624516  0  0.281259  0.688602  0  4.047431  0
C  C39  1  0.33795425  0.87312752  0.88261351  1  -0.013458  0  -0.081966  -0.06796  0  3.985377  0
C  C40  1  0.33180115  0.93282841  0.88313430  1  0.046531  0  -0.100595  -0.184652  0  3.997569  0
C  C41  1  0.48867674  0.93917584  0.83316770  1  0.223761  0  0.093748  0.199919  0  4.015372  0
C  C42  1  0.64491743  0.88364690  0.78237986  1  0.043974  0  -0.104629  -0.254068  0  3.991467  0
C  C43  1  0.64142681  0.82362207  0.78140277  1  0.079909  0  0.017204  0.140001  0  4.063007  0
C  C44  1  0.49487907  0.81762097  0.83220025  1  -0.008951  0  -0.020461  -0.112856  0  3.966224  0
C  C45  1  0.64492755  0.06539357  0.94968590  1  0.043692  0  -0.104495  -0.253936  0  3.991353  0
C  C46  1  0.64143555  0.12444762  0.00971330  1  0.057165  0  0.017167  0.139925  0  4.062864  0
C  C47  1  0.49489431  0.18124124  0.01570498  1  0.010332  0  -0.020416  -0.112609  0  3.966244  0
C  C48  1  0.33798439  0.17614836  0.96020013  1  -0.030242  0  -0.081996  -0.068215  0  3.985449  0
C  C49  1  0.33182818  0.11696779  0.90050302  1  0.051193  0  -0.100588  -0.184622  0  3.997407  0
C  C50  1  0.48868758  0.06065635  0.89415923  1  0.256688  0  0.093694  0.199844  0  4.015249  0
C  C51  1  0.64493502  0.05095008  0.76793255  1  0.035517  0  -0.104606  -0.25397  0  3.991458  0
C  C52  1  0.64143679  0.05192748  0.70888435  1  0.064779  0  0.017164  0.13991  0  4.062797  0
C  C53  1  0.49487630  0.00112749  0.65209081  1  0.020848  0  -0.020342  -0.112533  0  3.966092  0
C  C54  1  0.33791909  0.95072248  0.65719310  1  -0.054433  0  -0.082049  -0.068195  0  3.985669  0
C  C55  1  0.33177850  0.95020089  0.71637065  1  0.019465  0  -0.100494  -0.184483  0  3.997398  0
C  C56  1  0.48867439  0.00016792  0.77267816  1  0.289227  0  0.093865  0.200021  0  4.015326  0
C  C57  1  0.65679947  0.38156731  0.37205989  1  0.022927  0  -0.080651  -0.066879  0  3.981483  0
C  C58  1  0.66639176  0.38251155  0.43195836  1  0.022625  0  -0.099492  -0.182916  0  3.996625  0
C  C59  1  0.51179397  0.33272525  0.43897617  1  0.240322  0  0.094445  0.19982  0  4.015086  0
C  C60  1  0.35380994  0.28169181  0.38392944  1  -0.005575  0  -0.104935  -0.25484  0  3.994767  0
C  C61  1  0.35398307  0.28027348  0.32370603  1  0.062172  0  0.017054  0.139894  0  4.066078  0
C  C62  1  0.49876919  0.33077310  0.31701776  1  -0.014809  0  -0.021217  -0.112682  0  3.96626  0
C  C63  1  0.35379140  0.44938988  0.56442279  1  0.014398  0  -0.104904  -0.254596  0  3.994993  0
C  C64  1  0.35392436  0.50961513  0.62322239  1  0.05317  0  0.01702  0.139702  0  4.066308  0
C  C65  1  0.49873607  0.51630898  0.68041725  1  0.010048  0  -0.021161  -0.112557  0  3.96614  0
C  C66  1  0.65673976  0.46126301  0.67616331  1  -0.018303  0  -0.080659  -0.06689  0  3.981493  0
C  C67  1  0.66633819  0.40136362  0.61721240  1  0.08673  0  -0.099563  -0.183065  0  3.99687  0
C  C68  1  0.51176342  0.39434844  0.56040900  1  0.241411  0  0.094406  0.19979  0  4.015296  0
C  C69  1  0.35376713  0.26889377  0.55162568  1  0.00711  0  -0.104868  -0.254661  0  3.995084  0
C  C70  1  0.35393092  0.21009453  0.55305124  1  0.063809  0  0.017046  0.139785  0  4.066144  0
C  C71  1  0.49873099  0.15290627  0.50255470  1  0.012316  0  -0.021319  -0.11274  0  3.966099  0
C  C72  1  0.65678241  0.15715939  0.45176421  1  -0.012936  0  -0.080564  -0.066814  0  3.981576  0
C  C73  1  0.66638892  0.21610816  0.45081366  1  0.027674  0  -0.099605  -0.183112  0  3.996793  0
C  C74  1  0.51177228  0.27291194  0.50059875  1  0.301079  0  0.094466  0.199853  0  4.015074  0
C  C75  1  0.65724502  0.49049573  0.11858442  1  -0.018568  0  -0.080534  -0.067205  0  3.98321  0
C  C76  1  0.66677606  0.54941592  0.11756578  1  0.030302  0  -0.099748  -0.183197  0  3.996992  0
C  C77  1  0.51198900  0.60624240  0.16729652  1  0.300705  0  0.094003  0.199196  0  4.014689  0
C  C78  1  0.35390594  0.60220403  0.21829830  1  0.008632  0  -0.10478  -0.254142  0  3.994993  0
C  C79  1  0.35397965  0.54339020  0.21972904  1  0.064794  0  0.01683  0.139692  0  4.06618  0
C  C80  1  0.49890388  0.48615045  0.16930795  1  0.014246  0  -0.021606  -0.112097  0  3.965214  0
C  C81  1  0.35387084  0.61503717  0.05057295  1  -0.002644  0  -0.104756  -0.254193  0  3.99501  0
C  C82  1  0.35393159  0.61360698  0.99033383  1  0.053924  0  0.016782  0.139831  0  4.066682  0
C  C83  1  0.49884919  0.66402206  0.98350768  1  -0.012879  0  -0.021647  -0.112344  0  3.965234  0
C  C84  1  0.65720366  0.71475543  0.03857234  1  0.021751  0  -0.080634  -0.067259  0  3.982682  0
C  C85  1  0.66672778  0.71576989  0.09851436  1  0.024195  0  -0.099602  -0.183011  0  3.997179  0
C  C86  1  0.51198148  0.66604356  0.10561338  1  0.23993  0  0.094003  0.199134  0  4.014873  0
C  C87  1  0.35386935  0.78275819  0.23112976  1  0.017326  0  -0.104774  -0.254128  0  3.995123  0
C  C88  1  0.35392197  0.84299775  0.28994071  1  0.04473  0  0.016782  0.139719  0  4.066456  0
C  C89  1  0.49886029  0.84981786  0.34717785  1  0.025641  0  -0.021634  -0.11238  0  3.965302  0
C  C90  1  0.65723405  0.79475563  0.34283751  1  -0.026343  0  -0.080559  -0.067176  0  3.983222  0
C  C91  1  0.66677160  0.73481671  0.28391672  1  0.086419  0  -0.099759  -0.18322  0  3.996996  0
C  C92  1  0.51198015  0.72771861  0.22709016  1  0.241565  0  0.093981  0.199151  0  4.014823  0
N  N93  1  0.48677710  0.99999779  0.83333314  1  -1.174507  0  -0.245386  -0.141722  0  3.601488  0
N  N94  1  0.51686501  0.33332672  0.49999248  1  -1.172039  0  -0.24674  -0.141376  0  3.603845  0
N  N95  1  0.51712556  0.66666787  0.16666587  1  -1.17014  0  -0.246153  -0.140876  0  3.600261  0
Cl  Cl96  1  0.81918493  0.75577378  0.71525236  1  -0.194993  0  0.002836  -0.056686  0  1.55268  0
Cl  Cl97  1  0.81918744  0.12614677  0.07756106  1  -0.195672  0  0.002835  -0.056674  0  1.55275  0
Cl  Cl98  1  0.81922324  0.11807549  0.70717959  1  -0.197075  0  0.002779  -0.056752  0  1.552677  0
Cl  Cl99  1  0.17284974  0.21405303  0.25642172  1  -0.18509  0  0.001297  -0.058601  0  1.548288  0
Cl  Cl100  1  0.17275828  0.57689543  0.62428332  1  -0.193953  0  0.001356  -0.058517  0  1.54848  0
Cl  Cl101  1  0.17277890  0.20903165  0.61927246  1  -0.19604  0  0.001263  -0.058606  0  1.548293  0
Cl  Cl102  1  0.17220923  0.54247298  0.28599367  1  -0.198444  0  0.000514  -0.060235  0  1.515744  0
Cl  Cl103  1  0.17216280  0.54733839  0.92315500  1  -0.18794  0  0.000538  -0.060223  0  1.51558  0
Cl  Cl104  1  0.17212530  0.91017661  0.29085327  1  -0.196514  0  0.000565  -0.060168  0  1.515526  0
O  O105  1  0.72463209  0.07669723  0.53014769  1  -1.249077  0  -0.232964  -0.606522  0  2.422541  0
O  O106  1  0.72432381  0.95372447  0.42347069  1  -1.246492  0  -0.233348  -0.604669  0  2.408099  0
O  O107  1  0.73169860  0.96985771  0.54805484  1  -1.25361  0  -0.238904  -0.597559  0  2.323588  0
O  O108  1  0.25245144  0.05014904  0.47233208  1  -1.256202  0  -0.235285  -0.597267  0  2.346419  0
O  O109  1  0.25944469  0.02763435  0.57602667  1  -1.248694  0  -0.230009  -0.601918  0  2.428515  0
O  O110  1  0.25243348  0.92235308  0.44996566  1  -1.255931  0  -0.236165  -0.595795  0  2.330148  0
O  O111  1  0.25250828  0.36099525  0.24448370  1  -1.255364  0  -0.235392  -0.597327  0  2.346437  0
O  O112  1  0.25947976  0.25730362  0.11827828  1  -1.246267  0  -0.229964  -0.601939  0  2.428227  0
O  O113  1  0.25249529  0.38335974  0.13905037  1  -1.257315  0  -0.236069  -0.595709  0  2.330201  0
O  O114  1  0.72466767  0.30317829  0.21321421  1  -1.2524  0  -0.233051  -0.606764  0  2.422764  0
O  O115  1  0.72437647  0.40985613  0.19691692  1  -1.247605  0  -0.233212  -0.604535  0  2.407975  0
O  O116  1  0.73177172  0.28527687  0.08847162  1  -1.249623  0  -0.239094  -0.597765  0  2.323421  0
O  O117  1  0.25245779  0.58884173  0.78317246  1  -1.253194  0  -0.235422  -0.597284  0  2.346482  0
O  O118  1  0.25945310  0.71504911  0.80568825  1  -1.249834  0  -0.230025  -0.601982  0  2.428167  0
O  O119  1  0.25242515  0.69426716  0.91096693  1  -1.256358  0  -0.236285  -0.595894  0  2.330304  0
O  O120  1  0.72464026  0.62010714  0.75662091  1  -1.246826  0  -0.233027  -0.606609  0  2.422462  0
O  O121  1  0.72429239  0.63639974  0.87959562  1  -1.25109  0  -0.233325  -0.604719  0  2.407941  0
O  O122  1  0.73172893  0.74485344  0.86346538  1  -1.24928  0  -0.23895  -0.597684  0  2.323469  0
