# generated using pymatgen
data_InPH12(C3O)7
_symmetry_space_group_name_H-M   'P 1'
_cell_length_a   8.83370308
_cell_length_b   8.85348326
_cell_length_c   8.84078200
_cell_angle_alpha   107.89278299
_cell_angle_beta   107.78883740
_cell_angle_gamma   107.86810076
_symmetry_Int_Tables_number   1
_chemical_formula_structural   InPH12(C3O)7
_chemical_formula_sum   'In1 P1 H12 C21 O7'
_cell_volume   561.94378098
_cell_formula_units_Z   1
loop_
 _symmetry_equiv_pos_site_id
 _symmetry_equiv_pos_as_xyz
  1  'x, y, z'
loop_
 _atom_site_type_symbol
 _atom_site_label
 _atom_site_symmetry_multiplicity
 _atom_site_fract_x
 _atom_site_fract_y
 _atom_site_fract_z
 _atom_site_occupancy
 _atom_site_hle17_bader_spin_density
 _atom_site_hle17_ddec_charge
 _atom_site_hle17_ddec_spin_density
 _atom_site_hle17_ddec_sum_bond_order
 _atom_site_hle17_magmom
 _atom_site_hse06_10hf_bader_spin_density
 _atom_site_hse06_10hf_ddec_charge
 _atom_site_hse06_10hf_ddec_spin_density
 _atom_site_hse06_10hf_ddec_sum_bond_order
 _atom_site_hse06_10hf_magmom
 _atom_site_hse06_bader_spin_density
 _atom_site_hse06_ddec_charge
 _atom_site_hse06_ddec_spin_density
 _atom_site_hse06_ddec_sum_bond_order
 _atom_site_hse06_magmom
 _atom_site_pbe_bader_spin_density
 _atom_site_pbe_cm5_charge
 _atom_site_pbe_ddec_charge
 _atom_site_pbe_ddec_spin_density
 _atom_site_pbe_ddec_sum_bond_order
 _atom_site_pbe_magmom
In  In0  1  0.21060707  0.21032587  0.21030891  1  0  1.657914  0  2.12771  0  0  1.487824  0  2.580981  0  0  1.559604  0  2.524065  0  0  0.77279  1.43783  0  2.619312  0
P  P1  1  0.82759831  0.82765302  0.82759312  1  0  1.004923  0  4.368945  0  0  0.897941  0  4.790562  0  0  0.9324  0  4.776762  0  0  0.287111  0.874074  0  4.799648  0
H  H2  1  0.73639157  0.92853316  0.11521773  1  0  0.108387  0  0.931788  0  0  0.119815  0  0.986668  0  0  0.123133  0  0.985067  0  0  0.114234  0.117411  0  0.987914  0
H  H3  1  0.11511565  0.73680494  0.92901240  1  0  0.108737  0  0.930545  0  0  0.120066  0  0.985556  0  0  0.1234  0  0.983946  0  0  0.11439  0.117654  0  0.986812  0
H  H4  1  0.92898490  0.11499717  0.73680915  1  0  0.108458  0  0.931475  0  0  0.119803  0  0.986509  0  0  0.123131  0  0.984901  0  0  0.114276  0.117397  0  0.987759  0
H  H5  1  0.54946346  0.75202969  0.22005514  1  0  0.102644  0  0.959196  0  0  0.110205  0  1.02364  0  0  0.112778  0  1.023522  0  0  0.105819  0.108314  0  1.023865  0
H  H6  1  0.21978188  0.54955802  0.75206795  1  0  0.102493  0  0.959451  0  0  0.110197  0  1.023809  0  0  0.112831  0  1.023616  0  0  0.10571  0.108271  0  1.024069  0
H  H7  1  0.75207181  0.21954527  0.54969074  1  0  0.103277  0  0.959522  0  0  0.110731  0  1.024052  0  0  0.113405  0  1.023822  0  0  0.105799  0.108781  0  1.024341  0
H  H8  1  0.43806496  0.26890726  0.79859645  1  0  0.111439  0  0.929802  0  0  0.121307  0  0.987123  0  0  0.124863  0  0.984982  0  0  0.11265  0.118719  0  0.98878  0
H  H9  1  0.79861513  0.43766919  0.26837050  1  0  0.111347  0  0.930179  0  0  0.121423  0  0.987226  0  0  0.124942  0  0.985128  0  0  0.112598  0.118834  0  0.988887  0
H  H10  1  0.26836504  0.79869872  0.43762449  1  0  0.111065  0  0.930494  0  0  0.121156  0  0.987617  0  0  0.124648  0  0.985548  0  0  0.112458  0.118572  0  0.989265  0
H  H11  1  0.62189532  0.44219923  0.69033954  1  0  0.100405  0  0.969187  0  0  0.107627  0  1.036338  0  0  0.110143  0  1.03629  0  0  0.10508  0.105802  0  1.036468  0
H  H12  1  0.69047942  0.62176459  0.44210121  1  0  0.100119  0  0.969528  0  0  0.107481  0  1.03651  0  0  0.109984  0  1.036517  0  0  0.104923  0.105651  0  1.036643  0
H  H13  1  0.44206298  0.69069452  0.62160779  1  0  0.099902  0  0.969126  0  0  0.107108  0  1.036288  0  0  0.109607  0  1.036299  0  0  0.104796  0.105286  0  1.036417  0
C  C14  1  0.69025043  0.69537293  0.89668097  1  0  -0.186551  0  3.762473  0  0  -0.150102  0  4.005786  0  0  -0.157623  0  4.029434  0  0  -0.016824  -0.144923  0  3.989739  0
C  C15  1  0.89681932  0.69038995  0.69538363  1  0  -0.186932  0  3.763119  0  0  -0.150675  0  4.006768  0  0  -0.158206  0  4.030463  0  0  -0.01712  -0.145526  0  3.990743  0
C  C16  1  0.69543132  0.89681465  0.69035962  1  0  -0.185824  0  3.762419  0  0  -0.149706  0  4.006087  0  0  -0.157201  0  4.029743  0  0  -0.016693  -0.144572  0  3.990082  0
C  C17  1  0.67005280  0.78424945  0.04568882  1  0  -0.041096  0  3.722101  0  0  -0.061683  0  3.964046  0  0  -0.062897  0  3.984881  0  0  -0.069376  -0.060837  0  3.949889  0
C  C18  1  0.04568994  0.67028084  0.78451652  1  0  -0.041066  0  3.719552  0  0  -0.061486  0  3.961497  0  0  -0.062728  0  3.982365  0  0  -0.069373  -0.060619  0  3.947336  0
C  C19  1  0.78447399  0.04560281  0.67030478  1  0  -0.040487  0  3.719493  0  0  -0.060878  0  3.961462  0  0  -0.062115  0  3.982331  0  0  -0.069214  -0.060021  0  3.947304  0
C  C20  1  0.56689034  0.68664575  0.10457885  1  0  -0.066733  0  3.71057  0  0  -0.08808  0  3.954936  0  0  -0.088877  0  3.975859  0  0  -0.075724  -0.087361  0  3.940682  0
C  C21  1  0.10439757  0.56699548  0.68670777  1  0  -0.066927  0  3.708605  0  0  -0.088398  0  3.952891  0  0  -0.089227  0  3.973769  0  0  -0.076043  -0.087644  0  3.938666  0
C  C22  1  0.68674170  0.10427043  0.56711208  1  0  -0.06854  0  3.70994  0  0  -0.089819  0  3.954229  0  0  -0.090707  0  3.975118  0  0  -0.076279  -0.089051  0  3.940008  0
C  C23  1  0.48423758  0.50088981  0.01520360  1  0  -0.050297  0  3.752223  0  0  -0.025903  0  3.980981  0  0  -0.033369  0  4.003394  0  0  -0.007439  -0.021227  0  3.966119  0
C  C24  1  0.01508538  0.48414383  0.50070022  1  0  -0.050176  0  3.750366  0  0  -0.025864  0  3.97904  0  0  -0.033325  0  4.001463  0  0  -0.007113  -0.021226  0  3.964236  0
C  C25  1  0.50067360  0.01507559  0.48419114  1  0  -0.05077  0  3.751186  0  0  -0.026231  0  3.979922  0  0  -0.033674  0  4.002333  0  0  -0.007702  -0.021534  0  3.964997  0
C  C26  1  0.50403873  0.41299504  0.86639784  1  0  -0.040784  0  3.673618  0  0  -0.066102  0  3.922259  0  0  -0.065583  0  3.940035  0  0  -0.067298  -0.066319  0  3.910225  0
C  C27  1  0.86632846  0.50380165  0.41263742  1  0  -0.040733  0  3.674775  0  0  -0.066217  0  3.923348  0  0  -0.065641  0  3.941124  0  0  -0.06703  -0.066446  0  3.911309  0
C  C28  1  0.41266942  0.86642382  0.50383183  1  0  -0.040409  0  3.674591  0  0  -0.066053  0  3.923371  0  0  -0.065478  0  3.941148  0  0  -0.066891  -0.066279  0  3.911341  0
C  C29  1  0.60731800  0.51023331  0.80691964  1  0  -0.042273  0  3.727045  0  0  -0.066412  0  3.978208  0  0  -0.067123  0  3.998979  0  0  -0.072406  -0.065886  0  3.964093  0
C  C30  1  0.80700095  0.60716953  0.51004693  1  0  -0.042285  0  3.726867  0  0  -0.06646  0  3.978081  0  0  -0.06719  0  3.99884  0  0  -0.07255  -0.065903  0  3.963957  0
C  C31  1  0.51001907  0.80713157  0.60709291  1  0  -0.042334  0  3.727483  0  0  -0.066245  0  3.978759  0  0  -0.066977  0  3.999519  0  0  -0.072682  -0.065704  0  3.96465  0
C  C32  1  0.37820859  0.39733140  0.08189497  1  0  0.615683  0  3.920669  0  0  0.570367  0  4.208535  0  0  0.60517  0  4.202633  0  0  0.214017  0.546927  0  4.211586  0
C  C33  1  0.08177400  0.37804747  0.39700966  1  0  0.616571  0  3.920761  0  0  0.571489  0  4.208312  0  0  0.606277  0  4.202433  0  0  0.214604  0.54807  0  4.211328  0
C  C34  1  0.39706386  0.08169636  0.37810750  1  0  0.61702  0  3.918737  0  0  0.571485  0  4.206901  0  0  0.606293  0  4.201003  0  0  0.214844  0.548038  0  4.209962  0
O  O35  1  0.30079563  0.22784004  0.99996903  1  0  -0.616496  0  1.926402  0  0  -0.562978  0  2.147016  0  0  -0.590389  0  2.137426  0  0  -0.293958  -0.544033  0  2.152908  0
O  O36  1  0.00012295  0.30057983  0.22734177  1  0  -0.616771  0  1.926919  0  0  -0.56345  0  2.14742  0  0  -0.59085  0  2.137862  0  0  -0.294291  -0.544508  0  2.153277  0
O  O37  1  0.22732354  0.00000035  0.30051533  1  0  -0.616582  0  1.926481  0  0  -0.563167  0  2.147112  0  0  -0.590547  0  2.137533  0  0  -0.294251  -0.54424  0  2.152981  0
O  O38  1  0.36749353  0.47793666  0.22289935  1  0  -0.623967  0  1.958643  0  0  -0.569725  0  2.187859  0  0  -0.598395  0  2.18145  0  0  -0.289178  -0.549877  0  2.191511  0
O  O39  1  0.22266766  0.36735109  0.47787567  1  0  -0.624701  0  1.959075  0  0  -0.570548  0  2.188237  0  0  -0.599221  0  2.181814  0  0  -0.289691  -0.550702  0  2.191899  0
O  O40  1  0.47808496  0.22248871  0.36752560  1  0  -0.624651  0  1.957822  0  0  -0.570213  0  2.187102  0  0  -0.598923  0  2.180701  0  0  -0.289519  -0.550343  0  2.190747  0
O  O41  1  0.98538768  0.98540851  0.98565225  1  0  -0.772996  0  2.131121  0  0  -0.69963  0  2.415029  0  0  -0.726341  0  2.396679  0  0  -0.337454  -0.680852  0  2.427036  0
