# generated using pymatgen
data_MnH26C25S2(NO)4
_symmetry_space_group_name_H-M   'P 1'
_cell_length_a   12.23902099
_cell_length_b   12.23886091
_cell_length_c   25.08835662
_cell_angle_alpha   89.99994472
_cell_angle_beta   89.99781101
_cell_angle_gamma   89.99940990
_symmetry_Int_Tables_number   1
_chemical_formula_structural   MnH26C25S2(NO)4
_chemical_formula_sum   'Mn4 H104 C100 S8 N16 O16'
_cell_volume   3758.02697184
_cell_formula_units_Z   4
loop_
 _symmetry_equiv_pos_site_id
 _symmetry_equiv_pos_as_xyz
  1  'x, y, z'
loop_
 _atom_site_type_symbol
 _atom_site_label
 _atom_site_symmetry_multiplicity
 _atom_site_fract_x
 _atom_site_fract_y
 _atom_site_fract_z
 _atom_site_occupancy
 _atom_site_pbe_bader_charge
 _atom_site_pbe_bader_spin_density
 _atom_site_pbe_cm5_charge
 _atom_site_pbe_ddec_charge
 _atom_site_pbe_ddec_spin_density
 _atom_site_pbe_ddec_sum_bond_order
 _atom_site_pbe_magmom
Mn  Mn0  1  0.75013706  0.75006755  0.91962498  1  1.32363  4.518792  0.450633  0.598705  4.659321  2.627608  4.404
Mn  Mn1  1  0.25002439  0.25000771  0.41965920  1  1.323702  4.518871  0.450829  0.599038  4.659199  2.626991  4.405
Mn  Mn2  1  0.24999024  0.25004560  0.08036078  1  1.323596  4.518856  0.45067  0.598727  4.659326  2.627467  4.405
Mn  Mn3  1  0.75001958  0.74999024  0.58038036  1  1.323737  4.518867  0.450815  0.598913  4.659363  2.627189  4.405
H  H4  1  0.94890169  0.90486446  0.88987781  1  0.085679  0.002064  0.107605  0.068922  0.001302  1.044138  0.001
H  H5  1  0.10171792  0.92686684  0.82402688  1  0.075659  0.000894  0.113073  0.135526  0.000525  0.982119  0.0
H  H6  1  0.97160590  0.64364082  0.74169418  1  0.095543  0.000666  0.105979  0.123735  0.000328  1.035379  0.0
H  H7  1  0.82954363  0.63297546  0.81238647  1  0.123866  0.001424  0.102558  0.072992  0.000579  1.045799  0.0
H  H8  1  0.16661168  0.63828582  0.72375752  1  0.082214  0.000153  0.107111  0.081045  7.7e-05  0.971805  0.0
H  H9  1  0.07839117  0.71039025  0.67816786  1  0.111597  0.000826  0.099822  0.074955  0.000449  1.035447  0.0
H  H10  1  0.32747289  0.59119162  0.65953341  1  0.076166  0.000229  0.104737  0.081986  0.000108  0.969853  0.0
H  H11  1  0.34428064  0.68205461  0.60493579  1  0.129655  0.00229  0.09543  0.085527  0.001769  1.050107  0.0
H  H12  1  0.03826188  0.48830126  0.56772104  1  0.047667  0.0009  0.105217  0.122846  0.000434  1.02655  0.0
H  H13  1  0.38738203  0.54892685  0.56202149  1  0.119294  0.001504  0.097841  0.123758  0.00087  1.060518  0.0
H  H14  1  0.06522511  0.35225830  0.49444221  1  0.116703  0.001635  0.103089  0.071027  0.000908  1.049601  0.0
H  H15  1  0.39686348  0.41245256  0.48868742  1  0.133735  0.001237  0.10016  0.081605  0.000376  1.040714  0.0
H  H16  1  0.69463071  0.49529740  0.91865738  1  -0.023105  0.007714  0.080408  0.118977  0.003793  1.145239  0.003
H  H17  1  0.55116396  0.59515141  0.88985011  1  0.086049  0.002051  0.107616  0.068852  0.001291  1.0443  0.001
H  H18  1  0.39840606  0.57303500  0.82396959  1  0.074338  0.000891  0.113113  0.135455  0.000523  0.982831  0.0
H  H19  1  0.52829320  0.85634917  0.74166598  1  0.094849  0.000664  0.10592  0.123555  0.000326  1.03564  0.0
H  H20  1  0.67026906  0.86719579  0.81238112  1  0.122629  0.00142  0.102519  0.07288  0.000574  1.045865  0.0
H  H21  1  0.33335998  0.86160885  0.72376667  1  0.083205  0.000152  0.107096  0.080871  7.7e-05  0.971981  0.0
H  H22  1  0.42160775  0.78960582  0.67816264  1  0.111594  0.000825  0.099809  0.075029  0.000447  1.035132  0.0
H  H23  1  0.17254955  0.90873014  0.65958540  1  0.076614  0.000229  0.10471  0.081968  0.000108  0.969602  0.0
H  H24  1  0.15571747  0.81789911  0.60495347  1  0.129537  0.002291  0.09534  0.085465  0.001773  1.050274  0.0
H  H25  1  0.46173448  0.01156436  0.56773594  1  0.047943  0.0009  0.105039  0.122652  0.000434  1.027099  0.0
H  H26  1  0.11259328  0.95102696  0.56202595  1  0.119705  0.001506  0.097847  0.123765  0.000872  1.060358  0.0
H  H27  1  0.43482926  0.14760909  0.49443323  1  0.116761  0.001631  0.102983  0.07081  0.000905  1.049884  0.0
H  H28  1  0.10316111  0.08750063  0.48868068  1  0.134382  0.001235  0.100161  0.081626  0.000374  1.040638  0.0
H  H29  1  0.80536105  0.00482390  0.91858991  1  -0.023852  0.007751  0.080487  0.119063  0.003812  1.145264  0.003
H  H30  1  0.09514776  0.44879092  0.38986351  1  0.085332  0.00206  0.107567  0.068755  0.001298  1.04422  0.001
H  H31  1  0.07304974  0.60156593  0.32399607  1  0.07485  0.000892  0.113051  0.135554  0.000523  0.982732  0.0
H  H32  1  0.35633608  0.47163334  0.24167639  1  0.095016  0.000665  0.106017  0.123626  0.000327  1.035765  0.0
H  H33  1  0.36713720  0.32961102  0.31237964  1  0.122994  0.001422  0.102447  0.072858  0.000575  1.045666  0.0
H  H34  1  0.36160826  0.66656160  0.22374327  1  0.083282  0.000152  0.107076  0.080798  7.7e-05  0.971582  0.0
H  H35  1  0.28955081  0.57834057  0.17814154  1  0.111297  0.000827  0.099775  0.074918  0.000449  1.035718  0.0
H  H36  1  0.40869949  0.82744240  0.15954448  1  0.077469  0.000228  0.104917  0.082184  0.000108  0.96951  0.0
H  H37  1  0.31786502  0.84424922  0.10494151  1  0.129418  0.002288  0.095347  0.085471  0.001769  1.050107  0.0
H  H38  1  0.51158044  0.53827779  0.06768545  1  0.048367  0.000898  0.105055  0.12261  0.000434  1.02676  0.0
H  H39  1  0.45098986  0.88740782  0.06204626  1  0.119163  0.001504  0.097743  0.123583  0.000872  1.060354  0.0
H  H40  1  0.64761382  0.56526977  0.99439453  1  0.117518  0.001627  0.103086  0.070957  0.000904  1.050092  0.0
H  H41  1  0.58745883  0.89694964  0.98870791  1  0.133457  0.001229  0.100116  0.081697  0.000368  1.040339  0.0
H  H42  1  0.50478038  0.19459601  0.41865279  1  -0.023903  0.007732  0.080478  0.11912  0.0038  1.145162  0.003
H  H43  1  0.40496462  0.05113712  0.38980452  1  0.08672  0.002054  0.107577  0.068888  0.001293  1.043975  0.001
H  H44  1  0.42697194  0.89834500  0.32393370  1  0.074288  0.000892  0.113046  0.13552  0.000523  0.982673  0.0
H  H45  1  0.14360485  0.02828354  0.24168367  1  0.094067  0.000664  0.105976  0.123657  0.000327  1.035632  0.0
H  H46  1  0.13286684  0.17030573  0.31238745  1  0.123244  0.001419  0.102664  0.073114  0.000573  1.045587  0.0
H  H47  1  0.13830359  0.83329150  0.22377760  1  0.082573  0.000152  0.107022  0.080853  7.7e-05  0.972024  0.0
H  H48  1  0.21030741  0.92155020  0.17816013  1  0.112242  0.000825  0.099862  0.074818  0.000449  1.035307  0.0
H  H49  1  0.09117734  0.67248762  0.15955307  1  0.07525  0.00023  0.104747  0.082203  0.000108  0.969818  0.0
H  H50  1  0.18203078  0.65569316  0.10492170  1  0.129155  0.002293  0.095374  0.085676  0.001772  1.050033  0.0
H  H51  1  0.98839009  0.96176164  0.06770998  1  0.048357  0.000901  0.105086  0.122742  0.000435  1.02672  0.0
H  H52  1  0.04889131  0.61259347  0.06198033  1  0.1187  0.001504  0.097776  0.123844  0.000871  1.060509  0.0
H  H53  1  0.85229087  0.93484641  0.99442879  1  0.116367  0.001637  0.103008  0.070994  0.000909  1.049605  0.0
H  H54  1  0.91238340  0.60317472  0.98866469  1  0.134622  0.00124  0.100193  0.0816  0.000378  1.040879  0.0
H  H55  1  0.99527247  0.30528843  0.41865017  1  -0.022737  0.007729  0.080334  0.118713  0.003804  1.145449  0.003
H  H56  1  0.05118558  0.09512859  0.11015817  1  0.086125  0.002058  0.107601  0.06886  0.001296  1.044296  0.001
H  H57  1  0.89839549  0.07306247  0.17602145  1  0.074355  0.000892  0.113116  0.135527  0.000524  0.982559  0.0
H  H58  1  0.02833839  0.35635386  0.25833183  1  0.095091  0.000665  0.105971  0.12369  0.000327  1.035543  0.0
H  H59  1  0.17035327  0.36712462  0.18762479  1  0.122944  0.001422  0.102488  0.072913  0.000576  1.045757  0.0
H  H60  1  0.83337917  0.36166147  0.27623620  1  0.082517  0.000152  0.107112  0.081082  7.7e-05  0.972015  0.0
H  H61  1  0.92160868  0.28962240  0.32184181  1  0.1116  0.000826  0.09987  0.075088  0.000449  1.035359  0.0
H  H62  1  0.67253595  0.40877365  0.34043640  1  0.076511  0.000228  0.10468  0.08195  0.000108  0.969782  0.0
H  H63  1  0.65572330  0.31793925  0.39506192  1  0.129155  0.00229  0.095445  0.085567  0.001771  1.050205  0.0
H  H64  1  0.96177800  0.51153817  0.43227826  1  0.047576  0.000901  0.10499  0.122615  0.000435  1.027119  0.0
H  H65  1  0.61261700  0.45107356  0.43798498  1  0.119219  0.001501  0.097892  0.12379  0.000869  1.060467  0.0
H  H66  1  0.93486788  0.64763016  0.50557105  1  0.117935  0.00163  0.103007  0.070874  0.000903  1.049613  0.0
H  H67  1  0.60318294  0.58757153  0.51131069  1  0.133854  0.001236  0.100175  0.081696  0.000375  1.040912  0.0
H  H68  1  0.30531848  0.50475938  0.08137620  1  -0.023514  0.007736  0.080436  0.118929  0.003805  1.145264  0.003
H  H69  1  0.44883262  0.40495848  0.11016673  1  0.085638  0.002058  0.107589  0.068861  0.001296  1.043993  0.001
H  H70  1  0.60162483  0.42697847  0.17602214  1  0.074779  0.000892  0.113136  0.135481  0.000524  0.982639  0.0
H  H71  1  0.47166416  0.14364061  0.25831180  1  0.094906  0.000665  0.105955  0.123593  0.000327  1.035402  0.0
H  H72  1  0.32963192  0.13291328  0.18761739  1  0.123273  0.00142  0.102504  0.072956  0.000575  1.04567  0.0
H  H73  1  0.66663660  0.13836295  0.27623223  1  0.08275  0.000152  0.107183  0.081166  7.7e-05  0.972105  0.0
H  H74  1  0.57840026  0.21038967  0.32183906  1  0.111672  0.000826  0.099871  0.07518  0.000448  1.035368  0.0
H  H75  1  0.82744866  0.09123758  0.34044141  1  0.0768  0.000229  0.104735  0.081981  0.000108  0.969773  0.0
H  H76  1  0.84426930  0.18206861  0.39505820  1  0.12922  0.002291  0.095403  0.085439  0.001771  1.05024  0.0
H  H77  1  0.53827435  0.98838048  0.43230362  1  0.048403  0.000898  0.105096  0.122629  0.000434  1.026604  0.0
H  H78  1  0.88741066  0.04894567  0.43795781  1  0.119273  0.001506  0.097826  0.123808  0.000873  1.06031  0.0
H  H79  1  0.56524167  0.85233330  0.50559199  1  0.117043  0.001632  0.103045  0.070869  0.000907  1.049731  0.0
H  H80  1  0.89690819  0.91246872  0.51128992  1  0.13325  0.001232  0.100229  0.081739  0.000371  1.040698  0.0
H  H81  1  0.19466577  0.99525985  0.08135479  1  -0.023302  0.007729  0.080412  0.118934  0.003801  1.145277  0.003
H  H82  1  0.90500569  0.55118987  0.61017445  1  0.087852  0.002055  0.107466  0.068652  0.001295  1.044007  0.001
H  H83  1  0.92699341  0.39837482  0.67604150  1  0.074386  0.000894  0.113106  0.135443  0.000524  0.982746  0.0
H  H84  1  0.64366948  0.52835971  0.75832212  1  0.095291  0.000665  0.10599  0.123569  0.000327  1.035504  0.0
H  H85  1  0.63297703  0.67038857  0.68762166  1  0.123871  0.001422  0.102591  0.072852  0.000577  1.045728  0.0
H  H86  1  0.63836544  0.33338896  0.77622813  1  0.082514  0.000152  0.107161  0.081114  7.7e-05  0.972111  0.0
H  H87  1  0.71037877  0.42162797  0.82183425  1  0.111261  0.000824  0.099868  0.075088  0.000447  1.035468  0.0
H  H88  1  0.59122764  0.17256862  0.84043449  1  0.076748  0.000229  0.104681  0.081995  0.000109  0.969769  0.0
H  H89  1  0.68204658  0.15577161  0.89506417  1  0.129491  0.002292  0.095392  0.085476  0.001775  1.05049  0.0
H  H90  1  0.48837692  0.46178307  0.93227799  1  0.047705  0.000899  0.105026  0.122591  0.000434  1.026886  0.0
H  H91  1  0.54896586  0.11265059  0.93799331  1  0.119043  0.001508  0.097915  0.123825  0.000874  1.06059  0.0
H  H92  1  0.35232965  0.43483358  0.00557329  1  0.116634  0.001632  0.102991  0.070951  0.000907  1.049652  0.0
H  H93  1  0.41249035  0.10318149  0.01131970  1  0.13423  0.001234  0.100211  0.08175  0.000374  1.040767  0.0
H  H94  1  0.49529954  0.80533330  0.58135568  1  -0.022846  0.007718  0.080427  0.118935  0.003797  1.145262  0.003
H  H95  1  0.59518802  0.94883795  0.61014895  1  0.086321  0.002059  0.107621  0.068921  0.001297  1.04404  0.001
H  H96  1  0.57307938  0.10160311  0.67602017  1  0.074292  0.000892  0.113059  0.135471  0.000523  0.982594  0.0
H  H97  1  0.85637131  0.97167765  0.75832480  1  0.094326  0.000665  0.105911  0.123623  0.000327  1.035518  0.0
H  H98  1  0.86717877  0.82967833  0.68761903  1  0.122595  0.001422  0.102577  0.073018  0.000576  1.045747  0.0
H  H99  1  0.86165540  0.16663536  0.77624283  1  0.082977  0.000152  0.107162  0.081164  7.7e-05  0.972085  0.0
H  H100  1  0.78961563  0.07840771  0.82184994  1  0.111846  0.000828  0.099874  0.075124  0.00045  1.035406  0.0
H  H101  1  0.90875224  0.32750706  0.84044026  1  0.076359  0.000228  0.104716  0.081987  0.000108  0.969739  0.0
H  H102  1  0.81791106  0.34432685  0.89505647  1  0.129119  0.00229  0.095299  0.085349  0.001769  1.050308  0.0
H  H103  1  0.01156400  0.03829596  0.93229132  1  0.048496  0.0009  0.105141  0.12271  0.000435  1.02683  0.0
H  H104  1  0.95107831  0.38743880  0.93796118  1  0.118923  0.0015  0.09779  0.123744  0.000867  1.060496  0.0
H  H105  1  0.14763544  0.06521691  0.00557450  1  0.117024  0.001632  0.102959  0.070898  0.000906  1.049802  0.0
H  H106  1  0.08755354  0.39689840  0.01129316  1  0.133176  0.001235  0.100178  0.081577  0.000374  1.040708  0.0
H  H107  1  0.00482133  0.69466458  0.58137305  1  -0.023653  0.007742  0.080537  0.119146  0.003807  1.1453  0.003
C  C108  1  0.95810582  0.84856672  0.85649930  1  0.479493  0.005552  0.041534  0.100077  0.004405  4.006854  0.003
C  C109  1  0.04192279  0.86140191  0.81997458  1  0.007266  0.000545  -0.103323  -0.259236  0.000142  3.977974  0.0
C  C110  1  0.04996795  0.78637777  0.77769396  1  0.45974  0.003228  0.101746  0.304327  0.002463  4.061218  0.002
C  C111  1  0.97137148  0.70331628  0.77385411  1  0.011523  0.000501  -0.108905  -0.276487  0.000106  3.969152  0.0
C  C112  1  0.89070993  0.69781206  0.81292717  1  0.479024  0.004941  0.047334  0.126505  0.003623  3.95028  0.003
C  C113  1  0.15129466  0.71683898  0.70374239  1  0.3484  0.000633  -0.063372  -0.028684  0.000547  3.833274  0.0
C  C114  1  0.28578882  0.65324829  0.63508181  1  0.338821  0.002369  -0.066963  -0.035319  0.001913  3.8197  0.002
C  C115  1  0.21015682  0.53060823  0.57094323  1  0.460983  0.003498  0.098364  0.299442  0.002682  4.058136  0.002
C  C116  1  0.11910240  0.47396048  0.55106156  1  -0.028039  0.000605  -0.107202  -0.259678  0.000114  3.986022  0.0
C  C117  1  0.31292092  0.50810972  0.54872918  1  -0.001978  0.000907  -0.108675  -0.268267  0.000491  3.95983  0.0
C  C118  1  0.13380736  0.39942736  0.51013649  1  0.47297  0.005025  0.036565  0.095525  0.004054  3.996986  0.003
C  C119  1  0.31861456  0.43262149  0.50729120  1  0.461411  0.005205  0.045201  0.120483  0.003954  3.944479  0.004
C  C120  1  0.54188237  0.65149333  0.85649726  1  0.479845  0.005475  0.041481  0.100203  0.00434  4.007238  0.003
C  C121  1  0.45808712  0.63858982  0.81996118  1  0.008394  0.000558  -0.103447  -0.259526  0.000158  3.978698  0.0
C  C122  1  0.45001258  0.71360505  0.77768147  1  0.458471  0.003172  0.101862  0.304726  0.002418  4.060713  0.002
C  C123  1  0.52853410  0.79674556  0.77385463  1  0.011251  0.000512  -0.109088  -0.276472  0.000117  3.970031  0.0
C  C124  1  0.60915174  0.80232079  0.81294651  1  0.481897  0.004862  0.047185  0.126244  0.003555  3.951686  0.003
C  C125  1  0.34868347  0.78308024  0.70373176  1  0.346809  0.000634  -0.063634  -0.028739  0.000547  3.833588  0.0
C  C126  1  0.21420612  0.84669640  0.63510036  1  0.341068  0.002373  -0.066709  -0.034863  0.001916  3.819586  0.002
C  C127  1  0.28982106  0.96934882  0.57094955  1  0.460193  0.003484  0.098425  0.299578  0.00267  4.057979  0.002
C  C128  1  0.38091160  0.02594766  0.55107039  1  -0.028504  0.000607  -0.106918  -0.259273  0.000116  3.98588  0.0
C  C129  1  0.18705624  0.99184329  0.54874379  1  -0.00348  0.000912  -0.108524  -0.268168  0.000496  3.959166  0.0
C  C130  1  0.36623272  0.10047922  0.51014037  1  0.4749  0.005005  0.036598  0.095654  0.004039  3.997048  0.003
C  C131  1  0.18140612  0.06730552  0.50729058  1  0.45937  0.005192  0.044853  0.120108  0.00394  3.943952  0.003
C  C132  1  0.15146398  0.45804724  0.35649571  1  0.479998  0.005508  0.041326  0.100224  0.00437  4.006951  0.003
C  C133  1  0.13856525  0.54184517  0.31996014  1  0.00892  0.00055  -0.103083  -0.259448  0.000149  3.978315  0.0
C  C134  1  0.21358593  0.54992401  0.27767966  1  0.459956  0.003196  0.10149  0.304449  0.002437  4.060823  0.002
C  C135  1  0.29669770  0.47137951  0.27384765  1  0.011313  0.000509  -0.108891  -0.276158  0.000113  3.969402  0.0
C  C136  1  0.30225586  0.39073550  0.31293268  1  0.479856  0.004898  0.047192  0.126083  0.003587  3.950876  0.003
C  C137  1  0.28306607  0.65125096  0.20371599  1  0.346384  0.000635  -0.063461  -0.028419  0.000548  3.833387  0.0
C  C138  1  0.34665811  0.78575341  0.13508512  1  0.339382  0.002369  -0.066809  -0.035097  0.001912  3.818871  0.002
C  C139  1  0.46934566  0.71018371  0.07093910  1  0.459638  0.003455  0.09846  0.299368  0.002647  4.057454  0.002
C  C140  1  0.52596499  0.61911532  0.05104092  1  -0.02635  0.000613  -0.107102  -0.259096  0.000123  3.985541  0.0
C  C141  1  0.49183472  0.81296851  0.04875008  1  -0.002695  0.000921  -0.108562  -0.267975  0.000505  3.95916  0.0
C  C142  1  0.60049780  0.63384919  0.01011924  1  0.471432  0.004974  0.036669  0.095466  0.004013  3.99722  0.003
C  C143  1  0.56730476  0.81867620  0.00729708  1  0.462  0.005152  0.045119  0.120018  0.003906  3.944659  0.003
C  C144  1  0.34858074  0.04185063  0.35646129  1  0.479659  0.005486  0.041867  0.100427  0.004348  4.006758  0.003
C  C145  1  0.36142733  0.95805351  0.31992407  1  0.006232  0.000557  -0.103847  -0.259868  0.000155  3.978502  0.0
C  C146  1  0.28637809  0.94999273  0.27765417  1  0.45956  0.003178  0.10186  0.304431  0.002422  4.061192  0.002
C  C147  1  0.20325052  0.02852914  0.27385102  1  0.012022  0.000512  -0.109  -0.276258  0.000118  3.970254  0.0
C  C148  1  0.19774732  0.10917062  0.31293532  1  0.480887  0.004867  0.047015  0.126045  0.003562  3.951259  0.003
C  C149  1  0.21681139  0.84862751  0.20372613  1  0.347664  0.000634  -0.063472  -0.028525  0.000547  3.834125  0.0
C  C150  1  0.15321327  0.71416604  0.13507499  1  0.342431  0.002374  -0.066924  -0.035969  0.001917  3.820174  0.002
C  C151  1  0.03059855  0.78982328  0.07092963  1  0.460842  0.003508  0.098599  0.299636  0.002689  4.058365  0.002
C  C152  1  0.97400438  0.88091842  0.05105301  1  -0.027525  0.000604  -0.1072  -0.259655  0.000113  3.98542  0.0
C  C153  1  0.00808671  0.68707121  0.04871119  1  -0.001282  0.000909  -0.108774  -0.268474  0.00049  3.959833  0.0
C  C154  1  0.89944617  0.86625571  0.01013154  1  0.472576  0.005041  0.03657  0.095597  0.004066  3.995739  0.003
C  C155  1  0.93260103  0.68142462  0.00727298  1  0.459718  0.005222  0.044966  0.120282  0.003972  3.943911  0.004
C  C156  1  0.24999734  0.74995352  0.66967585  1  0.064172  0.000135  -0.017815  0.053565  4.7e-05  3.806908  0.0
C  C157  1  0.24993271  0.74994744  0.16966463  1  0.061503  0.000135  -0.01795  0.053896  4.7e-05  3.807157  0.0
C  C158  1  0.04191445  0.15147045  0.14351076  1  0.479817  0.005509  0.04143  0.100259  0.004368  4.006836  0.003
C  C159  1  0.95811056  0.13858296  0.18004505  1  0.008509  0.000553  -0.103387  -0.259516  0.000152  3.977997  0.0
C  C160  1  0.95004824  0.21360057  0.22232329  1  0.459311  0.003195  0.101699  0.30457  0.002435  4.060801  0.002
C  C161  1  0.02858670  0.29672416  0.22615437  1  0.01146  0.000508  -0.108895  -0.276381  0.000114  3.969621  0.0
C  C162  1  0.10921801  0.30227250  0.18706855  1  0.480126  0.004891  0.047184  0.126248  0.003581  3.950957  0.003
C  C163  1  0.84869947  0.28312056  0.29626888  1  0.347429  0.000634  -0.063772  -0.02932  0.000548  3.834016  0.0
C  C164  1  0.71420939  0.34673823  0.36491351  1  0.338899  0.002372  -0.066936  -0.03529  0.001914  3.819444  0.002
C  C165  1  0.78985365  0.46936602  0.42906445  1  0.460299  0.003479  0.098375  0.299514  0.002666  4.058421  0.002
C  C166  1  0.88094974  0.52594269  0.44894133  1  -0.027853  0.000609  -0.106952  -0.259524  0.00012  3.986013  0.0
C  C167  1  0.68708628  0.49187516  0.45126972  1  -0.002097  0.00091  -0.108696  -0.268103  0.000494  3.959729  0.0
C  C168  1  0.86627093  0.60048807  0.48986880  1  0.472053  0.005004  0.03655  0.095679  0.004034  3.996401  0.003
C  C169  1  0.68143349  0.56735195  0.49271209  1  0.459572  0.005183  0.04474  0.119671  0.003938  3.944623  0.003
C  C170  1  0.45808480  0.34859940  0.14351838  1  0.47975  0.005503  0.04171  0.100425  0.004363  4.00716  0.003
C  C171  1  0.54188494  0.36146287  0.18005207  1  0.007929  0.000553  -0.103527  -0.259575  0.000151  3.978224  0.0
C  C172  1  0.54995867  0.28641741  0.22232382  1  0.458758  0.003193  0.101722  0.304607  0.002434  4.060316  0.002
C  C173  1  0.47141018  0.20329488  0.22614427  1  0.011971  0.000508  -0.10873  -0.276046  0.000113  3.968818  0.0
C  C174  1  0.39075986  0.19778665  0.18706993  1  0.479782  0.004889  0.047084  0.12616  0.003578  3.950685  0.003
C  C175  1  0.65130248  0.21688666  0.29626635  1  0.347063  0.000634  -0.063814  -0.029393  0.000547  3.83411  0.0
C  C176  1  0.78577657  0.15327541  0.36491170  1  0.339093  0.002369  -0.06685  -0.035066  0.001913  3.819766  0.002
C  C177  1  0.71017633  0.03062544  0.42905653  1  0.459278  0.003478  0.0983  0.299378  0.002666  4.057815  0.002
C  C178  1  0.61911439  0.97399146  0.44894685  1  -0.027267  0.000608  -0.106996  -0.259092  0.000117  3.985302  0.0
C  C179  1  0.81295586  0.00811299  0.45125153  1  -0.001573  0.000914  -0.108621  -0.268477  0.000498  3.95927  0.0
C  C180  1  0.63382923  0.89946807  0.48987488  1  0.472944  0.005  0.036667  0.095528  0.004037  3.996903  0.003
C  C181  1  0.81865092  0.93263687  0.49269557  1  0.461857  0.005179  0.045086  0.120349  0.00393  3.944503  0.003
C  C182  1  0.84864944  0.54192374  0.64352751  1  0.477858  0.005518  0.042037  0.101021  0.004372  4.006447  0.003
C  C183  1  0.86148444  0.45811764  0.68005630  1  0.008151  0.000553  -0.103682  -0.259836  0.000151  3.978341  0.0
C  C184  1  0.78643353  0.45004698  0.72232761  1  0.459213  0.003202  0.101698  0.304704  0.002441  4.060672  0.002
C  C185  1  0.70332012  0.52859475  0.72615006  1  0.01133  0.000508  -0.108863  -0.27622  0.000112  3.969224  0.0
C  C186  1  0.69782487  0.60924529  0.68707420  1  0.479513  0.004902  0.047084  0.126447  0.00359  3.950318  0.003
C  C187  1  0.71688720  0.34871921  0.79626099  1  0.348  0.000633  -0.06363  -0.029242  0.000547  3.834653  0.0
C  C188  1  0.65326166  0.21424291  0.86490860  1  0.338312  0.002373  -0.066793  -0.035301  0.001916  3.819593  0.002
C  C189  1  0.53062396  0.28987062  0.92905741  1  0.460444  0.003486  0.098312  0.2992  0.002672  4.058635  0.002
C  C190  1  0.47400707  0.38095372  0.94894085  1  -0.028344  0.000607  -0.107077  -0.259317  0.000116  3.985604  0.0
C  C191  1  0.50813571  0.18709890  0.95127154  1  -0.00185  0.000912  -0.108612  -0.268062  0.000496  3.959871  0.0
C  C192  1  0.39946119  0.36625090  0.98986332  1  0.473147  0.00501  0.036649  0.095542  0.004042  3.996368  0.003
C  C193  1  0.43266322  0.18142797  0.99271458  1  0.459261  0.005191  0.044909  0.119922  0.003942  3.94454  0.003
C  C194  1  0.65150408  0.95809584  0.64350971  1  0.480418  0.005507  0.041473  0.100253  0.00437  4.007138  0.003
C  C195  1  0.63861663  0.04189787  0.68004016  1  0.008238  0.000549  -0.103388  -0.259546  0.000148  3.978433  0.0
C  C196  1  0.71363320  0.04998480  0.72232281  1  0.459258  0.003201  0.101773  0.304574  0.00244  4.060763  0.002
C  C197  1  0.79675505  0.97143776  0.72614708  1  0.012069  0.000507  -0.108885  -0.276356  0.000112  3.969922  0.0
C  C198  1  0.80231626  0.89081017  0.68705920  1  0.48117  0.0049  0.047047  0.126131  0.003586  3.951892  0.003
C  C199  1  0.78312554  0.15132305  0.79627836  1  0.347185  0.000636  -0.06383  -0.029473  0.000549  3.834178  0.0
C  C200  1  0.84671549  0.28582047  0.86491196  1  0.341869  0.002371  -0.066895  -0.035164  0.001914  3.819756  0.002
C  C201  1  0.96934328  0.21019428  0.92905931  1  0.459876  0.003481  0.098407  0.299653  0.002668  4.05779  0.002
C  C202  1  0.02595951  0.11912120  0.94894231  1  -0.028004  0.00061  -0.107111  -0.259265  0.00012  3.985315  0.0
C  C203  1  0.99186330  0.31296596  0.95125104  1  -0.001609  0.000909  -0.108519  -0.268286  0.000494  3.959439  0.0
C  C204  1  0.10049975  0.13382231  0.98986857  1  0.4731  0.005006  0.036769  0.095433  0.00404  3.996892  0.003
C  C205  1  0.06734489  0.31863951  0.99269644  1  0.462288  0.005188  0.045073  0.120272  0.003939  3.944361  0.003
C  C206  1  0.74999188  0.25000685  0.33032744  1  0.065112  0.000134  -0.017559  0.053892  4.7e-05  3.806745  0.0
C  C207  1  0.74998952  0.25003254  0.83032751  1  0.06485  0.000134  -0.017777  0.053985  4.7e-05  3.806993  0.0
S  S208  1  0.79022499  0.54719472  0.91076556  1  -0.633775  0.085126  -0.363515  -0.639829  0.065849  2.232947  0.028
S  S209  1  0.70982677  0.95277291  0.91078734  1  -0.632869  0.085408  -0.36371  -0.640081  0.066078  2.23444  0.028
S  S210  1  0.45282424  0.29016891  0.41079024  1  -0.632744  0.085227  -0.36367  -0.640135  0.065945  2.233441  0.028
S  S211  1  0.04726853  0.20974357  0.41078767  1  -0.633866  0.085258  -0.363575  -0.639621  0.06596  2.233812  0.028
S  S212  1  0.20974626  0.45279751  0.08921421  1  -0.633216  0.085292  -0.363541  -0.639734  0.065973  2.233908  0.028
S  S213  1  0.29020821  0.04725037  0.08923030  1  -0.633282  0.085196  -0.363614  -0.639846  0.065923  2.233448  0.028
S  S214  1  0.54722381  0.70975224  0.58923099  1  -0.633801  0.08519  -0.363599  -0.639727  0.065902  2.233082  0.028
S  S215  1  0.95278852  0.79020535  0.58919968  1  -0.63311  0.085299  -0.363768  -0.640277  0.065993  2.234243  0.028
N  N216  1  0.88344758  0.76786842  0.85396259  1  -1.281503  0.048679  -0.321557  -0.230171  0.033362  3.482852  0.02
N  N217  1  0.23170016  0.37867739  0.48751472  1  -1.269561  0.048429  -0.322183  -0.240362  0.032561  3.482015  0.018
N  N218  1  0.61645746  0.73225292  0.85397307  1  -1.281581  0.048522  -0.32125  -0.230044  0.033303  3.482544  0.02
N  N219  1  0.26834985  0.12123413  0.48751285  1  -1.26765  0.04837  -0.322096  -0.240432  0.032547  3.481432  0.018
N  N220  1  0.23221275  0.38345083  0.35396751  1  -1.282325  0.048615  -0.321119  -0.229735  0.033324  3.48309  0.02
N  N221  1  0.62124756  0.73176662  0.98751345  1  -1.268834  0.048289  -0.322063  -0.240312  0.03252  3.480923  0.018
N  N222  1  0.26785586  0.11648299  0.35394532  1  -1.280071  0.048549  -0.321462  -0.2304  0.033315  3.482113  0.02
N  N223  1  0.87866257  0.76837409  0.98749988  1  -1.268099  0.048438  -0.321874  -0.240158  0.032565  3.48117  0.018
N  N224  1  0.11651713  0.23220143  0.14604070  1  -1.28179  0.048591  -0.321325  -0.230187  0.033336  3.482863  0.02
N  N225  1  0.76838466  0.62127562  0.51249175  1  -1.267088  0.048383  -0.321816  -0.240009  0.032535  3.480862  0.018
N  N226  1  0.38347212  0.26787331  0.14604856  1  -1.280628  0.048586  -0.321445  -0.230353  0.033335  3.482932  0.02
N  N227  1  0.73172762  0.87871888  0.51248884  1  -1.269882  0.048359  -0.322225  -0.240354  0.03253  3.481405  0.018
N  N228  1  0.76791783  0.61654957  0.64605571  1  -1.280874  0.048626  -0.321518  -0.230555  0.033345  3.482429  0.02
N  N229  1  0.37870407  0.26836043  0.01248505  1  -1.267039  0.048397  -0.321993  -0.240173  0.032538  3.481032  0.018
N  N230  1  0.73225265  0.88350597  0.64603724  1  -1.282348  0.048584  -0.321352  -0.230103  0.033332  3.483593  0.02
N  N231  1  0.12126210  0.23171292  0.01248867  1  -1.269808  0.04839  -0.322228  -0.240305  0.032543  3.481699  0.018
O  O232  1  0.13436077  0.80028798  0.74354824  1  -1.089963  0.001524  -0.171699  -0.192006  0.001073  2.551958  0.001
O  O233  1  0.19128084  0.60366411  0.61053267  1  -1.083578  0.002381  -0.172638  -0.184999  0.00155  2.543413  0.002
O  O234  1  0.36564858  0.69962464  0.74352418  1  -1.089753  0.0015  -0.171603  -0.19221  0.001055  2.551627  0.001
O  O235  1  0.30869722  0.89631329  0.61053628  1  -1.086026  0.002376  -0.172632  -0.185159  0.001546  2.543852  0.002
O  O236  1  0.19960940  0.63428572  0.24351811  1  -1.088921  0.00151  -0.171626  -0.19242  0.001063  2.551444  0.001
O  O237  1  0.39627791  0.69125827  0.11051871  1  -1.085079  0.002364  -0.172829  -0.185384  0.001536  2.543158  0.001
O  O238  1  0.30029437  0.86561065  0.24350834  1  -1.09016  0.001503  -0.171399  -0.191829  0.001058  2.552757  0.001
O  O239  1  0.10361582  0.80865877  0.11051942  1  -1.084599  0.002387  -0.172606  -0.184762  0.001553  2.544748  0.002
O  O240  1  0.86565460  0.19966258  0.25647219  1  -1.089323  0.001509  -0.17151  -0.191967  0.001062  2.551559  0.001
O  O241  1  0.80870348  0.39634609  0.38946743  1  -1.083966  0.002373  -0.172606  -0.184916  0.001544  2.543849  0.002
O  O242  1  0.63433738  0.30035288  0.25647632  1  -1.089611  0.001508  -0.171571  -0.19204  0.001062  2.551632  0.001
O  O243  1  0.69128874  0.10366668  0.38946462  1  -1.084106  0.002373  -0.172647  -0.185095  0.001543  2.543899  0.002
O  O244  1  0.80035204  0.36565994  0.75647482  1  -1.090259  0.001513  -0.171528  -0.19204  0.001065  2.55206  0.001
O  O245  1  0.60364840  0.30874213  0.88946306  1  -1.083565  0.002377  -0.172551  -0.184782  0.001547  2.543793  0.002
O  O246  1  0.69966626  0.13437014  0.75647622  1  -1.090112  0.001512  -0.171425  -0.191898  0.001064  2.551591  0.001
O  O247  1  0.89631458  0.19131957  0.88946713  1  -1.086562  0.002376  -0.172616  -0.185077  0.001545  2.543897  0.002
