# generated using pymatgen
data_AlH4C9NO5F2
_symmetry_space_group_name_H-M   'P 1'
_cell_length_a   6.70550139
_cell_length_b   8.85965324
_cell_length_c   16.88562287
_cell_angle_alpha   96.46420246
_cell_angle_beta   84.33350192
_cell_angle_gamma   75.28246883
_symmetry_Int_Tables_number   1
_chemical_formula_structural   AlH4C9NO5F2
_chemical_formula_sum   'Al2 H8 C18 N2 O10 F4'
_cell_volume   955.56609105
_cell_formula_units_Z   2
loop_
 _symmetry_equiv_pos_site_id
 _symmetry_equiv_pos_as_xyz
  1  'x, y, z'
loop_
 _atom_site_type_symbol
 _atom_site_label
 _atom_site_symmetry_multiplicity
 _atom_site_fract_x
 _atom_site_fract_y
 _atom_site_fract_z
 _atom_site_occupancy
 _atom_site_pbe_bader_charge
 _atom_site_pbe_bader_spin_density
 _atom_site_pbe_cm5_charge
 _atom_site_pbe_ddec_charge
 _atom_site_pbe_ddec_spin_density
 _atom_site_pbe_ddec_sum_bond_order
 _atom_site_pbe_magmom
Al  Al0  1  0.99999821  0.49999798  0.49999905  1  2.504123  0  0.404513  1.642962  0  2.564102  0
Al  Al1  1  0.50000376  0.49999163  0.49999983  1  2.503211  0  0.402837  1.648058  0  2.576756  0
H  H2  1  0.17340503  0.68028767  0.56396191  1  0.600438  0  0.357135  0.439266  0  0.839711  0
H  H3  1  0.82661712  0.31970811  0.43602551  1  0.600326  0  0.357183  0.439309  0  0.839625  0
H  H4  1  0.63027385  0.51867942  0.26824558  1  0.151408  0  0.109001  0.12188  0  1.027379  0
H  H5  1  0.69931703  0.51751396  0.11975060  1  0.116077  0  0.103583  0.104228  0  1.041647  0
H  H6  1  0.07013697  0.49829618  0.09945527  1  0.106932  0  0.116636  0.142791  0  0.9983  0
H  H7  1  0.92981753  0.50175910  0.90055870  1  0.106843  0  0.116614  0.142845  0  0.998349  0
H  H8  1  0.30066420  0.48249598  0.88023787  1  0.116312  0  0.103586  0.104221  0  1.041655  0
H  H9  1  0.36975603  0.48126846  0.73174268  1  0.151146  0  0.109015  0.121889  0  1.027232  0
C  C10  1  0.66000456  0.78042730  0.50265196  1  1.636502  0  0.26519  0.604663  0  4.159769  0
C  C11  1  0.70915569  0.49728490  0.64336710  1  1.591986  0  0.268564  0.657873  0  4.09107  0
C  C12  1  0.34000514  0.21955912  0.49735420  1  1.637238  0  0.265101  0.604702  0  4.159472  0
C  C13  1  0.29085784  0.50269826  0.35663169  1  1.592049  0  0.268539  0.658011  0  4.090833  0
C  C14  1  0.31552912  0.50764716  0.26806857  1  0.048429  0  -0.015239  -0.146826  0  3.931803  0
C  C15  1  0.50970692  0.51410048  0.23019521  1  -0.036595  0  -0.07406  -0.05496  0  3.965238  0
C  C16  1  0.54833078  0.51336718  0.14815360  1  -0.009157  0  -0.086994  -0.156449  0  3.955588  0
C  C17  1  0.38937090  0.50629908  0.10038887  1  0.390783  0  0.092121  0.201137  0  4.045854  0
C  C18  1  0.19347537  0.50260307  0.13634446  1  -0.043633  0  -0.089834  -0.273935  0  3.941932  0
C  C19  1  0.15984726  0.50307851  0.21882258  1  0.457571  0  0.112198  0.291239  0  4.034903  0
C  C20  1  0.80650599  0.49743055  0.86366476  1  -0.043333  0  -0.089794  -0.274016  0  3.941365  0
C  C21  1  0.61059520  0.49374268  0.89961057  1  0.390315  0  0.092115  0.201336  0  4.04532  0
C  C22  1  0.45165113  0.48664592  0.85184145  1  -0.008819  0  -0.087161  -0.156711  0  3.955626  0
C  C23  1  0.49030593  0.48587996  0.76980057  1  -0.035942  0  -0.074068  -0.054837  0  3.965197  0
C  C24  1  0.68448236  0.49234203  0.73193164  1  0.047972  0  -0.015156  -0.146831  0  3.931968  0
C  C25  1  0.84016179  0.49693074  0.78117884  1  0.457617  0  0.112247  0.291137  0  4.034823  0
C  C26  1  0.59825344  0.95361289  0.49915515  1  0.549369  0  0.10412  0.05296  0  3.965921  0
C  C27  1  0.40173649  0.04639693  0.50086022  1  0.63011  0  0.104318  0.053343  0  3.965911  0
N  N28  1  0.40935950  0.50278052  0.01605998  1  -0.475315  0  -0.144662  -0.128997  0  3.258998  0
N  N29  1  0.59059147  0.49727923  0.98394298  1  -0.511963  0  -0.144628  -0.128685  0  3.258671  0
O  O30  1  0.85413148  0.71618659  0.49484858  1  -1.228697  0  -0.224237  -0.558182  0  2.334566  0
O  O31  1  0.55425129  0.48193271  0.60823727  1  -1.254504  0  -0.235131  -0.588357  0  2.346122  0
O  O32  1  0.48572927  0.28548932  0.48664030  1  -1.250036  0  -0.224933  -0.573254  0  2.383112  0
O  O33  1  0.12381895  0.48036789  0.38977016  1  -1.248895  0  -0.237549  -0.597715  0  2.350823  0
O  O34  1  0.14587293  0.28381423  0.50515106  1  -1.228765  0  -0.224203  -0.558203  0  2.334396  0
O  O35  1  0.44576646  0.51804705  0.39176242  1  -1.254648  0  -0.235101  -0.588466  0  2.345919  0
O  O36  1  0.51428413  0.71449936  0.51336516  1  -1.249547  0  -0.224806  -0.573006  0  2.383366  0
O  O37  1  0.87619664  0.51962230  0.61022870  1  -1.249006  0  -0.237635  -0.597768  0  2.350722  0
O  O38  1  0.21604086  0.57204474  0.53750230  1  -1.394592  0  -0.446802  -0.98927  0  2.172383  0
O  O39  1  0.78396791  0.42794768  0.46249574  1  -1.394529  0  -0.446855  -0.989335  0  2.172384  0
F  F40  1  0.96736301  0.49940797  0.25042547  1  -0.630128  0  -0.079706  -0.120748  0  1.395471  0
F  F41  1  0.03263048  0.50060836  0.74958573  1  -0.630133  0  -0.079674  -0.120634  0  1.395673  0
F  F42  1  0.76030318  0.01721590  0.49303446  1  -0.604193  0  -0.073137  -0.073229  0  1.438929  0
F  F43  1  0.23967638  0.98278965  0.50698424  1  -0.604328  0  -0.073251  -0.073434  0  1.43852  0
