# generated using pymatgen
data_UH5C8NO8
_symmetry_space_group_name_H-M   'P 1'
_cell_length_a   7.94305418
_cell_length_b   7.94306840
_cell_length_c   8.93808896
_cell_angle_alpha   101.72759469
_cell_angle_beta   101.72691866
_cell_angle_gamma   96.86116900
_symmetry_Int_Tables_number   1
_chemical_formula_structural   UH5C8NO8
_chemical_formula_sum   'U2 H10 C16 N2 O16'
_cell_volume   532.97048645
_cell_formula_units_Z   2
loop_
 _symmetry_equiv_pos_site_id
 _symmetry_equiv_pos_as_xyz
  1  'x, y, z'
loop_
 _atom_site_type_symbol
 _atom_site_label
 _atom_site_symmetry_multiplicity
 _atom_site_fract_x
 _atom_site_fract_y
 _atom_site_fract_z
 _atom_site_occupancy
 _atom_site_hle17_bader_spin_density
 _atom_site_hle17_ddec_charge
 _atom_site_hle17_ddec_spin_density
 _atom_site_hle17_ddec_sum_bond_order
 _atom_site_hle17_magmom
 _atom_site_hse06_10hf_bader_spin_density
 _atom_site_hse06_10hf_ddec_charge
 _atom_site_hse06_10hf_ddec_spin_density
 _atom_site_hse06_10hf_ddec_sum_bond_order
 _atom_site_hse06_10hf_magmom
 _atom_site_hse06_bader_spin_density
 _atom_site_hse06_ddec_charge
 _atom_site_hse06_ddec_spin_density
 _atom_site_hse06_ddec_sum_bond_order
 _atom_site_hse06_magmom
 _atom_site_pbe_bader_spin_density
 _atom_site_pbe_cm5_charge
 _atom_site_pbe_ddec_charge
 _atom_site_pbe_ddec_spin_density
 _atom_site_pbe_ddec_sum_bond_order
 _atom_site_pbe_magmom
U  U0  1  0.62538969  0.37461529  0.74999500  1  0  2.397599  0  4.081525  0  0  2.454404  0  4.726477  0  0  2.563682  0  4.694644  0  0  2.136511  2.379689  0  4.746323  0
U  U1  1  0.37461620  0.62539161  0.25000129  1  0  2.397554  0  4.081485  0  0  2.454382  0  4.726432  0  0  2.563632  0  4.694639  0  0  2.136545  2.379649  0  4.746319  0
H  H2  1  0.94033725  0.05966239  0.75000013  1  0  0.324338  0  0.880135  0  0  0.301324  0  0.943546  0  0  0.311689  0  0.933914  0  0  0.326358  0.293806  0  0.950603  0
H  H3  1  0.05966255  0.94033919  0.25000071  1  0  0.32435  0  0.880123  0  0  0.301336  0  0.943539  0  0  0.311699  0  0.933906  0  0  0.326377  0.293817  0  0.950596  0
H  H4  1  0.45647599  0.97161165  0.85225730  1  0  0.136395  0  0.938988  0  0  0.144101  0  0.999346  0  0  0.147989  0  0.99785  0  0  0.127824  0.141352  0  1.000577  0
H  H5  1  0.02838824  0.54352856  0.64774136  1  0  0.136443  0  0.938981  0  0  0.144154  0  0.999311  0  0  0.148038  0  0.997827  0  0  0.127845  0.141405  0  1.000543  0
H  H6  1  0.54352144  0.02838341  0.14774187  1  0  0.136437  0  0.938997  0  0  0.144139  0  0.999342  0  0  0.148025  0  0.997855  0  0  0.127832  0.141391  0  1.000568  0
H  H7  1  0.97160835  0.45646911  0.35225703  1  0  0.136349  0  0.939033  0  0  0.144071  0  0.999362  0  0  0.147954  0  0.99788  0  0  0.127822  0.141321  0  1.000591  0
H  H8  1  0.23554087  0.17612269  0.85301957  1  0  0.13023  0  0.938159  0  0  0.135463  0  0.999882  0  0  0.140061  0  0.99474  0  0  0.144955  0.13202  0  1.003772  0
H  H9  1  0.82387656  0.76446229  0.64697785  1  0  0.130229  0  0.938166  0  0  0.135472  0  0.999889  0  0  0.140069  0  0.994748  0  0  0.14495  0.132028  0  1.003779  0
H  H10  1  0.76445849  0.82387628  0.14698070  1  0  0.130227  0  0.938157  0  0  0.13546  0  0.999885  0  0  0.140059  0  0.994742  0  0  0.144957  0.132019  0  1.003774  0
H  H11  1  0.17611939  0.23553930  0.35302115  1  0  0.130232  0  0.938191  0  0  0.135464  0  0.999914  0  0  0.140062  0  0.994771  0  0  0.144964  0.132022  0  1.003802  0
C  C12  1  0.97048164  0.58569770  0.03076561  1  0  0.54482  0  3.94224  0  0  0.508124  0  4.246749  0  0  0.540536  0  4.237166  0  0  0.226583  0.48599  0  4.25227  0
C  C13  1  0.41430901  0.02952198  0.46923257  1  0  0.544699  0  3.942198  0  0  0.507993  0  4.246678  0  0  0.540405  0  4.237096  0  0  0.226552  0.485855  0  4.252197  0
C  C14  1  0.02953001  0.41430528  0.96923326  1  0  0.54492  0  3.942075  0  0  0.508117  0  4.246675  0  0  0.540534  0  4.237087  0  0  0.226619  0.485981  0  4.252196  0
C  C15  1  0.58569251  0.97047440  0.53076650  1  0  0.544897  0  3.942126  0  0  0.508137  0  4.246668  0  0  0.540552  0  4.237079  0  0  0.22664  0.486003  0  4.252188  0
C  C16  1  0.38356112  0.61644389  0.74999966  1  0  0.63302  0  3.895687  0  0  0.593274  0  4.200739  0  0  0.629057  0  4.19273  0  0  0.210507  0.569002  0  4.205088  0
C  C17  1  0.61643976  0.38355640  0.25000003  1  0  0.63306  0  3.895694  0  0  0.593294  0  4.200803  0  0  0.62908  0  4.19279  0  0  0.210559  0.569016  0  4.205149  0
C  C18  1  0.25741409  0.74258496  0.75000032  1  0  0.041735  0  3.668768  0  0  0.060358  0  3.893664  0  0  0.061606  0  3.911233  0  0  0.037129  0.059649  0  3.881968  0
C  C19  1  0.74258247  0.25741269  0.25000029  1  0  0.041772  0  3.66863  0  0  0.060371  0  3.893575  0  0  0.061619  0  3.911144  0  0  0.037127  0.059662  0  3.88188  0
C  C20  1  0.31796724  0.92143129  0.80766505  1  0  -0.108152  0  3.649966  0  0  -0.132125  0  3.898832  0  0  -0.139851  0  3.918739  0  0  -0.05396  -0.127299  0  3.885698  0
C  C21  1  0.07857250  0.68203412  0.69233197  1  0  -0.10827  0  3.649984  0  0  -0.132228  0  3.898858  0  0  -0.139955  0  3.918761  0  0  -0.054036  -0.127405  0  3.88573  0
C  C22  1  0.68202826  0.07856767  0.19233448  1  0  -0.108251  0  3.65  0  0  -0.132188  0  3.898849  0  0  -0.139916  0  3.918754  0  0  -0.053954  -0.12736  0  3.885714  0
C  C23  1  0.92142515  0.31796224  0.30766749  1  0  -0.108162  0  3.6499  0  0  -0.132132  0  3.898787  0  0  -0.139857  0  3.918687  0  0  -0.054005  -0.127316  0  3.885673  0
C  C24  1  0.19933991  0.03569934  0.80757148  1  0  0.164475  0  3.553663  0  0  0.124541  0  3.803393  0  0  0.134292  0  3.815552  0  0  0.087345  0.118178  0  3.795351  0
C  C25  1  0.96430064  0.80066096  0.69242621  1  0  0.164559  0  3.55358  0  0  0.124595  0  3.803327  0  0  0.134347  0  3.815486  0  0  0.08742  0.11823  0  3.795288  0
C  C26  1  0.80065967  0.96430094  0.19242908  1  0  0.16451  0  3.553763  0  0  0.12457  0  3.803482  0  0  0.134321  0  3.815642  0  0  0.087361  0.118205  0  3.79544  0
C  C27  1  0.03569898  0.19933936  0.30757101  1  0  0.164545  0  3.553634  0  0  0.124618  0  3.80335  0  0  0.13437  0  3.815508  0  0  0.087401  0.118252  0  3.795308  0
N  N28  1  0.02776145  0.97224323  0.74999814  1  0  -0.196773  0  3.437843  0  0  -0.122844  0  3.656129  0  0  -0.137165  0  3.668186  0  0  -0.329241  -0.113429  0  3.648285  0
N  N29  1  0.97223838  0.02775838  0.25000048  1  0  -0.196801  0  3.437988  0  0  -0.122891  0  3.656279  0  0  -0.137211  0  3.668336  0  0  -0.32928  -0.113475  0  3.648434  0
O  O30  1  0.82375450  0.60815375  0.95917457  1  0  -0.582853  0  2.092965  0  0  -0.563946  0  2.351724  0  0  -0.594671  0  2.348467  0  0  -0.320424  -0.541828  0  2.352723  0
O  O31  1  0.39184303  0.17624828  0.54082707  1  0  -0.582733  0  2.092866  0  0  -0.563838  0  2.351635  0  0  -0.594567  0  2.348389  0  0  -0.320385  -0.541723  0  2.35263  0
O  O32  1  0.17625282  0.39184658  0.04082522  1  0  -0.582806  0  2.092998  0  0  -0.563881  0  2.351815  0  0  -0.594602  0  2.348556  0  0  -0.320376  -0.541763  0  2.352816  0
O  O33  1  0.60815464  0.82375592  0.45917275  1  0  -0.58283  0  2.093049  0  0  -0.563909  0  2.351838  0  0  -0.59463  0  2.348585  0  0  -0.320426  -0.541795  0  2.352839  0
O  O34  1  0.07498830  0.69051384  0.14811077  1  0  -0.60391  0  2.073498  0  0  -0.578055  0  2.323127  0  0  -0.607356  0  2.317309  0  0  -0.322041  -0.557051  0  2.326021  0
O  O35  1  0.30948834  0.92502127  0.35188968  1  0  -0.603919  0  2.073447  0  0  -0.578045  0  2.323046  0  0  -0.60734  0  2.317225  0  0  -0.322046  -0.557044  0  2.325937  0
O  O36  1  0.92501366  0.30948516  0.85188776  1  0  -0.604022  0  2.073327  0  0  -0.578141  0  2.322992  0  0  -0.607447  0  2.317172  0  0  -0.322106  -0.557137  0  2.325882  0
O  O37  1  0.69051076  0.07498416  0.64811624  1  0  -0.603971  0  2.073243  0  0  -0.57811  0  2.322897  0  0  -0.607408  0  2.317068  0  0  -0.32211  -0.557108  0  2.325786  0
O  O38  1  0.54582946  0.67380036  0.77531842  1  0  -0.585703  0  1.947554  0  0  -0.574621  0  2.200608  0  0  -0.606195  0  2.196501  0  0  -0.328073  -0.552178  0  2.20226  0
O  O39  1  0.32619708  0.45416939  0.72468333  1  0  -0.585764  0  1.947322  0  0  -0.57469  0  2.200379  0  0  -0.606265  0  2.196274  0  0  -0.328122  -0.552243  0  2.202031  0
O  O40  1  0.45417074  0.32619599  0.22468263  1  0  -0.585747  0  1.947502  0  0  -0.57467  0  2.200599  0  0  -0.606241  0  2.19649  0  0  -0.32813  -0.552227  0  2.202251  0
O  O41  1  0.67380207  0.54582828  0.27531665  1  0  -0.585732  0  1.94737  0  0  -0.574687  0  2.200494  0  0  -0.606261  0  2.196387  0  0  -0.328147  -0.552242  0  2.202145  0
O  O42  1  0.56302052  0.29344536  0.90904167  1  0  -0.69524  0  1.618048  0  0  -0.706667  0  1.92259  0  0  -0.729167  0  1.913048  0  0  -0.75267  -0.693465  0  1.929405  0
O  O43  1  0.70655499  0.43697577  0.59096920  1  0  -0.695299  0  1.618541  0  0  -0.706745  0  1.923181  0  0  -0.729241  0  1.913641  0  0  -0.752984  -0.693525  0  1.929958  0
O  O44  1  0.43698357  0.70655884  0.09096048  1  0  -0.695204  0  1.618086  0  0  -0.706641  0  1.922645  0  0  -0.729134  0  1.913113  0  0  -0.75275  -0.693435  0  1.929462  0
O  O45  1  0.29344612  0.56302584  0.40902966  1  0  -0.695255  0  1.61844  0  0  -0.706708  0  1.923067  0  0  -0.729197  0  1.913531  0  0  -0.752917  -0.693495  0  1.929874  0
