# generated using pymatgen
data_CoH12C19(NO)4
_symmetry_space_group_name_H-M   'P 1'
_cell_length_a   7.77915651
_cell_length_b   9.28322895
_cell_length_c   12.82939217
_cell_angle_alpha   105.22575091
_cell_angle_beta   100.58332292
_cell_angle_gamma   109.15655439
_symmetry_Int_Tables_number   1
_chemical_formula_structural   CoH12C19(NO)4
_chemical_formula_sum   'Co2 H24 C38 N8 O8'
_cell_volume   806.60325031
_cell_formula_units_Z   2
loop_
 _symmetry_equiv_pos_site_id
 _symmetry_equiv_pos_as_xyz
  1  'x, y, z'
loop_
 _atom_site_type_symbol
 _atom_site_label
 _atom_site_symmetry_multiplicity
 _atom_site_fract_x
 _atom_site_fract_y
 _atom_site_fract_z
 _atom_site_occupancy
 _atom_site_hle17_ddec_charge
 _atom_site_hle17_ddec_spin_density
 _atom_site_hle17_ddec_sum_bond_order
 _atom_site_hle17_magmom
 _atom_site_hse06_10hf_ddec_charge
 _atom_site_hse06_10hf_ddec_spin_density
 _atom_site_hse06_10hf_ddec_sum_bond_order
 _atom_site_hse06_10hf_magmom
 _atom_site_hse06_ddec_charge
 _atom_site_hse06_ddec_spin_density
 _atom_site_hse06_ddec_sum_bond_order
 _atom_site_hse06_magmom
 _atom_site_pbe_cm5_charge
 _atom_site_pbe_ddec_charge
 _atom_site_pbe_ddec_spin_density
 _atom_site_pbe_ddec_sum_bond_order
 _atom_site_pbe_magmom
Co  Co0  1  0.77006005  0.06758923  0.22291057  1  0.924023  2.874397  2.041914  2.558  0.864861  2.850996  2.48038  2.611  0.948204  2.890198  2.397332  2.693  0.698949  0.801372  2.814265  2.541155  2.532
Co  Co1  1  0.04703889  0.84508880  0.77689461  1  0.923848  2.872317  2.043599  2.558  0.865519  2.849165  2.481659  2.611  0.948435  2.888446  2.399173  2.693  0.698726  0.802  2.812195  2.542367  2.531
H  H2  1  0.64921274  0.38732246  0.57481155  1  0.103356  0.000387  0.952533  0.0  0.115816  0.000336  1.008605  0.0  0.118661  0.000218  1.008016  0.0  0.109254  0.11371  0.000481  1.00937  0.001
H  H3  1  0.57384098  0.81083184  0.42512727  1  0.104314  0.000391  0.952036  0.0  0.116512  0.000344  1.008214  0.0  0.119402  0.000224  1.007561  0.0  0.109935  0.114402  0.000478  1.008977  0.001
H  H4  1  0.25555380  0.10170106  0.56830280  1  0.134771  0.000224  0.998339  0.0  0.142507  0.000313  1.062435  0.0  0.147043  0.000209  1.05922  0.0  0.108934  0.139233  0.000424  1.064535  0.001
H  H5  1  0.18722868  0.53167098  0.43189228  1  0.135492  0.000194  0.996553  0.0  0.143096  0.000304  1.060964  0.0  0.147483  0.0002  1.057935  0.0  0.109461  0.139887  0.00042  1.062973  0.001
H  H6  1  0.35523075  0.58771749  0.21600239  1  0.10476  0.000178  0.953696  0.0  0.112108  0.000137  1.021476  0.0  0.116659  7.3e-05  1.017591  0.0  0.106713  0.109376  0.000219  1.023465  0.0
H  H7  1  0.63982676  0.37297845  0.78434115  1  0.103896  0.000181  0.956112  0.0  0.111562  0.000136  1.023394  0.0  0.116077  7.2e-05  1.019545  0.0  0.106362  0.108742  0.000221  1.025517  0.0
H  H8  1  0.38222662  0.52712617  0.87565912  1  0.09143  -8.8e-05  0.989273  0.0  0.100223  -9e-05  1.055908  0.0  0.102942  -5.2e-05  1.055003  0.0  0.102579  0.098582  -0.000163  1.056123  0.0
H  H9  1  0.00725561  0.65066673  0.12463577  1  0.092083  -8.6e-05  0.987583  0.0  0.100349  -8.8e-05  1.0548  0.0  0.103034  -5.1e-05  1.053899  0.0  0.102914  0.098724  -0.000162  1.055052  0.0
H  H10  1  0.60413360  0.26663606  0.36617297  1  0.093687  0.000555  0.92967  0.002  0.102485  0.000498  0.988908  0.001  0.105054  0.000303  0.986998  0.001  0.122275  0.100367  0.000725  0.991128  0.002
H  H11  1  0.73726104  0.89917173  0.63373041  1  0.09401  0.000567  0.929849  0.002  0.102921  0.000505  0.988964  0.001  0.105425  0.000306  0.987135  0.001  0.122652  0.100876  0.000739  0.991084  0.002
H  H12  1  0.13258819  0.24479007  0.80859977  1  0.098926  -7e-06  0.969046  0.0  0.107753  -4.4e-05  1.03289  0.0  0.111312  -8.4e-05  1.030631  0.0  0.106217  0.105634  6e-06  1.034032  0.0
H  H13  1  0.82437305  0.43482509  0.19116927  1  0.099579  3e-06  0.969636  0.0  0.108084  -2.1e-05  1.033459  0.0  0.11173  -6.7e-05  1.031162  0.0  0.106428  0.105911  4e-06  1.034638  0.0
H  H14  1  0.05043474  0.90541028  0.15209551  1  0.089919  0.000487  0.968365  0.002  0.09379  0.000326  1.037318  0.001  0.097187  0.000154  1.033597  0.001  0.116614  0.090953  0.000537  1.040612  0.002
H  H15  1  0.39835122  0.75433904  0.84806572  1  0.090833  0.0005  0.966677  0.002  0.093541  0.000338  1.036762  0.001  0.096931  0.000161  1.033052  0.001  0.116295  0.090696  0.000539  1.04005  0.002
H  H16  1  0.32947350  0.86703723  0.25180412  1  0.11695  0.000161  0.960948  0.0  0.123994  0.000314  1.025072  0.0  0.127912  0.000174  1.023332  0.0  0.107838  0.120833  0.000457  1.026781  0.001
H  H17  1  0.57826324  0.61624482  0.74866674  1  0.116939  0.000152  0.960602  0.0  0.123851  0.000309  1.024906  0.0  0.127759  0.00017  1.02317  0.0  0.107763  0.120709  0.000457  1.026573  0.001
H  H18  1  0.78375632  0.93783933  0.99842512  1  0.311393  0.000174  0.921874  0.0  0.286934  0.000531  0.991224  0.001  0.296197  0.000342  0.983063  0.0  0.320841  0.280414  0.000754  0.99722  0.001
H  H19  1  0.28479118  0.93922708  0.00096735  1  0.310299  0.000172  0.923337  0.0  0.28645  0.000535  0.992106  0.001  0.295703  0.000346  0.983939  0.0  0.320999  0.279952  0.000755  0.998084  0.001
H  H20  1  0.42775327  0.96380615  0.46625096  1  0.08744  0.000115  0.949092  0.001  0.102422  -0.000182  1.001647  0.0  0.104647  -0.000136  1.000547  0.0  0.105809  0.100874  -0.00025  1.002468  0.0
H  H21  1  0.46158713  0.49655547  0.53421743  1  0.086965  0.00012  0.948345  0.001  0.101333  -0.000179  1.001583  0.0  0.103593  -0.000134  1.000419  0.0  0.105562  0.099791  -0.000246  1.00238  0.0
H  H22  1  0.89961220  0.36176110  0.71286638  1  0.103584  6e-06  0.948234  0.001  0.112767  -0.0002  1.010594  0.0  0.11554  -0.000163  1.00849  0.0  0.109475  0.110336  -0.000259  1.012739  0.0
H  H23  1  0.68823032  0.64905474  0.28701193  1  0.102828  -3e-06  0.950157  0.001  0.112744  -0.00021  1.011765  0.0  0.115549  -0.00017  1.009589  0.0  0.109038  0.110259  -0.000266  1.013965  0.0
H  H24  1  0.09169168  0.21010102  0.63807418  1  0.116823  0.000247  0.961711  0.0  0.126712  0.000239  1.02232  0.0  0.13005  0.000139  1.021202  0.0  0.112207  0.124379  0.000358  1.023043  0.0
H  H25  1  0.95590275  0.57317361  0.36167915  1  0.116788  0.000277  0.961697  0.0  0.126664  0.000284  1.022406  0.0  0.130007  0.000169  1.021331  0.0  0.112277  0.124482  0.000365  1.022828  0.0
C  C26  1  0.09792995  0.94684610  0.24417685  1  0.140004  -0.02386  3.67388  -0.016  0.111559  -0.009739  3.929615  -0.006  0.120709  -0.009358  3.944317  -0.006  0.04973  0.104579  -0.010319  3.921073  -0.006
C  C27  1  0.35402638  0.70330290  0.75600592  1  0.138289  -0.023977  3.674388  -0.016  0.111837  -0.00978  3.929171  -0.006  0.120989  -0.009384  3.943872  -0.006  0.049469  0.104833  -0.010368  3.920643  -0.006
C  C28  1  0.25314411  0.92427120  0.30025096  1  -0.112807  0.0091  3.697518  0.013  -0.125088  0.003629  3.948575  0.005  -0.131168  0.003596  3.966597  0.005  -0.081086  -0.122056  0.003374  3.937977  0.005
C  C29  1  0.45334377  0.62450255  0.70010610  1  -0.114129  0.009123  3.696406  0.013  -0.126897  0.003642  3.947331  0.005  -0.132969  0.003603  3.965344  0.005  -0.081392  -0.123928  0.003371  3.936812  0.005
C  C30  1  0.30843777  0.97935047  0.41821159  1  -0.013889  -0.024772  3.750782  -0.016  -0.032181  -0.010773  4.002536  -0.006  -0.028454  -0.008918  4.021036  -0.005  -0.072604  -0.034892  -0.013992  3.990434  -0.008
C  C31  1  0.39055195  0.56069007  0.58214576  1  -0.012231  -0.024798  3.748846  -0.016  -0.029729  -0.010743  4.000003  -0.006  -0.02602  -0.008892  4.018477  -0.005  -0.072157  -0.032449  -0.014003  3.988008  -0.008
C  C32  1  0.21182378  0.05826605  0.47620495  1  -0.146944  0.008042  3.679864  0.011  -0.166919  0.002995  3.922364  0.004  -0.173941  0.002936  3.942319  0.004  -0.082003  -0.161766  0.003058  3.909665  0.005
C  C33  1  0.23589551  0.58117080  0.52397673  1  -0.145528  0.008084  3.679559  0.011  -0.165168  0.003023  3.921298  0.004  -0.172102  0.002959  3.941336  0.004  -0.081563  -0.1602  0.003056  3.908779  0.005
C  C34  1  0.05900433  0.07752317  0.41352325  1  0.170705  -0.018051  3.775985  -0.012  0.171487  -0.007375  4.014479  -0.004  0.177628  -0.006938  4.03521  -0.004  0.117307  0.166523  -0.008918  4.002082  -0.005
C  C35  1  0.14592407  0.66378218  0.58648706  1  0.169863  -0.018092  3.775555  -0.012  0.170637  -0.007425  4.014295  -0.004  0.176773  -0.006966  4.035004  -0.004  0.117836  0.165664  -0.008989  4.00202  -0.005
C  C36  1  0.95043449  0.16323191  0.46453627  1  0.18328  -0.013129  3.76076  -0.008  0.179753  -0.003265  4.002642  -0.001  0.189456  -0.001304  4.021675  0.0  0.122796  0.171197  -0.006149  3.993826  -0.002
C  C37  1  0.98657189  0.69850544  0.53533487  1  0.185117  -0.013317  3.756877  -0.008  0.182028  -0.003331  3.998456  -0.001  0.191789  -0.001334  4.017391  0.0  0.122566  0.173366  -0.006344  3.98979  -0.002
C  C38  1  0.98281586  0.22647344  0.58126121  1  -0.147501  0.004458  3.702337  0.007  -0.165202  0.000742  3.947381  0.001  -0.173724  -1.8e-05  3.967301  0.0  -0.076862  -0.159345  0.001206  3.937456  0.003
C  C39  1  0.90307700  0.64561672  0.41859811  1  -0.146771  0.004535  3.698047  0.007  -0.164493  0.000753  3.943275  0.001  -0.173077  -7e-06  3.963208  0.0  -0.075786  -0.158522  0.001247  3.933161  0.003
C  C40  1  0.87527133  0.30873763  0.62232633  1  0.012696  -0.016188  3.696044  -0.01  -0.007026  -0.004011  3.945404  -0.002  0.000595  -0.000831  3.959389  0.0  -0.064537  -0.014487  -0.008272  3.938807  -0.005
C  C41  1  0.75404853  0.68628431  0.37754427  1  0.013013  -0.016486  3.695801  -0.01  -0.007363  -0.004134  3.945482  -0.002  0.000308  -0.000894  3.959443  0.0  -0.064145  -0.014856  -0.008367  3.939009  -0.005
C  C42  1  0.73643041  0.32439061  0.54533213  1  -0.114503  0.005333  3.720497  0.008  -0.129432  0.001266  3.975724  0.003  -0.136766  0.000563  3.994989  0.001  -0.080689  -0.124287  0.001366  3.964963  0.003
C  C43  1  0.69111760  0.77803925  0.45453955  1  -0.11534  0.005374  3.723517  0.008  -0.13006  0.001235  3.97873  0.003  -0.137398  0.000551  3.997898  0.001  -0.081722  -0.125037  0.001335  3.968125  0.003
C  C44  1  0.71040517  0.25813730  0.43008609  1  0.12571  -0.013357  3.694388  -0.009  0.096207  -0.001323  3.954645  0.0  0.105182  8.1e-05  3.972665  0.0  0.050357  0.088935  -0.003044  3.944966  -0.001
C  C45  1  0.78006726  0.82707967  0.56977229  1  0.125551  -0.013668  3.69662  -0.009  0.096155  -0.001465  3.957072  0.0  0.10519  2e-06  3.974979  0.0  0.050585  0.088889  -0.003042  3.947441  -0.001
C  C46  1  0.08004019  0.29634055  0.16991004  1  0.463588  -0.007025  3.949674  -0.004  0.428653  -8e-06  4.241968  0.001  0.45536  -0.001313  4.247777  0.0  0.204944  0.410685  0.001113  4.236156  0.002
C  C47  1  0.41014984  0.12705399  0.82985532  1  0.464074  -0.007277  3.948776  -0.004  0.429711  -0.000204  4.240438  0.001  0.456431  -0.001507  4.246263  0.0  0.204846  0.411628  0.001119  4.234643  0.002
C  C48  1  0.17107464  0.35588799  0.08999662  1  -0.047255  0.00084  3.746051  0.003  -0.030895  0.000214  3.971626  0.001  -0.034061  2e-05  3.991218  0.001  -0.008067  -0.028797  0.000472  3.958707  0.002
C  C49  1  0.58125704  0.26614133  0.90984477  1  -0.047674  0.000847  3.743502  0.003  -0.031523  0.000202  3.969085  0.001  -0.034704  0.0  3.988733  0.001  -0.007223  -0.029324  0.000516  3.956002  0.002
C  C50  1  0.31093450  0.51430396  0.12671746  1  -0.07353  -0.00258  3.682984  -0.001  -0.106341  -0.000349  3.930054  0.0  -0.10524  -0.000435  3.946117  0.0  -0.073838  -0.106995  -9.3e-05  3.919136  0.0
C  C51  1  0.68469225  0.38825478  0.87348233  1  -0.071734  -0.002485  3.684685  -0.001  -0.104678  -0.000255  3.931816  0.0  -0.103561  -0.00037  3.948003  0.0  -0.073285  -0.105303  3.5e-05  3.920798  0.0
C  C52  1  0.38692435  0.57613767  0.04978764  1  -0.04806  0.003008  3.727764  0.005  -0.025138  0.001621  3.961814  0.003  -0.031008  0.001018  3.9822  0.002  -0.01025  -0.021743  0.002456  3.949108  0.004
C  C53  1  0.83771173  0.52663980  0.95054830  1  -0.046779  0.00299  3.727084  0.005  -0.024106  0.001583  3.961549  0.003  -0.029923  0.000986  3.981797  0.002  -0.009986  -0.020844  0.002476  3.949143  0.004
C  C54  1  0.32012885  0.47827865  0.93445314  1  -0.05757  -0.00475  3.716874  -0.003  -0.084865  -0.001545  3.967397  -0.001  -0.084988  -0.001218  3.987458  0.0  -0.079124  -0.084464  -0.002452  3.953889  -0.001
C  C55  1  0.88625731  0.54335549  0.06572393  1  -0.058322  -0.004759  3.717814  -0.003  -0.085232  -0.00155  3.96873  -0.001  -0.085328  -0.001226  3.988838  0.0  -0.079744  -0.084914  -0.002422  3.955279  -0.001
C  C56  1  0.18179356  0.32217838  0.89700898  1  -0.068951  0.000374  3.730623  0.001  -0.090665  0.000295  3.981827  0.001  -0.092309  1.3e-05  4.001138  0.0  -0.08145  -0.090258  0.000595  3.969233  0.001
C  C57  1  0.78520391  0.42431241  0.10286797  1  -0.072142  0.000381  3.732672  0.001  -0.093333  0.000295  3.983486  0.001  -0.095148  9e-06  4.002879  0.0  -0.082414  -0.09285  0.000592  3.97089  0.001
C  C58  1  0.10752794  0.25842072  0.97437638  1  -0.053174  -0.003807  3.771146  -0.001  -0.042444  -0.001967  4.005567  0.0  -0.045571  -0.001596  4.024971  0.0  -0.007793  -0.040415  -0.002931  3.993548  -0.001
C  C59  1  0.63334995  0.28361933  0.02532910  1  -0.051556  -0.003858  3.768061  -0.001  -0.040599  -0.002016  4.002852  0.0  -0.043787  -0.001632  4.022381  0.0  -0.007285  -0.038574  -0.002924  3.990793  -0.001
C  C60  1  0.53682232  0.74488852  0.08462021  1  0.643335  -0.008402  3.886188  -0.007  0.59669  -0.001836  4.187246  -0.001  0.6327  -0.001432  4.181111  -0.001  0.211731  0.570993  -0.002223  4.190439  -0.002
C  C61  1  0.95244593  0.66095691  0.91587910  1  0.63993  -0.008368  3.887579  -0.007  0.592917  -0.001817  4.189611  -0.001  0.628909  -0.001409  4.183477  -0.001  0.209509  0.56721  -0.002208  4.192799  -0.002
C  C62  1  0.96577503  0.09292726  0.93733620  1  0.48549  -0.008355  3.83831  -0.005  0.438053  0.002806  4.130398  0.005  0.468251  0.000864  4.131941  0.003  0.223053  0.415984  0.004727  4.129544  0.007
C  C63  1  0.52837191  0.15497594  0.06217430  1  0.48645  -0.008606  3.832076  -0.005  0.438401  0.002549  4.125882  0.005  0.468574  0.000632  4.127396  0.003  0.22253  0.416264  0.004678  4.125114  0.007
N  N64  1  0.81492864  0.17886928  0.39004794  1  -0.330648  0.042992  3.285346  0.07  -0.285655  0.029678  3.578265  0.043  -0.311435  0.022903  3.590957  0.033  -0.325785  -0.267114  0.035909  3.570754  0.052
N  N65  1  0.92488533  0.78823457  0.60978450  1  -0.332461  0.043068  3.285827  0.07  -0.288204  0.029676  3.579495  0.043  -0.313892  0.022927  3.592014  0.033  -0.326908  -0.269722  0.036016  3.572037  0.052
N  N66  1  0.00135052  0.01955422  0.29917325  1  -0.33671  0.042302  3.316872  0.084  -0.293031  0.031752  3.594304  0.062  -0.316957  0.025717  3.610943  0.053  -0.317598  -0.275736  0.036649  3.582479  0.068
N  N67  1  0.20240185  0.72062782  0.70084270  1  -0.336681  0.042233  3.317853  0.083  -0.293862  0.031683  3.595504  0.062  -0.317713  0.025675  3.612121  0.053  -0.317749  -0.27658  0.036504  3.583648  0.068
N  N68  1  0.89214034  0.05125127  0.01699110  1  -0.23854  0.017256  3.436286  0.027  -0.184498  0.013098  3.688891  0.02  -0.199826  0.010454  3.706229  0.016  -0.278545  -0.175039  0.016938  3.678034  0.025
N  N69  1  0.37495142  0.03406951  0.98246860  1  -0.235707  0.017452  3.435338  0.027  -0.182813  0.013315  3.689304  0.02  -0.198028  0.010614  3.70651  0.017  -0.277798  -0.173402  0.016961  3.678514  0.025
N  N70  1  0.93756086  0.14604509  0.12769852  1  -0.365757  0.053809  3.219861  0.08  -0.344255  0.03674  3.542008  0.048  -0.378887  0.028841  3.562316  0.037  -0.273525  -0.317923  0.045797  3.526118  0.06
N  N71  1  0.30956245  0.01890351  0.87195422  1  -0.368432  0.05433  3.221261  0.081  -0.347013  0.037173  3.544137  0.049  -0.381694  0.02915  3.564433  0.038  -0.274431  -0.320521  0.045957  3.52819  0.06
O  O72  1  0.59988761  0.78950575  0.00934557  1  -0.61251  0.002519  1.975507  0.004  -0.567108  0.004148  2.208127  0.006  -0.592172  0.00281  2.199368  0.004  -0.308969  -0.548324  0.00591  2.214171  0.009
O  O73  1  0.09065139  0.78079199  0.99117244  1  -0.609298  0.002321  1.977676  0.004  -0.563544  0.003968  2.209684  0.006  -0.588569  0.002681  2.200993  0.004  -0.306808  -0.544905  0.005644  2.215811  0.009
O  O74  1  0.59279819  0.83523327  0.18978535  1  -0.617473  0.046934  2.064532  0.08  -0.581798  0.033115  2.345757  0.052  -0.622338  0.023999  2.33602  0.038  -0.315724  -0.548318  0.043588  2.349178  0.068
O  O75  1  0.90308590  0.64645781  0.81078492  1  -0.618098  0.046903  2.06569  0.08  -0.582062  0.033118  2.346863  0.052  -0.622512  0.024007  2.337083  0.038  -0.315674  -0.548603  0.043587  2.350292  0.068
O  O76  1  0.91095820  0.98957763  0.83631404  1  -0.61129  0.031254  2.051135  0.051  -0.575839  0.025958  2.326736  0.037  -0.611048  0.018848  2.314563  0.026  -0.331112  -0.546427  0.034106  2.333247  0.049
O  O77  1  0.57427146  0.15209376  0.16302362  1  -0.612704  0.031021  2.04793  0.051  -0.576501  0.025764  2.323524  0.036  -0.611795  0.018713  2.311378  0.026  -0.331312  -0.547104  0.033863  2.330156  0.048
O  O78  1  0.12196721  0.38272215  0.27227149  1  -0.60502  0.000619  1.928591  0.002  -0.577078  0.002075  2.164562  0.004  -0.601884  0.000324  2.159403  0.001  -0.338424  -0.556954  0.004876  2.165512  0.008
O  O79  1  0.34972244  0.11164292  0.72763879  1  -0.604312  0.000847  1.927199  0.002  -0.576453  0.002211  2.162834  0.004  -0.601382  0.000445  2.157732  0.001  -0.338011  -0.556267  0.00491  2.163893  0.008
