# generated using pymatgen
data_AlH6C21N(ClO)6
_symmetry_space_group_name_H-M   'P 1'
_cell_length_a   4.15362652
_cell_length_b   13.50087569
_cell_length_c   13.50101753
_cell_angle_alpha   120.00013041
_cell_angle_beta   89.99915696
_cell_angle_gamma   90.00045127
_symmetry_Int_Tables_number   1
_chemical_formula_structural   AlH6C21N(ClO)6
_chemical_formula_sum   'Al1 H6 C21 N1 Cl6 O6'
_cell_volume   655.67095365
_cell_formula_units_Z   1
loop_
 _symmetry_equiv_pos_site_id
 _symmetry_equiv_pos_as_xyz
  1  'x, y, z'
loop_
 _atom_site_type_symbol
 _atom_site_label
 _atom_site_symmetry_multiplicity
 _atom_site_fract_x
 _atom_site_fract_y
 _atom_site_fract_z
 _atom_site_occupancy
 _atom_site_pbe_bader_charge
 _atom_site_pbe_bader_spin_density
 _atom_site_pbe_cm5_charge
 _atom_site_pbe_ddec_charge
 _atom_site_pbe_ddec_spin_density
 _atom_site_pbe_ddec_sum_bond_order
 _atom_site_pbe_magmom
Al  Al0  1  0.00001149  0.49999654  0.49999902  1  2.513947  0  0.43077  1.647695  0  2.502085  0
H  H1  1  0.23088087  0.02876012  0.90137275  1  0.096883  0  0.105578  0.129022  0  1.024826  0
H  H2  1  0.76910618  0.02876714  0.62738759  1  0.087732  0  0.105577  0.128999  0  1.024871  0
H  H3  1  0.76908932  0.09861287  0.97122634  1  0.096748  0  0.10559  0.129014  0  1.025203  0
H  H4  1  0.23088367  0.37260567  0.97123522  1  0.08764  0  0.105615  0.129056  0  1.024758  0
H  H5  1  0.76908008  0.37260911  0.90137980  1  0.091523  0  0.105586  0.129015  0  1.024824  0
H  H6  1  0.23088826  0.09861684  0.62738984  1  0.091231  0  0.105612  0.12906  0  1.02496  0
C  C7  1  0.50004982  0.41292874  0.32586074  1  1.676663  0  0.27315  0.687367  0  4.080535  0
C  C8  1  0.49997622  0.41294351  0.58708616  1  1.672928  0  0.273182  0.687497  0  4.080477  0
C  C9  1  0.49998924  0.67413376  0.58706308  1  1.676618  0  0.273219  0.687368  0  4.0804  0
C  C10  1  0.35931537  0.86529575  0.75999825  1  -0.016725  0  0.019118  0.155535  0  4.055201  0
C  C11  1  0.34995743  0.98427176  0.81873079  1  0.106732  0  -0.107883  -0.261164  0  3.980962  0
C  C12  1  0.50001762  0.04531641  0.77265467  1  0.317151  0  0.094698  0.21766  0  4.013038  0
C  C13  1  0.65003859  0.98426988  0.66553221  1  0.093613  0  -0.107976  -0.261252  0  3.981176  0
C  C14  1  0.64064909  0.86529603  0.60528805  1  0.053013  0  0.019102  0.155552  0  4.055147  0
C  C15  1  0.49998697  0.80282446  0.65141176  1  0.056862  0  -0.025465  -0.175559  0  3.940692  0
C  C16  1  0.65007968  0.18124951  0.01571517  1  0.106444  0  -0.10798  -0.261191  0  3.980925  0
C  C17  1  0.64068824  0.23999016  0.13469809  1  -0.018673  0  0.019094  0.155328  0  4.054891  0
C  C18  1  0.50001110  0.34857508  0.19716898  1  0.057234  0  -0.025406  -0.17533  0  3.94062  0
C  C19  1  0.35930963  0.39469389  0.13470013  1  0.053517  0  0.019135  0.155464  0  4.054999  0
C  C20  1  0.34996321  0.33445079  0.01572349  1  0.092139  0  -0.107875  -0.261196  0  3.981059  0
C  C21  1  0.50002048  0.22734114  0.95468069  1  0.319292  0  0.094643  0.217728  0  4.012715  0
C  C22  1  0.65006025  0.33445266  0.81873188  1  0.018435  0  -0.107944  -0.261155  0  3.980996  0
C  C23  1  0.64067303  0.39471057  0.76000847  1  0.081876  0  0.019027  0.15526  0  4.055078  0
C  C24  1  0.49997868  0.34858864  0.65142339  1  0.015774  0  -0.025375  -0.175364  0  3.940684  0
C  C25  1  0.35931333  0.24000195  0.60529731  1  0.080467  0  0.019116  0.155476  0  4.054874  0
C  C26  1  0.34992898  0.18125724  0.66553994  1  0.019081  0  -0.107968  -0.26126  0  3.980741  0
C  C27  1  0.50000794  0.22734164  0.77265746  1  0.384159  0  0.094698  0.217688  0  4.012915  0
N  N28  1  0.50001776  0.16666260  0.83333227  1  -1.322751  0  -0.242388  -0.134213  0  3.587031  0
Cl  Cl29  1  0.80797262  0.79410067  0.47011260  1  -0.181639  0  0.012469  -0.041313  0  1.544122  0
Cl  Cl30  1  0.19197723  0.79411080  0.82398708  1  -0.182161  0  0.012418  -0.041363  0  1.544028  0
Cl  Cl31  1  0.80801661  0.17599986  0.20588759  1  -0.181372  0  0.012403  -0.04134  0  1.544039  0
Cl  Cl32  1  0.19201492  0.52987372  0.20588209  1  -0.181789  0  0.012411  -0.041351  0  1.544025  0
Cl  Cl33  1  0.80797045  0.52988868  0.82399939  1  -0.182125  0  0.012496  -0.04122  0  1.544204  0
Cl  Cl34  1  0.19203297  0.17601527  0.47011793  1  -0.182109  0  0.012428  -0.04132  0  1.544103  0
O  O35  1  0.73675720  0.62536148  0.60430890  1  -1.245732  0  -0.23192  -0.599146  0  2.41274  0
O  O36  1  0.73678241  0.47893506  0.37462552  1  -1.255453  0  -0.231701  -0.59894  0  2.413243  0
O  O37  1  0.73675860  0.39569858  0.52107158  1  -1.248107  0  -0.231769  -0.599208  0  2.412796  0
O  O38  1  0.26325006  0.62536804  0.52104917  1  -1.255253  0  -0.231761  -0.598871  0  2.41301  0
O  O39  1  0.26323415  0.47895901  0.60432824  1  -1.248355  0  -0.231816  -0.598903  0  2.413052  0
O  O40  1  0.26326740  0.39568210  0.37463394  1  -1.245456  0  -0.23191  -0.599125  0  2.412681  0
