# generated using pymatgen
data_CuH8C16N2(O2F3)2
_symmetry_space_group_name_H-M   'P 1'
_cell_length_a   7.65042635
_cell_length_b   11.07886183
_cell_length_c   11.07888339
_cell_angle_alpha   61.48754162
_cell_angle_beta   78.15943380
_cell_angle_gamma   78.15951766
_symmetry_Int_Tables_number   1
_chemical_formula_structural   CuH8C16N2(O2F3)2
_chemical_formula_sum   'Cu2 H16 C32 N4 O8 F12'
_cell_volume   801.27304362
_cell_formula_units_Z   2
loop_
 _symmetry_equiv_pos_site_id
 _symmetry_equiv_pos_as_xyz
  1  'x, y, z'
loop_
 _atom_site_type_symbol
 _atom_site_label
 _atom_site_symmetry_multiplicity
 _atom_site_fract_x
 _atom_site_fract_y
 _atom_site_fract_z
 _atom_site_occupancy
 _atom_site_hle17_ddec_charge
 _atom_site_hle17_ddec_spin_density
 _atom_site_hle17_ddec_sum_bond_order
 _atom_site_hle17_magmom
 _atom_site_hse06_10hf_ddec_charge
 _atom_site_hse06_10hf_ddec_spin_density
 _atom_site_hse06_10hf_ddec_sum_bond_order
 _atom_site_hse06_10hf_magmom
 _atom_site_hse06_ddec_charge
 _atom_site_hse06_ddec_spin_density
 _atom_site_hse06_ddec_sum_bond_order
 _atom_site_hse06_magmom
 _atom_site_pbe_cm5_charge
 _atom_site_pbe_ddec_charge
 _atom_site_pbe_ddec_spin_density
 _atom_site_pbe_ddec_sum_bond_order
 _atom_site_pbe_magmom
Cu  Cu0  1  0.25000246  0.63166855  0.36833045  1  0.927174  -0.758051  1.774472  -0.536  0.909563  -0.828354  2.162874  -0.646  0.989093  -0.900801  2.106387  -0.73  0.762095  0.858568  -0.774597  2.206261  -0.589
Cu  Cu1  1  0.74999924  0.36832914  0.63167230  1  0.927138  0.758064  1.774711  0.536  0.909493  0.828354  2.163129  0.646  0.989019  0.900801  2.106655  0.73  0.762049  0.858493  0.774597  2.20652  0.589
H  H2  1  0.99762397  0.82645051  0.47928037  1  0.094473  -0.001727  0.946368  -0.003  0.098205  -0.001184  1.014839  -0.002  0.100528  -0.000814  1.01176  -0.002  0.11729  0.096055  -0.001464  1.017707  -0.003
H  H3  1  0.50237303  0.52071840  0.17355322  1  0.094438  -0.00173  0.94631  -0.003  0.09818  -0.001184  1.014774  -0.002  0.10052  -0.000814  1.011676  -0.002  0.117285  0.09603  -0.001463  1.017643  -0.003
H  H4  1  0.00237656  0.17354615  0.52072395  1  0.094499  0.001732  0.946331  0.003  0.098219  0.001184  1.014807  0.002  0.100549  0.000814  1.011721  0.002  0.117282  0.09607  0.001464  1.017674  0.003
H  H5  1  0.49762234  0.47927721  0.82645145  1  0.094462  0.001731  0.946342  0.003  0.098194  0.001184  1.014812  0.002  0.10052  0.000814  1.011729  0.002  0.117275  0.096045  0.001464  1.01768  0.003
H  H6  1  0.87262822  0.07881054  0.36696345  1  0.111648  -0.000564  0.9532  -0.001  0.1169  -0.000502  1.01878  -0.001  0.120511  -0.000365  1.01698  0.0  0.103237  0.114043  -0.000591  1.020706  -0.001
H  H7  1  0.62737097  0.63303577  0.92118921  1  0.111686  -0.000564  0.953149  -0.001  0.116937  -0.000502  1.018734  -0.001  0.120549  -0.000365  1.016929  0.0  0.103237  0.11408  -0.00059  1.020666  -0.001
H  H8  1  0.12736946  0.92118713  0.63303808  1  0.111678  0.000565  0.953098  0.001  0.116931  0.000502  1.018685  0.001  0.120541  0.000365  1.016882  0.0  0.103248  0.114073  0.000591  1.020615  0.001
H  H9  1  0.37262786  0.36696293  0.07880896  1  0.111646  0.000567  0.953184  0.001  0.116914  0.000502  1.018749  0.001  0.120524  0.000365  1.016947  0.0  0.103246  0.114058  0.000591  1.020679  0.001
H  H10  1  0.96136391  0.22337633  0.11354079  1  0.109658  -0.000406  0.934036  -0.001  0.116881  -3e-05  0.99888  0.0  0.120396  2e-06  0.995171  0.0  0.106124  0.114257  -9.6e-05  1.001569  0.0
H  H11  1  0.53863785  0.88646129  0.77662404  1  0.10966  -0.000402  0.934052  -0.001  0.1169  -3e-05  0.99888  0.0  0.120405  2e-06  0.995184  0.0  0.106127  0.114277  -9.6e-05  1.001575  0.0
H  H12  1  0.03863844  0.77662552  0.88646166  1  0.109631  0.000404  0.934079  0.001  0.116877  3e-05  0.998899  0.0  0.120382  -2e-06  0.995205  0.0  0.106125  0.114254  9.6e-05  1.001593  0.0
H  H13  1  0.46135798  0.11353949  0.22337627  1  0.109628  0.000408  0.934041  0.001  0.116872  3e-05  0.998871  0.0  0.120377  -2e-06  0.995179  0.0  0.106122  0.114249  9.6e-05  1.001565  0.0
H  H14  1  0.14283896  0.23257319  0.88541465  1  0.112341  -0.000386  0.958818  -0.001  0.121755  -0.000222  1.021098  0.0  0.124266  -0.000131  1.020308  0.0  0.103205  0.119656  -0.000306  1.022125  0.0
H  H15  1  0.35716395  0.11458775  0.76742763  1  0.112338  -0.000387  0.958848  -0.001  0.121739  -0.000222  1.02114  0.0  0.124242  -0.000131  1.020374  0.0  0.103187  0.11964  -0.000306  1.022169  0.0
H  H16  1  0.85716595  0.76742145  0.11459543  1  0.112307  0.000387  0.958753  0.001  0.121744  0.000222  1.021014  0.0  0.124255  0.000131  1.020226  0.0  0.103193  0.119646  0.000306  1.022045  0.0
H  H17  1  0.64283358  0.88541099  0.23257792  1  0.112311  0.000388  0.958812  0.001  0.121755  0.000222  1.02106  0.0  0.124273  0.000131  1.020254  0.0  0.103184  0.119657  0.000306  1.022087  0.0
C  C18  1  0.03165763  0.89281677  0.36934561  1  0.161368  0.008235  3.649396  0.009  0.130182  0.001145  3.909446  0.002  0.141854  0.002224  3.924916  0.004  0.06139  0.122622  0.000338  3.899861  0.002
C  C19  1  0.46834293  0.63065414  0.10718235  1  0.161394  0.008227  3.649137  0.009  0.130217  0.001144  3.909202  0.002  0.141876  0.002223  3.924666  0.004  0.061385  0.122659  0.000338  3.899618  0.002
C  C20  1  0.96833739  0.10718092  0.63065901  1  0.161418  -0.008235  3.649287  -0.009  0.130268  -0.001144  3.909308  -0.002  0.141935  -0.002223  3.924776  -0.004  0.061446  0.122713  -0.000338  3.89972  -0.002
C  C21  1  0.53166026  0.36934251  0.89281889  1  0.161446  -0.008231  3.649316  -0.009  0.130301  -0.001143  3.909367  -0.002  0.141971  -0.002222  3.924833  -0.004  0.061444  0.122744  -0.000338  3.89978  -0.002
C  C22  1  0.96350835  0.03406954  0.30519496  1  -0.111702  -0.010957  3.702958  -0.012  -0.127639  -0.004496  3.962106  -0.005  -0.135786  -0.003874  3.982516  -0.005  -0.082085  -0.12247  -0.004957  3.949058  -0.006
C  C23  1  0.53648942  0.69480382  0.96593004  1  -0.111771  -0.010937  3.702908  -0.012  -0.127703  -0.004495  3.962064  -0.005  -0.135853  -0.003874  3.982485  -0.005  -0.08209  -0.122531  -0.004957  3.94902  -0.006
C  C24  1  0.03648499  0.96593021  0.69480710  1  -0.11177  0.010942  3.702696  0.012  -0.127714  0.004495  3.961852  0.005  -0.135868  0.003873  3.982279  0.005  -0.082109  -0.122541  0.004956  3.948805  0.006
C  C25  1  0.46351342  0.30519488  0.03406844  1  -0.111745  0.010938  3.702959  0.012  -0.127682  0.004495  3.962091  0.005  -0.135838  0.003872  3.982521  0.005  -0.082096  -0.122515  0.004957  3.949048  0.006
C  C26  1  0.01244481  0.11376865  0.16515030  1  -0.034856  0.00966  3.665339  0.009  -0.063799  0.003042  3.920301  0.003  -0.059635  0.003187  3.936857  0.003  -0.060977  -0.066399  0.002963  3.909109  0.003
C  C27  1  0.48755607  0.83485062  0.88623045  1  -0.034803  0.00963  3.665273  0.009  -0.063763  0.003041  3.920254  0.003  -0.059591  0.003187  3.936815  0.003  -0.060944  -0.066365  0.002963  3.90907  0.003
C  C28  1  0.98755272  0.88623008  0.83485436  1  -0.034807  -0.009639  3.665248  -0.009  -0.063776  -0.003041  3.920226  -0.003  -0.059605  -0.003185  3.936789  -0.003  -0.060981  -0.066379  -0.002963  3.909041  -0.003
C  C29  1  0.51244394  0.16514912  0.11376885  1  -0.034763  -0.009649  3.665267  -0.009  -0.063737  -0.003042  3.920231  -0.003  -0.059568  -0.003185  3.936796  -0.003  -0.060975  -0.066341  -0.002963  3.909043  -0.003
C  C30  1  0.13028711  0.05184318  0.08834950  1  0.025851  -0.005712  3.796096  -0.006  0.042024  -0.002447  4.028327  -0.003  0.038889  -0.002034  4.053064  -0.002  0.000539  0.044068  -0.002734  4.011744  -0.003
C  C31  1  0.36971749  0.91165131  0.94815665  1  0.025875  -0.005697  3.796123  -0.006  0.042002  -0.002447  4.028346  -0.003  0.038868  -0.002033  4.053079  -0.002  0.000529  0.044049  -0.002735  4.011765  -0.003
C  C32  1  0.86971244  0.94815141  0.91165687  1  0.025853  0.005706  3.795958  0.006  0.042049  0.002448  4.028186  0.003  0.038917  0.002033  4.052913  0.002  0.000569  0.044097  0.002735  4.011604  0.003
C  C33  1  0.63028589  0.08834433  0.05184776  1  0.025764  0.005703  3.796057  0.006  0.041972  0.002448  4.028287  0.003  0.038839  0.002031  4.053019  0.002  0.000551  0.044024  0.002734  4.0117  0.003
C  C34  1  0.19157392  0.12336784  0.94342050  1  -0.088758  -0.001295  3.698598  -0.001  -0.112566  -0.000724  3.954027  -0.001  -0.116162  -0.000585  3.97827  -0.001  -0.082325  -0.11013  -0.000792  3.938253  -0.001
C  C35  1  0.30842675  0.05658049  0.87663196  1  -0.088738  -0.001319  3.698627  -0.001  -0.112536  -0.000723  3.954063  -0.001  -0.116135  -0.000587  3.978305  -0.001  -0.082309  -0.110104  -0.000792  3.938294  -0.001
C  C36  1  0.80842430  0.87662675  0.05658606  1  -0.08873  0.001306  3.698373  0.001  -0.112565  0.000722  3.953812  0.001  -0.116162  0.000586  3.978056  0.001  -0.08233  -0.110133  0.000792  3.938047  0.001
C  C37  1  0.69157664  0.94341515  0.12337334  1  -0.088724  0.001303  3.69844  0.001  -0.11256  0.000725  3.953864  0.001  -0.116156  0.000585  3.978112  0.001  -0.082323  -0.110126  0.000792  3.938091  0.001
C  C38  1  0.19119814  0.90907982  0.16154513  1  0.129168  0.001251  3.765421  0.002  0.124047  -0.000969  4.004653  0.0  0.129649  -4.8e-05  4.026186  0.001  0.118101  0.120544  -0.001616  3.990044  -0.001
C  C39  1  0.30881247  0.83845520  0.09092204  1  0.129  0.001236  3.765631  0.002  0.124064  -0.00097  4.004722  0.0  0.129668  -4.7e-05  4.026254  0.001  0.118123  0.120557  -0.001616  3.990115  -0.001
C  C40  1  0.80880757  0.09091790  0.83845973  1  0.129208  -0.001246  3.765328  -0.002  0.124113  0.00097  4.004608  0.0  0.129717  4.7e-05  4.026135  -0.001  0.118146  0.120608  0.001616  3.989999  0.001
C  C41  1  0.69119341  0.16154148  0.90908240  1  0.129157  -0.001237  3.765338  -0.002  0.124048  0.00097  4.004677  0.0  0.129653  4.9e-05  4.026205  -0.001  0.118093  0.120542  0.001617  3.990067  0.001
C  C42  1  0.42185703  0.34489086  0.49231232  1  0.518275  0.002525  3.985338  0.006  0.479067  -0.000985  4.283743  0.002  0.513741  -0.000391  4.275153  0.001  0.202587  0.455456  -0.001615  4.288469  0.002
C  C43  1  0.07814612  0.50769035  0.65510805  1  0.518191  0.002528  3.985366  0.006  0.479047  -0.000984  4.283732  0.002  0.513694  -0.000394  4.275132  0.001  0.202584  0.455436  -0.001615  4.288454  0.002
C  C44  1  0.57814412  0.65510989  0.50768181  1  0.518201  -0.002526  3.985353  -0.006  0.479173  0.000985  4.283649  -0.002  0.513816  0.000395  4.275033  -0.001  0.202551  0.455564  0.001616  4.288375  -0.002
C  C45  1  0.92185386  0.49231770  0.34489085  1  0.518323  -0.002528  3.985252  -0.006  0.479224  0.000984  4.283626  -0.002  0.513857  0.000395  4.275023  -0.001  0.202628  0.455617  0.001616  4.288353  -0.002
C  C46  1  0.48881011  0.21807673  0.46113436  1  0.66868  -0.00932  3.622637  -0.01  0.596941  -0.005916  3.964459  -0.007  0.623688  -0.003964  3.936687  -0.005  0.295024  0.577998  -0.007864  3.984142  -0.009
C  C47  1  0.01119298  0.53886786  0.78191821  1  0.668876  -0.009306  3.622612  -0.01  0.59701  -0.005916  3.964609  -0.007  0.623866  -0.00396  3.936661  -0.005  0.295132  0.578067  -0.007863  3.984291  -0.009
C  C48  1  0.51119671  0.78192195  0.53885815  1  0.669009  0.009319  3.622268  0.01  0.596865  0.005917  3.964648  0.007  0.623753  0.003959  3.936642  0.005  0.294958  0.577926  0.007864  3.984326  0.009
C  C49  1  0.98880298  0.46114015  0.21807678  1  0.669041  0.009318  3.622394  0.01  0.596984  0.005918  3.964678  0.007  0.623886  0.003958  3.936645  0.005  0.295069  0.578039  0.007864  3.984363  0.009
N  N50  1  0.14280580  0.83265226  0.29899094  1  -0.305958  -0.087279  3.309219  -0.107  -0.266482  -0.056919  3.599984  -0.075  -0.295301  -0.04716  3.620287  -0.065  -0.33212  -0.249058  -0.062124  3.58782  -0.079
N  N51  1  0.35719924  0.70101140  0.16734868  1  -0.305885  -0.087265  3.309148  -0.107  -0.26649  -0.056918  3.599903  -0.075  -0.29531  -0.04716  3.620212  -0.065  -0.332112  -0.249069  -0.062123  3.587744  -0.079
N  N52  1  0.85719493  0.16734340  0.70101835  1  -0.306059  0.087264  3.309444  0.107  -0.266575  0.056914  3.600205  0.075  -0.295393  0.047157  3.620506  0.065  -0.332152  -0.249153  0.06212  3.588045  0.079
N  N53  1  0.64280414  0.29898424  0.83265662  1  -0.305972  0.087265  3.309319  0.107  -0.26656  0.056916  3.600176  0.075  -0.295377  0.047157  3.620474  0.065  -0.332125  -0.249135  0.062122  3.588013  0.079
O  O54  1  0.33658504  0.44174947  0.39540148  1  -0.5597  -0.07582  2.152602  -0.099  -0.547222  -0.049474  2.441455  -0.071  -0.585417  -0.037092  2.432376  -0.056  -0.322388  -0.520318  -0.058146  2.44662  -0.08
O  O55  1  0.16342953  0.60459430  0.55825197  1  -0.559753  -0.075815  2.152755  -0.099  -0.547228  -0.049472  2.441585  -0.071  -0.585423  -0.037082  2.432514  -0.056  -0.322395  -0.520327  -0.058143  2.446752  -0.08
O  O56  1  0.66342693  0.55825024  0.60458708  1  -0.559831  0.075817  2.15274  0.099  -0.547316  0.049475  2.441524  0.071  -0.585512  0.037085  2.432447  0.056  -0.322435  -0.520412  0.058147  2.446687  0.08
O  O57  1  0.83656663  0.39541271  0.44174798  1  -0.559879  0.075818  2.152728  0.099  -0.547353  0.049473  2.441511  0.071  -0.585548  0.037085  2.432441  0.056  -0.32249  -0.520458  0.058146  2.446697  0.08
O  O58  1  0.45613754  0.33652674  0.60056116  1  -0.536753  -0.000778  2.053211  0.0  -0.525799  -0.001009  2.302587  -0.001  -0.548054  -0.000264  2.292848  0.0  -0.302679  -0.50972  -0.002034  2.308736  -0.002
O  O59  1  0.04385629  0.39944109  0.66347496  1  -0.536719  -0.000778  2.05317  0.0  -0.52578  -0.001009  2.302495  -0.001  -0.548036  -0.000268  2.292761  0.0  -0.302687  -0.509709  -0.002035  2.308663  -0.002
O  O60  1  0.54385040  0.66348124  0.39943229  1  -0.536695  0.000776  2.053246  0.0  -0.525807  0.001008  2.302574  0.001  -0.548068  0.000272  2.292838  0.0  -0.302612  -0.50974  0.002034  2.308742  0.002
O  O61  1  0.95614386  0.60056592  0.33652351  1  -0.536758  0.000777  2.053224  0.0  -0.525821  0.00101  2.30257  0.001  -0.54808  0.000271  2.292841  0.0  -0.30263  -0.50974  0.002034  2.308715  0.002
F  F62  1  0.59670365  0.11770788  0.55409895  1  -0.250692  -0.0018  1.200865  -0.002  -0.21294  -0.001438  1.371799  -0.002  -0.222552  -0.000941  1.356566  -0.001  -0.099748  -0.205321  -0.00198  1.382284  -0.003
F  F63  1  0.90329681  0.44590245  0.88228588  1  -0.250698  -0.001802  1.200843  -0.002  -0.21294  -0.001438  1.371853  -0.002  -0.22258  -0.000942  1.356579  -0.001  -0.099742  -0.205322  -0.00198  1.382339  -0.003
F  F64  1  0.40330665  0.88228557  0.44588745  1  -0.250826  0.001801  1.200836  0.002  -0.212929  0.001438  1.371874  0.002  -0.222576  0.000941  1.356587  0.001  -0.099701  -0.205314  0.00198  1.38236  0.003
F  F65  1  0.09669596  0.55410866  0.11770716  1  -0.250831  0.001801  1.200827  0.002  -0.212973  0.001437  1.371851  0.002  -0.222621  0.000941  1.356557  0.001  -0.099751  -0.205355  0.00198  1.382338  0.003
F  F66  1  0.34793562  0.15676627  0.46522251  1  -0.254918  4e-06  1.170138  0.0  -0.216056  1.6e-05  1.334647  0.0  -0.224341  8.2e-05  1.317792  0.0  -0.106253  -0.209268  -0.000109  1.346058  0.0
F  F67  1  0.15206711  0.53478130  0.84322341  1  -0.254963  -1e-06  1.170215  0.0  -0.216088  1.7e-05  1.334795  0.0  -0.224398  8.3e-05  1.317899  0.0  -0.10631  -0.209299  -0.000109  1.346206  0.0
F  F68  1  0.65207004  0.84323137  0.53477066  1  -0.254902  -4e-06  1.170001  0.0  -0.216004  -1.5e-05  1.334692  0.0  -0.224324  -8.3e-05  1.317787  0.0  -0.106242  -0.209218  0.000109  1.346101  0.0
F  F69  1  0.84792934  0.46523191  0.15677170  1  -0.254938  -3e-06  1.170163  0.0  -0.216042  -1.5e-05  1.334817  0.0  -0.224365  -8.4e-05  1.317908  0.0  -0.106271  -0.209253  0.000109  1.346228  0.0
F  F70  1  0.58500820  0.25543834  0.33270011  1  -0.251651  -4.7e-05  1.178066  0.0  -0.208272  -9.8e-05  1.340672  0.0  -0.220805  -2.2e-05  1.328966  0.0  -0.099981  -0.20128  -0.000222  1.351707  0.0
F  F71  1  0.91498643  0.66729972  0.74455841  1  -0.251733  -5e-05  1.178036  0.0  -0.208322  -9.9e-05  1.340687  0.0  -0.220882  -2.2e-05  1.328939  0.0  -0.100033  -0.201332  -0.000222  1.351724  0.0
F  F72  1  0.41498976  0.74456551  0.66729209  1  -0.251752  4.9e-05  1.177921  0.0  -0.208286  9.7e-05  1.340655  0.0  -0.220857  2.3e-05  1.328903  0.0  -0.099963  -0.201299  0.000222  1.351691  0.0
F  F73  1  0.08500718  0.33270618  0.25543252  1  -0.251779  4.9e-05  1.177965  0.0  -0.208333  9.7e-05  1.34068  0.0  -0.220906  2.3e-05  1.328918  0.0  -0.099998  -0.201342  0.000222  1.351717  0.0
