# generated using pymatgen
data_CdH5C4(NO2)3
_symmetry_space_group_name_H-M   'P 1'
_cell_length_a   7.45800435
_cell_length_b   10.12713603
_cell_length_c   10.60886847
_cell_angle_alpha   90.00000149
_cell_angle_beta   94.59374367
_cell_angle_gamma   89.99996578
_symmetry_Int_Tables_number   1
_chemical_formula_structural   CdH5C4(NO2)3
_chemical_formula_sum   'Cd4 H20 C16 N12 O24'
_cell_volume   798.69502780
_cell_formula_units_Z   4
loop_
 _symmetry_equiv_pos_site_id
 _symmetry_equiv_pos_as_xyz
  1  'x, y, z'
loop_
 _atom_site_type_symbol
 _atom_site_label
 _atom_site_symmetry_multiplicity
 _atom_site_fract_x
 _atom_site_fract_y
 _atom_site_fract_z
 _atom_site_occupancy
 _atom_site_hle17_bader_spin_density
 _atom_site_hle17_ddec_charge
 _atom_site_hle17_ddec_spin_density
 _atom_site_hle17_ddec_sum_bond_order
 _atom_site_hle17_magmom
 _atom_site_hse06_10hf_bader_spin_density
 _atom_site_hse06_10hf_ddec_charge
 _atom_site_hse06_10hf_ddec_spin_density
 _atom_site_hse06_10hf_ddec_sum_bond_order
 _atom_site_hse06_10hf_magmom
 _atom_site_hse06_bader_spin_density
 _atom_site_hse06_ddec_charge
 _atom_site_hse06_ddec_spin_density
 _atom_site_hse06_ddec_sum_bond_order
 _atom_site_hse06_magmom
 _atom_site_pbe_bader_spin_density
 _atom_site_pbe_cm5_charge
 _atom_site_pbe_ddec_charge
 _atom_site_pbe_ddec_spin_density
 _atom_site_pbe_ddec_sum_bond_order
 _atom_site_pbe_magmom
Cd  Cd0  1  0.20071224  0.91524194  0.32349132  1  0  1.283909  0  1.608035  0  0  1.106571  0  2.063374  0  0  1.15862  0  2.005411  0  0  0.803461  1.067809  0  2.104908  0
Cd  Cd1  1  0.79929334  0.41524457  0.17650605  1  0  1.283887  0  1.608173  0  0  1.106554  0  2.063525  0  0  1.158602  0  2.005562  0  0  0.803431  1.067796  0  2.105078  0
Cd  Cd2  1  0.79928627  0.08475924  0.67650865  1  0  1.283895  0  1.608142  0  0  1.106547  0  2.063501  0  0  1.158595  0  2.00554  0  0  0.803466  1.067793  0  2.105064  0
Cd  Cd3  1  0.20071054  0.58475660  0.82349233  1  0  1.283848  0  1.608191  0  0  1.106513  0  2.063538  0  0  1.158563  0  2.005576  0  0  0.803429  1.067759  0  2.105083  0
H  H4  1  0.39205833  0.18894575  0.90758476  1  0  0.325498  0  0.913414  0  0  0.298481  0  0.985561  0  0  0.308394  0  0.977023  0  0  0.324599  0.291431  0  0.991766  0
H  H5  1  0.60794378  0.68894885  0.59242218  1  0  0.325469  0  0.913423  0  0  0.298489  0  0.985538  0  0  0.308406  0  0.976992  0  0  0.324597  0.291436  0  0.991753  0
H  H6  1  0.60794421  0.81105642  0.09241638  1  0  0.325461  0  0.913502  0  0  0.298465  0  0.985623  0  0  0.308377  0  0.977084  0  0  0.324613  0.291412  0  0.991832  0
H  H7  1  0.39205876  0.31105232  0.40758178  1  0  0.325422  0  0.913483  0  0  0.298408  0  0.985635  0  0  0.308322  0  0.977097  0  0  0.324561  0.291357  0  0.991842  0
H  H8  1  0.85059327  0.01251076  0.22644505  1  0  0.395858  0  0.918377  0  0  0.350923  0  1.004739  0  0  0.362089  0  0.988853  0  0  0.287787  0.34293  0  1.01609  0
H  H9  1  0.14940863  0.51251111  0.27356153  1  0  0.39597  0  0.918216  0  0  0.351039  0  1.004561  0  0  0.362207  0  0.988673  0  0  0.287866  0.343051  0  1.015907  0
H  H10  1  0.14940927  0.98749140  0.77355515  1  0  0.395875  0  0.918359  0  0  0.350935  0  1.004723  0  0  0.362102  0  0.988836  0  0  0.287791  0.342945  0  1.016073  0
H  H11  1  0.85059256  0.48748908  0.72644047  1  0  0.395955  0  0.918237  0  0  0.351034  0  1.004571  0  0  0.362201  0  0.988685  0  0  0.287869  0.343042  0  1.015924  0
H  H12  1  0.93062448  0.12034676  0.32734230  1  0  0.434188  0  0.866932  0  0  0.400347  0  0.933794  0  0  0.412264  0  0.916701  0  0  0.292839  0.391798  0  0.946064  0
H  H13  1  0.06937060  0.62034813  0.17266108  1  0  0.434177  0  0.866947  0  0  0.400336  0  0.933809  0  0  0.412252  0  0.91672  0  0  0.292846  0.391791  0  0.946074  0
H  H14  1  0.06937403  0.87965343  0.67265767  1  0  0.434201  0  0.866916  0  0  0.400366  0  0.933766  0  0  0.412282  0  0.916675  0  0  0.292854  0.391825  0  0.946025  0
H  H15  1  0.93062656  0.37965108  0.82733882  1  0  0.434164  0  0.866968  0  0  0.400313  0  0.933845  0  0  0.412231  0  0.916752  0  0  0.29284  0.391766  0  0.946113  0
H  H16  1  0.19502583  0.02567751  0.56981072  1  0  0.431014  0  0.871104  0  0  0.401202  0  0.931277  0  0  0.412393  0  0.915106  0  0  0.286712  0.393174  0  0.942876  0
H  H17  1  0.80497640  0.52567758  0.93018773  1  0  0.431001  0  0.871113  0  0  0.401195  0  0.931277  0  0  0.412385  0  0.915107  0  0  0.286705  0.393169  0  0.942873  0
H  H18  1  0.80497401  0.97432268  0.43018932  1  0  0.431039  0  0.87107  0  0  0.401234  0  0.931229  0  0  0.412425  0  0.91506  0  0  0.286727  0.393208  0  0.942826  0
H  H19  1  0.19502345  0.47432162  0.06981043  1  0  0.431012  0  0.871098  0  0  0.401201  0  0.931268  0  0  0.412393  0  0.915097  0  0  0.286701  0.393175  0  0.942865  0
H  H20  1  0.37023136  0.08965015  0.51759717  1  0  0.432639  0  0.863138  0  0  0.403812  0  0.922842  0  0  0.41409  0  0.90779  0  0  0.295275  0.396439  0  0.933697  0
H  H21  1  0.62977082  0.58964931  0.98240317  1  0  0.432649  0  0.863125  0  0  0.403818  0  0.922835  0  0  0.414095  0  0.907784  0  0  0.29528  0.396447  0  0.933688  0
H  H22  1  0.62976984  0.91035202  0.48240295  1  0  0.432634  0  0.863155  0  0  0.403817  0  0.922839  0  0  0.414094  0  0.907788  0  0  0.295271  0.396449  0  0.933686  0
H  H23  1  0.37022902  0.41034989  0.01759593  1  0  0.432586  0  0.863206  0  0  0.403777  0  0.922877  0  0  0.414053  0  0.907827  0  0  0.295273  0.39641  0  0.933721  0
C  C24  1  0.35562713  0.12120793  0.09898473  1  0  0.244285  0  3.662943  0  0  0.209517  0  3.937381  0  0  0.219908  0  3.948121  0  0  0.236173  0.202631  0  3.930134  0
C  C25  1  0.64437332  0.62120610  0.40101517  1  0  0.244192  0  3.662695  0  0  0.209497  0  3.937105  0  0  0.219852  0  3.947886  0  0  0.23615  0.202614  0  3.929864  0
C  C26  1  0.64437002  0.87879226  0.90101234  1  0  0.244343  0  3.662666  0  0  0.20954  0  3.93718  0  0  0.219932  0  3.947911  0  0  0.236176  0.202651  0  3.929944  0
C  C27  1  0.35562518  0.37879113  0.59898197  1  0  0.244329  0  3.662822  0  0  0.209602  0  3.937213  0  0  0.219953  0  3.948022  0  0  0.23619  0.202701  0  3.929995  0
C  C28  1  0.45263673  0.22365050  0.18074992  1  0  0.623923  0  3.954152  0  0  0.572475  0  4.256744  0  0  0.606063  0  4.246268  0  0  0.223285  0.549486  0  4.263575  0
C  C29  1  0.54736501  0.72365364  0.31926137  1  0  0.623872  0  3.954232  0  0  0.572374  0  4.256891  0  0  0.605982  0  4.246407  0  0  0.223256  0.549389  0  4.263711  0
C  C30  1  0.54736446  0.77634969  0.81924643  1  0  0.623805  0  3.954228  0  0  0.572366  0  4.256827  0  0  0.605954  0  4.246352  0  0  0.223244  0.54938  0  4.263664  0
C  C31  1  0.45263620  0.27634951  0.68074629  1  0  0.623933  0  3.954317  0  0  0.572495  0  4.256873  0  0  0.606081  0  4.246427  0  0  0.223362  0.549519  0  4.263699  0
C  C32  1  0.21423975  0.94824830  0.03135786  1  0  0.174021  0  3.76256  0  0  0.149324  0  4.047831  0  0  0.154156  0  4.063262  0  0  0.21011  0.145927  0  4.03737  0
C  C33  1  0.78575908  0.44824799  0.46864196  1  0  0.173907  0  3.762621  0  0  0.149314  0  4.047809  0  0  0.154146  0  4.063236  0  0  0.21011  0.145923  0  4.037343  0
C  C34  1  0.78576279  0.05175189  0.96864044  1  0  0.174085  0  3.762396  0  0  0.149507  0  4.047575  0  0  0.154337  0  4.063007  0  0  0.210169  0.146111  0  4.037111  0
C  C35  1  0.21424077  0.55175121  0.53135903  1  0  0.173909  0  3.762552  0  0  0.149258  0  4.047803  0  0  0.154089  0  4.063237  0  0  0.210096  0.145865  0  4.037335  0
C  C36  1  0.12137955  0.81717968  0.03444743  1  0  0.6348  0  3.935752  0  0  0.577925  0  4.243558  0  0  0.612235  0  4.234634  0  0  0.217501  0.554284  0  4.248995  0
C  C37  1  0.87861805  0.31718031  0.46555326  1  0  0.634815  0  3.93573  0  0  0.577897  0  4.243591  0  0  0.612208  0  4.234668  0  0  0.217469  0.554267  0  4.249014  0
C  C38  1  0.87861893  0.18281755  0.96554311  1  0  0.634782  0  3.935611  0  0  0.5778  0  4.24355  0  0  0.612111  0  4.234626  0  0  0.217364  0.554168  0  4.248972  0
C  C39  1  0.12138045  0.68282185  0.53444388  1  0  0.634848  0  3.935738  0  0  0.577925  0  4.243616  0  0  0.612235  0  4.234696  0  0  0.217465  0.554287  0  4.249048  0
N  N40  1  0.27494798  0.01273306  0.13858804  1  0  -0.4477  0  3.209811  0  0  -0.392455  0  3.496753  0  0  -0.411812  0  3.509494  0  0  -0.333254  -0.378692  0  3.487515  0
N  N41  1  0.72505121  0.51273119  0.36140990  1  0  -0.447659  0  3.209724  0  0  -0.392448  0  3.496619  0  0  -0.411794  0  3.509368  0  0  -0.333263  -0.37869  0  3.487392  0
N  N42  1  0.72505052  0.98726614  0.86140910  1  0  -0.447852  0  3.209773  0  0  -0.392614  0  3.496704  0  0  -0.411971  0  3.509441  0  0  -0.333317  -0.378853  0  3.487477  0
N  N43  1  0.27494998  0.48726703  0.63859022  1  0  -0.447691  0  3.209702  0  0  -0.392461  0  3.496613  0  0  -0.411806  0  3.509372  0  0  -0.333258  -0.378697  0  3.487388  0
N  N44  1  0.34235001  0.12063622  0.97129163  1  0  -0.158656  0  3.381986  0  0  -0.102063  0  3.617979  0  0  -0.114679  0  3.63332  0  0  -0.234577  -0.093706  0  3.608057  0
N  N45  1  0.65764946  0.62063930  0.52871233  1  0  -0.158552  0  3.381599  0  0  -0.102029  0  3.617641  0  0  -0.114638  0  3.632988  0  0  -0.234588  -0.093672  0  3.607732  0
N  N46  1  0.65764715  0.87935805  0.02871109  1  0  -0.158521  0  3.381528  0  0  -0.101945  0  3.617589  0  0  -0.114559  0  3.63292  0  0  -0.234572  -0.093585  0  3.607668  0
N  N47  1  0.34235039  0.37936286  0.47128960  1  0  -0.158554  0  3.381815  0  0  -0.101988  0  3.617817  0  0  -0.114592  0  3.633171  0  0  -0.23455  -0.093627  0  3.607897  0
N  N48  1  0.25378139  0.01236772  0.92683462  1  0  -0.206379  0  2.942708  0  0  -0.181342  0  3.204394  0  0  -0.187974  0  3.217641  0  0  -0.189759  -0.176539  0  3.195591  0
N  N49  1  0.74621817  0.51236879  0.57316651  1  0  -0.206308  0  2.942597  0  0  -0.181338  0  3.204323  0  0  -0.187969  0  3.217569  0  0  -0.18972  -0.176535  0  3.195524  0
N  N50  1  0.74622114  0.98763050  0.07316274  1  0  -0.206384  0  2.942401  0  0  -0.181408  0  3.204112  0  0  -0.188039  0  3.217355  0  0  -0.189754  -0.176597  0  3.195298  0
N  N51  1  0.25378169  0.48763239  0.42683447  1  0  -0.206322  0  2.942641  0  0  -0.181294  0  3.204324  0  0  -0.187925  0  3.21757  0  0  -0.189722  -0.176486  0  3.19551  0
O  O52  1  0.45290829  0.20939869  0.29795003  1  0  -0.563839  0  1.961688  0  0  -0.523089  0  2.186654  0  0  -0.544648  0  2.175896  0  0  -0.302756  -0.508109  0  2.193836  0
O  O53  1  0.54708805  0.70940282  0.20204965  1  0  -0.563905  0  1.961366  0  0  -0.523128  0  2.186363  0  0  -0.544694  0  2.1756  0  0  -0.30276  -0.508145  0  2.193539  0
O  O54  1  0.54709291  0.79059952  0.70205292  1  0  -0.56371  0  1.961855  0  0  -0.522981  0  2.186821  0  0  -0.544541  0  2.176064  0  0  -0.302683  -0.507999  0  2.194006  0
O  O55  1  0.45290909  0.29059638  0.79794082  1  0  -0.5639  0  1.961794  0  0  -0.523151  0  2.18678  0  0  -0.544702  0  2.176024  0  0  -0.302806  -0.508173  0  2.193961  0
O  O56  1  0.52723687  0.31420718  0.11886968  1  0  -0.668244  0  2.071875  0  0  -0.602502  0  2.324923  0  0  -0.63036  0  2.310827  0  0  -0.323335  -0.583279  0  2.334754  0
O  O57  1  0.47276881  0.81420739  0.38113241  1  0  -0.668183  0  2.072144  0  0  -0.602451  0  2.32524  0  0  -0.630298  0  2.311111  0  0  -0.323323  -0.583229  0  2.335062  0
O  O58  1  0.47275895  0.68579103  0.88112920  1  0  -0.668292  0  2.071759  0  0  -0.602523  0  2.324801  0  0  -0.630377  0  2.310692  0  0  -0.323363  -0.583296  0  2.334637  0
O  O59  1  0.52723642  0.18578885  0.61886605  1  0  -0.668298  0  2.071873  0  0  -0.602586  0  2.324957  0  0  -0.630427  0  2.310832  0  0  -0.323412  -0.583357  0  2.334784  0
O  O60  1  0.09136478  0.77704790  0.14496349  1  0  -0.625347  0  2.029171  0  0  -0.55979  0  2.268412  0  0  -0.587697  0  2.255965  0  0  -0.303801  -0.539745  0  2.276733  0
O  O61  1  0.90863688  0.27704754  0.35503554  1  0  -0.62532  0  2.029104  0  0  -0.559796  0  2.26836  0  0  -0.587704  0  2.255911  0  0  -0.303784  -0.53975  0  2.276677  0
O  O62  1  0.90863642  0.22295130  0.85503945  1  0  -0.625145  0  2.029352  0  0  -0.559546  0  2.268595  0  0  -0.58745  0  2.256148  0  0  -0.303634  -0.539509  0  2.276918  0
O  O63  1  0.09136297  0.72295562  0.64496357  1  0  -0.62532  0  2.029057  0  0  -0.559793  0  2.268319  0  0  -0.587703  0  2.255874  0  0  -0.303764  -0.539749  0  2.276639  0
O  O64  1  0.08090352  0.75978440  0.93092653  1  0  -0.617051  0  2.002327  0  0  -0.559387  0  2.256199  0  0  -0.585089  0  2.243787  0  0  -0.325951  -0.540779  0  2.264638  0
O  O65  1  0.91909314  0.25978303  0.56907257  1  0  -0.617103  0  2.002304  0  0  -0.559398  0  2.256244  0  0  -0.585097  0  2.243832  0  0  -0.325946  -0.540795  0  2.264686  0
O  O66  1  0.91910037  0.24022073  0.06907846  1  0  -0.617281  0  2.00194  0  0  -0.559555  0  2.255868  0  0  -0.585261  0  2.243457  0  0  -0.326005  -0.540941  0  2.264301  0
O  O67  1  0.08090537  0.74021617  0.43092834  1  0  -0.617109  0  2.002433  0  0  -0.559395  0  2.256357  0  0  -0.585091  0  2.243944  0  0  -0.325943  -0.540785  0  2.264791  0
O  O68  1  0.91968878  0.02223117  0.31071570  1  0  -0.836932  0  1.957671  0  0  -0.759462  0  2.15869  0  0  -0.784947  0  2.123728  0  0  -0.565194  -0.741305  0  2.183342  0
O  O69  1  0.08030907  0.52223253  0.18928971  1  0  -0.837046  0  1.957553  0  0  -0.759578  0  2.15858  0  0  -0.785063  0  2.123615  0  0  -0.565291  -0.741425  0  2.183227  0
O  O70  1  0.08030972  0.97776902  0.68928521  1  0  -0.836973  0  1.95768  0  0  -0.759493  0  2.158701  0  0  -0.784978  0  2.123739  0  0  -0.565208  -0.741338  0  2.183349  0
O  O71  1  0.91969212  0.47776766  0.81071135  1  0  -0.837007  0  1.957573  0  0  -0.759535  0  2.15859  0  0  -0.78502  0  2.123625  0  0  -0.565272  -0.741373  0  2.183239  0
O  O72  1  0.25262610  0.05007334  0.49088499  1  0  -0.855923  0  1.876722  0  0  -0.790429  0  2.077125  0  0  -0.812958  0  2.041708  0  0  -0.599098  -0.773723  0  2.102232  0
O  O73  1  0.74737710  0.55007441  0.00911413  1  0  -0.855912  0  1.876782  0  0  -0.790421  0  2.077191  0  0  -0.812946  0  2.041774  0  0  -0.599082  -0.773716  0  2.102301  0
O  O74  1  0.74737645  0.94992784  0.50911615  1  0  -0.85593  0  1.876738  0  0  -0.790444  0  2.077147  0  0  -0.812971  0  2.041729  0  0  -0.599097  -0.773741  0  2.102254  0
O  O75  1  0.25262275  0.44992578  0.99088498  1  0  -0.855854  0  1.876826  0  0  -0.790373  0  2.077228  0  0  -0.812898  0  2.041813  0  0  -0.599071  -0.773674  0  2.102331  0
