# generated using pymatgen
data_NaYH16(C3O2)6
_symmetry_space_group_name_H-M   'P 1'
_cell_length_a   6.79323160
_cell_length_b   7.46900944
_cell_length_c   19.85589641
_cell_angle_alpha   90.00016466
_cell_angle_beta   99.85219330
_cell_angle_gamma   89.99963008
_symmetry_Int_Tables_number   1
_chemical_formula_structural   NaYH16(C3O2)6
_chemical_formula_sum   'Na2 Y2 H32 C36 O24'
_cell_volume   992.60497162
_cell_formula_units_Z   2
loop_
 _symmetry_equiv_pos_site_id
 _symmetry_equiv_pos_as_xyz
  1  'x, y, z'
loop_
 _atom_site_type_symbol
 _atom_site_label
 _atom_site_symmetry_multiplicity
 _atom_site_fract_x
 _atom_site_fract_y
 _atom_site_fract_z
 _atom_site_occupancy
 _atom_site_hle17_bader_spin_density
 _atom_site_hle17_ddec_charge
 _atom_site_hle17_ddec_spin_density
 _atom_site_hle17_ddec_sum_bond_order
 _atom_site_hle17_magmom
 _atom_site_hse06_10hf_bader_spin_density
 _atom_site_hse06_10hf_ddec_charge
 _atom_site_hse06_10hf_ddec_spin_density
 _atom_site_hse06_10hf_ddec_sum_bond_order
 _atom_site_hse06_10hf_magmom
 _atom_site_hse06_bader_spin_density
 _atom_site_hse06_ddec_charge
 _atom_site_hse06_ddec_spin_density
 _atom_site_hse06_ddec_sum_bond_order
 _atom_site_hse06_magmom
 _atom_site_pbe_bader_spin_density
 _atom_site_pbe_cm5_charge
 _atom_site_pbe_ddec_charge
 _atom_site_pbe_ddec_spin_density
 _atom_site_pbe_ddec_sum_bond_order
 _atom_site_pbe_magmom
Na  Na0  1  0.33699861  0.74992837  0.67296464  1  0  0.922759  0  0.35662  0  0  0.892305  0  0.489948  0  0  0.901345  0  0.469188  0  0  0.699953  0.885334  0  0.505227  0
Na  Na1  1  0.66299385  0.24991865  0.32703438  1  0  0.922759  0  0.356616  0  0  0.892323  0  0.489925  0  0  0.901367  0  0.469168  0  0  0.699962  0.885352  0  0.505202  0
Y  Y2  1  0.20701397  0.24990026  0.41450525  1  0  1.966283  0  2.010503  0  0  1.770707  0  2.516164  0  0  1.840892  0  2.453119  0  0  1.309556  1.719841  0  2.559813  0
Y  Y3  1  0.79297997  0.74990659  0.58549537  1  0  1.966267  0  2.010379  0  0  1.770747  0  2.515974  0  0  1.840878  0  2.453028  0  0  1.309585  1.719872  0  2.559618  0
H  H4  1  0.39165308  0.35044899  0.18930813  1  0  0.108966  0  0.963872  0  0  0.118066  0  1.026515  0  0  0.121661  0  1.023595  0  0  0.1095  0.115439  0  1.028695  0
H  H5  1  0.20386012  0.64961077  0.81085164  1  0  0.108221  0  0.96509  0  0  0.117195  0  1.02783  0  0  0.120768  0  1.024963  0  0  0.108922  0.114584  0  1.02997  0
H  H6  1  0.79614347  0.14960857  0.18914541  1  0  0.108181  0  0.96519  0  0  0.11721  0  1.02784  0  0  0.120785  0  1.024972  0  0  0.108949  0.114597  0  1.029985  0
H  H7  1  0.60833721  0.85044745  0.81068936  1  0  0.10887  0  0.963868  0  0  0.118018  0  1.026479  0  0  0.12161  0  1.023562  0  0  0.109482  0.115388  0  1.028664  0
H  H8  1  0.32644468  0.35389761  0.06228805  1  0  0.084031  0  0.951913  0  0  0.095936  0  1.010899  0  0  0.098853  0  1.010015  0  0  0.097006  0.093867  0  1.011602  0
H  H9  1  0.26534133  0.64600284  0.93782549  1  0  0.084885  0  0.950811  0  0  0.097175  0  1.00932  0  0  0.100101  0  1.00842  0  0  0.097661  0.095094  0  1.010036  0
H  H10  1  0.73465182  0.14600135  0.06217346  1  0  0.084857  0  0.950804  0  0  0.097122  0  1.009332  0  0  0.100049  0  1.008436  0  0  0.097654  0.095043  0  1.010046  0
H  H11  1  0.67354856  0.85388997  0.93771263  1  0  0.084075  0  0.951937  0  0  0.095972  0  1.010926  0  0  0.09889  0  1.01004  0  0  0.097023  0.093905  0  1.011628  0
H  H12  1  0.28109477  0.14922084  0.96888022  1  0  0.083644  0  0.956063  0  0  0.095477  0  1.016562  0  0  0.098477  0  1.015175  0  0  0.097903  0.093342  0  1.017628  0
H  H13  1  0.31264516  0.85080411  0.03113738  1  0  0.083735  0  0.956161  0  0  0.095455  0  1.016733  0  0  0.098514  0  1.015274  0  0  0.09768  0.093288  0  1.017829  0
H  H14  1  0.68733917  0.35079790  0.96885825  1  0  0.083729  0  0.956127  0  0  0.095431  0  1.016715  0  0  0.098508  0  1.015237  0  0  0.097674  0.093262  0  1.017813  0
H  H15  1  0.71891926  0.64920589  0.03112248  1  0  0.083707  0  0.95606  0  0  0.095525  0  1.016574  0  0  0.098524  0  1.015188  0  0  0.097938  0.09339  0  1.017639  0
H  H16  1  0.21707241  0.14727115  0.84225716  1  0  0.094445  0  0.959729  0  0  0.104154  0  1.021919  0  0  0.10747  0  1.019475  0  0  0.104857  0.101748  0  1.023712  0
H  H17  1  0.37513875  0.85312601  0.15772842  1  0  0.094795  0  0.95867  0  0  0.104725  0  1.020648  0  0  0.108072  0  1.018135  0  0  0.105217  0.102297  0  1.022491  0
H  H18  1  0.62487246  0.35311116  0.84226829  1  0  0.094746  0  0.958919  0  0  0.104746  0  1.020795  0  0  0.108091  0  1.018284  0  0  0.105273  0.102318  0  1.022636  0
H  H19  1  0.78293866  0.64725011  0.15774184  1  0  0.094319  0  0.959887  0  0  0.104053  0  1.022039  0  0  0.107366  0  1.019608  0  0  0.104876  0.101646  0  1.023832  0
H  H20  1  0.44257400  0.73198901  0.43621834  1  0  0.100795  0  0.930381  0  0  0.106586  0  0.990418  0  0  0.110214  0  0.987043  0  0  0.130507  0.103935  0  0.99308  0
H  H21  1  0.00559552  0.26798015  0.56377429  1  0  0.100885  0  0.930331  0  0  0.106883  0  0.990406  0  0  0.110398  0  0.98712  0  0  0.130785  0.104315  0  0.992944  0
H  H22  1  0.99440278  0.76797742  0.43622761  1  0  0.100842  0  0.930372  0  0  0.106792  0  0.990467  0  0  0.110304  0  0.98718  0  0  0.13077  0.104225  0  0.993006  0
H  H23  1  0.55741854  0.23199114  0.56378671  1  0  0.100907  0  0.930353  0  0  0.106697  0  0.990326  0  0  0.110324  0  0.986951  0  0  0.130544  0.104043  0  0.992993  0
H  H24  1  0.28045138  0.88321401  0.34453376  1  0  0.396496  0  0.897695  0  0  0.364068  0  0.976851  0  0  0.376493  0  0.963332  0  0  0.306638  0.355286  0  0.986324  0
H  H25  1  0.93564306  0.11669797  0.65547138  1  0  0.395667  0  0.898268  0  0  0.363936  0  0.976268  0  0  0.376428  0  0.962644  0  0  0.305957  0.355155  0  0.985743  0
H  H26  1  0.06436223  0.61669203  0.34452876  1  0  0.395603  0  0.898323  0  0  0.363935  0  0.976231  0  0  0.376419  0  0.962614  0  0  0.305953  0.355157  0  0.985707  0
H  H27  1  0.71955812  0.38321053  0.65546540  1  0  0.396447  0  0.897795  0  0  0.36402  0  0.97695  0  0  0.376446  0  0.963427  0  0  0.306604  0.355239  0  0.98642  0
H  H28  1  0.48058777  0.40898203  0.73569548  1  0  0.414888  0  0.892182  0  0  0.384459  0  0.956024  0  0  0.394572  0  0.940911  0  0  0.288359  0.377253  0  0.966811  0
H  H29  1  0.74430785  0.59088975  0.26436747  1  0  0.415769  0  0.890748  0  0  0.385164  0  0.95488  0  0  0.395308  0  0.93971  0  0  0.288525  0.377971  0  0.965649  0
H  H30  1  0.25569760  0.09089099  0.73563567  1  0  0.415854  0  0.890634  0  0  0.385229  0  0.954801  0  0  0.39538  0  0.939619  0  0  0.288496  0.378029  0  0.965582  0
H  H31  1  0.51941708  0.90897812  0.26430343  1  0  0.414861  0  0.892227  0  0  0.384425  0  0.956082  0  0  0.394539  0  0.940965  0  0  0.288347  0.377217  0  0.96687  0
H  H32  1  0.24558221  0.39753272  0.72693254  1  0  0.416188  0  0.874779  0  0  0.389147  0  0.933159  0  0  0.398006  0  0.919979  0  0  0.296824  0.382895  0  0.942471  0
H  H33  1  0.51807001  0.60271934  0.27312574  1  0  0.41667  0  0.874402  0  0  0.3893  0  0.932916  0  0  0.398156  0  0.919759  0  0  0.296758  0.383032  0  0.942235  0
H  H34  1  0.48193238  0.10271113  0.72687472  1  0  0.416642  0  0.874559  0  0  0.389271  0  0.932983  0  0  0.398127  0  0.919828  0  0  0.296734  0.383002  0  0.942302  0
H  H35  1  0.75442421  0.89753149  0.27306595  1  0  0.416143  0  0.874767  0  0  0.389107  0  0.933194  0  0  0.397962  0  0.920019  0  0  0.296816  0.382856  0  0.942503  0
C  C36  1  0.13575308  0.24990126  0.27278125  1  0  0.669518  0  3.876007  0  0  0.625736  0  4.159982  0  0  0.659732  0  4.153997  0  0  0.209721  0.602682  0  4.163266  0
C  C37  1  0.86424385  0.74990291  0.72721904  1  0  0.669627  0  3.875862  0  0  0.625889  0  4.159824  0  0  0.659883  0  4.153839  0  0  0.209844  0.602834  0  4.163105  0
C  C38  1  0.09782815  0.24990778  0.19701741  1  0  -0.071261  0  3.750655  0  0  -0.054934  0  3.993414  0  0  -0.06431  0  4.016883  0  0  -0.017265  -0.048948  0  3.977675  0
C  C39  1  0.90216580  0.74990711  0.80298170  1  0  -0.071235  0  3.750514  0  0  -0.054985  0  3.993367  0  0  -0.064363  0  4.016839  0  0  -0.017273  -0.048992  0  3.977621  0
C  C40  1  0.24847122  0.30449408  0.16114110  1  0  -0.053212  0  3.714171  0  0  -0.076262  0  3.96147  0  0  -0.074838  0  3.981665  0  0  -0.076397  -0.076901  0  3.947681  0
C  C41  1  0.08868455  0.69555708  0.83894643  1  0  -0.053041  0  3.71417  0  0  -0.075734  0  3.96142  0  0  -0.074322  0  3.981635  0  0  -0.075041  -0.07637  0  3.947626  0
C  C42  1  0.91131276  0.19555531  0.16105131  1  0  -0.053034  0  3.714007  0  0  -0.075788  0  3.961205  0  0  -0.074376  0  3.981417  0  0  -0.07504  -0.076424  0  3.947412  0
C  C43  1  0.75151788  0.80448789  0.83885879  1  0  -0.053014  0  3.714161  0  0  -0.076063  0  3.961448  0  0  -0.074638  0  3.981646  0  0  -0.076344  -0.076704  0  3.947661  0
C  C44  1  0.21179561  0.30527447  0.09008859  1  0  -0.115049  0  3.744008  0  0  -0.132779  0  3.992684  0  0  -0.138249  0  4.015263  0  0  -0.088424  -0.129154  0  3.977275  0
C  C45  1  0.12299422  0.69487041  0.91000603  1  0  -0.115391  0  3.741424  0  0  -0.133439  0  3.990181  0  0  -0.138909  0  4.012754  0  0  -0.088852  -0.129805  0  3.974778  0
C  C46  1  0.87699861  0.19487499  0.08999043  1  0  -0.115256  0  3.741146  0  0  -0.133294  0  3.989868  0  0  -0.138769  0  4.012445  0  0  -0.088818  -0.129661  0  3.974462  0
C  C47  1  0.78819200  0.80526460  0.90990920  1  0  -0.115236  0  3.74439  0  0  -0.132951  0  3.993132  0  0  -0.13842  0  4.01571  0  0  -0.088508  -0.129326  0  3.977728  0
C  C48  1  0.02616530  0.25004400  0.05334929  1  0  0.057599  0  3.785129  0  0  0.071169  0  4.017887  0  0  0.072927  0  4.041946  0  0  -0.001574  0.070137  0  4.001451  0
C  C49  1  0.97382417  0.75003598  0.94664855  1  0  0.057744  0  3.784928  0  0  0.071249  0  4.017783  0  0  0.073  0  4.041852  0  0  -0.001455  0.070214  0  4.001346  0
C  C50  1  0.98877032  0.25008623  0.97802217  1  0  0.066224  0  3.771637  0  0  0.079327  0  4.003756  0  0  0.081256  0  4.026873  0  0  -0.000258  0.078169  0  3.987954  0
C  C51  1  0.01122661  0.75007944  0.02197712  1  0  0.066271  0  3.771549  0  0  0.079418  0  4.003668  0  0  0.081357  0  4.026763  0  0  -0.00025  0.078264  0  3.987864  0
C  C52  1  0.13777132  0.19594221  0.94113396  1  0  -0.117452  0  3.743752  0  0  -0.135112  0  3.992366  0  0  -0.140071  0  4.014228  0  0  -0.089092  -0.131805  0  3.977418  0
C  C53  1  0.19700244  0.80433656  0.05889223  1  0  -0.118073  0  3.743694  0  0  -0.135759  0  3.992359  0  0  -0.140777  0  4.014218  0  0  -0.088996  -0.132422  0  3.97745  0
C  C54  1  0.80299712  0.30433614  0.94110727  1  0  -0.117912  0  3.743823  0  0  -0.135583  0  3.992504  0  0  -0.140617  0  4.014361  0  0  -0.088929  -0.132246  0  3.977594  0
C  C55  1  0.86224389  0.69593198  0.05886837  1  0  -0.117576  0  3.74396  0  0  -0.135243  0  3.992625  0  0  -0.140206  0  4.014491  0  0  -0.089107  -0.131935  0  3.977674  0
C  C56  1  0.10216258  0.19436620  0.87012844  1  0  -0.048351  0  3.738134  0  0  -0.072856  0  3.986364  0  0  -0.071666  0  4.007403  0  0  -0.077629  -0.073351  0  3.971944  0
C  C57  1  0.23236159  0.80589249  0.12989657  1  0  -0.047464  0  3.736503  0  0  -0.072047  0  3.984446  0  0  -0.070852  0  4.005528  0  0  -0.077111  -0.072558  0  3.970021  0
C  C58  1  0.76764393  0.30589173  0.87010429  1  0  -0.047552  0  3.736791  0  0  -0.072188  0  3.984723  0  0  -0.070992  0  4.005813  0  0  -0.077208  -0.072697  0  3.970293  0
C  C59  1  0.89784816  0.69435497  0.12987311  1  0  -0.04814  0  3.738003  0  0  -0.072663  0  3.986256  0  0  -0.071475  0  4.007294  0  0  -0.077646  -0.073158  0  3.971838  0
C  C60  1  0.91673237  0.25005107  0.83379549  1  0  -0.08951  0  3.780118  0  0  -0.069495  0  4.024015  0  0  -0.079479  0  4.049574  0  0  -0.022347  -0.063025  0  4.006722  0
C  C61  1  0.08328099  0.75005167  0.16620577  1  0  -0.089665  0  3.780001  0  0  -0.069611  0  4.023928  0  0  -0.079594  0  4.049494  0  0  -0.02241  -0.063147  0  4.00664  0
C  C62  1  0.87880471  0.24997725  0.75770716  1  0  0.671841  0  3.836071  0  0  0.612033  0  4.138257  0  0  0.646108  0  4.130982  0  0  0.229562  0.589073  0  4.142359  0
C  C63  1  0.12120716  0.74997419  0.24229402  1  0  0.672017  0  3.835848  0  0  0.612134  0  4.138166  0  0  0.646189  0  4.130895  0  0  0.229641  0.589172  0  4.142273  0
C  C64  1  0.31266929  0.81331078  0.44337168  1  0  0.052268  0  3.601788  0  0  0.026313  0  3.850453  0  0  0.027833  0  3.855654  0  0  0.00447  0.025025  0  3.847289  0
C  C65  1  0.86863481  0.18653436  0.55661159  1  0  0.05116  0  3.602412  0  0  0.024029  0  3.852527  0  0  0.02573  0  3.857516  0  0  0.004587  0.022711  0  3.849344  0
C  C66  1  0.13136404  0.68653012  0.44338875  1  0  0.050967  0  3.602512  0  0  0.024054  0  3.852536  0  0  0.025759  0  3.857527  0  0  0.004568  0.022741  0  3.849347  0
C  C67  1  0.68732124  0.31330806  0.55662931  1  0  0.051948  0  3.60173  0  0  0.026189  0  3.850437  0  0  0.02772  0  3.855605  0  0  0.004404  0.024893  0  3.847269  0
C  C68  1  0.36472270  0.91397216  0.51073378  1  0  0.697017  0  3.823598  0  0  0.640548  0  4.130564  0  0  0.675851  0  4.120264  0  0  0.238609  0.616368  0  4.137065  0
C  C69  1  0.85349705  0.08587688  0.48926313  1  0  0.697533  0  3.823974  0  0  0.641257  0  4.131072  0  0  0.676522  0  4.1208  0  0  0.239028  0.617103  0  4.13754  0
C  C70  1  0.14649649  0.58587308  0.51073779  1  0  0.697971  0  3.82339  0  0  0.641433  0  4.130804  0  0  0.6767  0  4.120528  0  0  0.239076  0.61728  0  4.137265  0
C  C71  1  0.63526117  0.41397592  0.48926843  1  0  0.697176  0  3.823344  0  0  0.640273  0  4.130929  0  0  0.675575  0  4.120631  0  0  0.238522  0.616113  0  4.137396  0
O  O72  1  0.99048445  0.23650752  0.30604651  1  0  -0.712948  0  1.983416  0  0  -0.657677  0  2.22797  0  0  -0.684544  0  2.218079  0  0  -0.421179  -0.638802  0  2.234221  0
O  O73  1  0.68560972  0.76339774  0.69399853  1  0  -0.713927  0  1.981267  0  0  -0.658192  0  2.225387  0  0  -0.685147  0  2.215643  0  0  -0.421329  -0.639258  0  2.231536  0
O  O74  1  0.31438115  0.26340198  0.30600042  1  0  -0.713934  0  1.981466  0  0  -0.658187  0  2.225618  0  0  -0.685144  0  2.215868  0  0  -0.421313  -0.639252  0  2.23177  0
O  O75  1  0.00950509  0.73650328  0.69395484  1  0  -0.71302  0  1.983396  0  0  -0.65776  0  2.227934  0  0  -0.684615  0  2.218039  0  0  -0.421274  -0.638891  0  2.234187  0
O  O76  1  0.70457153  0.29192431  0.72567367  1  0  -0.645325  0  2.023574  0  0  -0.57248  0  2.237639  0  0  -0.598453  0  2.226872  0  0  -0.300826  -0.554386  0  2.244604  0
O  O77  1  0.97899280  0.70798628  0.27431065  1  0  -0.646511  0  2.022878  0  0  -0.57371  0  2.236637  0  0  -0.599789  0  2.225917  0  0  -0.301346  -0.55569  0  2.243681  0
O  O78  1  0.02101189  0.20799285  0.72568855  1  0  -0.64653  0  2.023105  0  0  -0.573661  0  2.236767  0  0  -0.599801  0  2.226087  0  0  -0.301295  -0.555637  0  2.243806  0
O  O79  1  0.29543259  0.79192448  0.27432860  1  0  -0.645436  0  2.023696  0  0  -0.572535  0  2.237781  0  0  -0.598519  0  2.227046  0  0  -0.300839  -0.554432  0  2.244746  0
O  O80  1  0.26983091  0.94321146  0.39001332  1  0  -0.621814  0  2.167352  0  0  -0.562268  0  2.415458  0  0  -0.582391  0  2.402467  0  0  -0.426173  -0.547731  0  2.424095  0
O  O81  1  0.87944455  0.05667260  0.60999207  1  0  -0.620717  0  2.167336  0  0  -0.561531  0  2.414934  0  0  -0.581716  0  2.401894  0  0  -0.426076  -0.546966  0  2.423535  0
O  O82  1  0.12055516  0.55666801  0.39000868  1  0  -0.620648  0  2.167467  0  0  -0.561536  0  2.414962  0  0  -0.581725  0  2.401922  0  0  -0.426081  -0.546974  0  2.423566  0
O  O83  1  0.73016623  0.44320890  0.60998618  1  0  -0.621773  0  2.167569  0  0  -0.56225  0  2.415632  0  0  -0.582369  0  2.402638  0  0  -0.426149  -0.54771  0  2.42426  0
O  O84  1  0.46478643  0.83270560  0.56185990  1  0  -0.727206  0  2.058526  0  0  -0.675192  0  2.331881  0  0  -0.702568  0  2.317316  0  0  -0.406977  -0.655818  0  2.341318  0
O  O85  1  0.90243080  0.16725547  0.43815722  1  0  -0.727099  0  2.05834  0  0  -0.674649  0  2.331168  0  0  -0.702143  0  2.316813  0  0  -0.406467  -0.655212  0  2.340468  0
O  O86  1  0.09756371  0.66725905  0.56183881  1  0  -0.72716  0  2.05822  0  0  -0.674635  0  2.331155  0  0  -0.702121  0  2.3168  0  0  -0.406462  -0.6552  0  2.340449  0
O  O87  1  0.53520098  0.33269081  0.43814143  1  0  -0.727272  0  2.058482  0  0  -0.675066  0  2.332007  0  0  -0.702455  0  2.317442  0  0  -0.406873  -0.655698  0  2.341435  0
O  O88  1  0.30456311  0.07344456  0.51242638  1  0  -0.635223  0  2.036487  0  0  -0.572596  0  2.279534  0  0  -0.60049  0  2.269385  0  0  -0.337817  -0.553144  0  2.286029  0
O  O89  1  0.79197220  0.92631782  0.48757357  1  0  -0.635196  0  2.035893  0  0  -0.572434  0  2.278886  0  0  -0.600289  0  2.268774  0  0  -0.337919  -0.553002  0  2.285348  0
O  O90  1  0.20801907  0.42630154  0.51242708  1  0  -0.635448  0  2.035615  0  0  -0.57254  0  2.27866  0  0  -0.600405  0  2.268547  0  0  -0.337918  -0.553109  0  2.285119  0
O  O91  1  0.69541704  0.57343464  0.48757776  1  0  -0.635184  0  2.036503  0  0  -0.572385  0  2.279695  0  0  -0.60027  0  2.269551  0  0  -0.337787  -0.552941  0  2.286179  0
O  O92  1  0.35831656  0.48089019  0.73416505  1  0  -0.868172  0  1.770753  0  0  -0.830802  0  1.929657  0  0  -0.845097  0  1.898252  0  0  -0.654769  -0.820601  0  1.951746  0
O  O93  1  0.62349376  0.51917914  0.26597264  1  0  -0.869349  0  1.768969  0  0  -0.831399  0  1.929072  0  0  -0.845714  0  1.897545  0  0  -0.654897  -0.821184  0  1.951243  0
O  O94  1  0.37651963  0.01917830  0.73403090  1  0  -0.869402  0  1.769072  0  0  -0.831437  0  1.929125  0  0  -0.84574  0  1.897559  0  0  -0.654825  -0.821219  0  1.951305  0
O  O95  1  0.64168631  0.98088689  0.26583382  1  0  -0.86809  0  1.770749  0  0  -0.830708  0  1.929681  0  0  -0.84501  0  1.898297  0  0  -0.654752  -0.820502  0  1.95177  0
