# generated using pymatgen
data_Y3H20(C14O9)2
_symmetry_space_group_name_H-M   'P 1'
_cell_length_a   11.49111835
_cell_length_b   11.93445827
_cell_length_c   12.88130358
_cell_angle_alpha   85.60202498
_cell_angle_beta   66.93127539
_cell_angle_gamma   72.04920477
_symmetry_Int_Tables_number   1
_chemical_formula_structural   Y3H20(C14O9)2
_chemical_formula_sum   'Y6 H40 C56 O36'
_cell_volume   1544.20616483
_cell_formula_units_Z   2
loop_
 _symmetry_equiv_pos_site_id
 _symmetry_equiv_pos_as_xyz
  1  'x, y, z'
loop_
 _atom_site_type_symbol
 _atom_site_label
 _atom_site_symmetry_multiplicity
 _atom_site_fract_x
 _atom_site_fract_y
 _atom_site_fract_z
 _atom_site_occupancy
 _atom_site_hle17_bader_spin_density
 _atom_site_hle17_ddec_charge
 _atom_site_hle17_ddec_spin_density
 _atom_site_hle17_ddec_sum_bond_order
 _atom_site_hle17_magmom
 _atom_site_hse06_10hf_bader_spin_density
 _atom_site_hse06_10hf_ddec_charge
 _atom_site_hse06_10hf_ddec_spin_density
 _atom_site_hse06_10hf_ddec_sum_bond_order
 _atom_site_hse06_10hf_magmom
 _atom_site_hse06_bader_spin_density
 _atom_site_hse06_ddec_charge
 _atom_site_hse06_ddec_spin_density
 _atom_site_hse06_ddec_sum_bond_order
 _atom_site_hse06_magmom
 _atom_site_pbe_bader_spin_density
 _atom_site_pbe_cm5_charge
 _atom_site_pbe_ddec_charge
 _atom_site_pbe_ddec_spin_density
 _atom_site_pbe_ddec_sum_bond_order
 _atom_site_pbe_magmom
Y  Y0  1  0.58438445  0.55926625  0.35786502  1  0  2.094914  0  1.910917  0  0  1.917117  0  2.3815  0  0  1.988453  0  2.316114  0  0  1.28509  1.866299  0  2.426324  0
Y  Y1  1  0.41561369  0.44073297  0.64213613  1  0  2.094932  0  1.910926  0  0  1.917115  0  2.381528  0  0  1.988459  0  2.316122  0  0  1.285097  1.866294  0  2.426355  0
Y  Y2  1  0.54503346  0.85528472  0.23528634  1  0  2.055236  0  1.887165  0  0  1.865514  0  2.375713  0  0  1.937107  0  2.310657  0  0  1.284405  1.813915  0  2.421133  0
Y  Y3  1  0.45496719  0.14471540  0.76471389  1  0  2.055253  0  1.887165  0  0  1.865546  0  2.375695  0  0  1.937135  0  2.310646  0  0  1.284421  1.813946  0  2.421113  0
Y  Y4  1  0.54395451  0.23861467  0.38283493  1  0  2.092588  0  1.863629  0  0  1.909917  0  2.345223  0  0  1.981013  0  2.27901  0  0  1.302809  1.858323  0  2.39113  0
Y  Y5  1  0.45604616  0.76138548  0.61716296  1  0  2.092563  0  1.86367  0  0  1.909874  0  2.345321  0  0  1.98105  0  2.27897  0  0  1.302815  1.858281  0  2.391226  0
H  H6  1  0.16887754  0.56605076  0.40445272  1  0  0.099349  0  0.944206  0  0  0.110319  0  1.003549  0  0  0.114009  0  1.001048  0  0  0.106785  0.107383  0  1.005825  0
H  H7  1  0.83112593  0.43394674  0.59554515  1  0  0.099355  0  0.944236  0  0  0.11031  0  1.003594  0  0  0.114001  0  1.001091  0  0  0.106788  0.107378  0  1.00586  0
H  H8  1  0.94040709  0.57977252  0.42131488  1  0  0.099034  0  0.949333  0  0  0.110009  0  1.009304  0  0  0.113341  0  1.007191  0  0  0.106688  0.107435  0  1.01109  0
H  H9  1  0.05959544  0.42022497  0.57868409  1  0  0.099025  0  0.949408  0  0  0.110014  0  1.009348  0  0  0.113345  0  1.007238  0  0  0.106703  0.107439  0  1.011135  0
H  H10  1  0.93113733  0.88613740  0.22320271  1  0  0.099899  0  0.970046  0  0  0.106815  0  1.035367  0  0  0.109544  0  1.03493  0  0  0.103213  0.104696  0  1.035903  0
H  H11  1  0.06886582  0.11385834  0.77679382  1  0  0.099963  0  0.969965  0  0  0.106864  0  1.035292  0  0  0.109592  0  1.034856  0  0  0.103247  0.104746  0  1.035828  0
H  H12  1  0.15742728  0.87343765  0.20678186  1  0  0.088782  0  0.958534  0  0  0.097871  0  1.021719  0  0  0.101445  0  1.019501  0  0  0.10042  0.094996  0  1.023819  0
H  H13  1  0.84257495  0.12656076  0.79321405  1  0  0.088774  0  0.958534  0  0  0.097913  0  1.021665  0  0  0.101443  0  1.019491  0  0  0.100427  0.095032  0  1.023774  0
H  H14  1  0.84511580  0.46802043  0.18955346  1  0  0.100059  0  1.003217  0  0  0.106217  0  1.071921  0  0  0.109897  0  1.069385  0  0  0.113092  0.103602  0  1.073816  0
H  H15  1  0.15488297  0.53197965  0.81044976  1  0  0.100072  0  1.003216  0  0  0.106203  0  1.071962  0  0  0.109884  0  1.069423  0  0  0.113098  0.103584  0  1.073857  0
H  H16  1  0.92745136  0.66942884  0.89112339  1  0  0.101745  0  0.956367  0  0  0.110334  0  1.018518  0  0  0.113394  0  1.017479  0  0  0.106141  0.108112  0  1.019403  0
H  H17  1  0.07254613  0.33056948  0.10887882  1  0  0.101685  0  0.95639  0  0  0.110315  0  1.018504  0  0  0.113384  0  1.017456  0  0  0.106111  0.108091  0  1.019391  0
H  H18  1  0.93512250  0.07249050  0.38482741  1  0  0.108423  0  0.944079  0  0  0.1172  0  1.004685  0  0  0.120917  0  1.002488  0  0  0.107954  0.114288  0  1.006766  0
H  H19  1  0.06488066  0.92750787  0.61517129  1  0  0.108404  0  0.944087  0  0  0.117182  0  1.004694  0  0  0.120896  0  1.002498  0  0  0.107938  0.11427  0  1.006774  0
H  H20  1  0.16407899  0.98875954  0.38615726  1  0  0.103275  0  0.95152  0  0  0.109414  0  1.01831  0  0  0.112946  0  1.016537  0  0  0.106861  0.106897  0  1.019631  0
H  H21  1  0.83592355  0.01124059  0.61384232  1  0  0.103304  0  0.951475  0  0  0.109468  0  1.018238  0  0  0.113002  0  1.016464  0  0  0.106878  0.106951  0  1.019559  0
H  H22  1  0.21937909  0.33209647  0.32988830  1  0  0.113946  0  0.958323  0  0  0.120038  0  1.024711  0  0  0.124227  0  1.021444  0  0  0.109964  0.116934  0  1.027125  0
H  H23  1  0.78061781  0.66790623  0.67011695  1  0  0.113956  0  0.958286  0  0  0.120047  0  1.024669  0  0  0.124237  0  1.021403  0  0  0.109973  0.116943  0  1.027083  0
H  H24  1  0.99153148  0.41459151  0.32358698  1  0  0.102642  0  0.961712  0  0  0.11013  0  1.027572  0  0  0.113507  0  1.025722  0  0  0.107974  0.10769  0  1.028923  0
H  H25  1  0.00846602  0.58540941  0.67641972  1  0  0.10259  0  0.961802  0  0  0.110097  0  1.027634  0  0  0.113474  0  1.025785  0  0  0.107959  0.107658  0  1.028985  0
H  H26  1  0.71448141  0.44840946  0.02435749  1  0  0.098271  0  0.955355  0  0  0.108189  0  1.016294  0  0  0.110955  0  1.015437  0  0  0.10461  0.106064  0  1.017193  0
H  H27  1  0.28551990  0.55159157  0.97564013  1  0  0.098296  0  0.955333  0  0  0.108212  0  1.016277  0  0  0.110977  0  1.015421  0  0  0.104612  0.106088  0  1.017176  0
H  H28  1  0.30515827  0.45846828  0.15225900  1  0  0.098549  0  0.946374  0  0  0.109077  0  1.006968  0  0  0.112093  0  1.00586  0  0  0.10398  0.106996  0  1.007778  0
H  H29  1  0.69483956  0.54153183  0.84774065  1  0  0.098522  0  0.946359  0  0  0.109066  0  1.006932  0  0  0.112088  0  1.005822  0  0  0.103957  0.106985  0  1.007742  0
H  H30  1  0.88320887  0.18349792  0.12373569  1  0  0.108324  0  0.944577  0  0  0.117746  0  1.003718  0  0  0.121273  0  1.00197  0  0  0.10933  0.115164  0  1.005049  0
H  H31  1  0.11679149  0.81650310  0.87626304  1  0  0.108307  0  0.944604  0  0  0.117729  0  1.003746  0  0  0.121256  0  1.001999  0  0  0.109324  0.115149  0  1.005074  0
H  H32  1  0.87295274  0.86523244  0.99745131  1  0  0.106814  0  0.969931  0  0  0.111901  0  1.039021  0  0  0.115911  0  1.036306  0  0  0.104545  0.108961  0  1.041135  0
H  H33  1  0.12704792  0.13476770  0.00254736  1  0  0.10688  0  0.969957  0  0  0.111995  0  1.039006  0  0  0.116004  0  1.036292  0  0  0.104578  0.109036  0  1.041139  0
H  H34  1  0.38801837  0.78094801  0.43762710  1  0  0.401252  0  0.896566  0  0  0.379491  0  0.957529  0  0  0.388425  0  0.944799  0  0  0.300551  0.373074  0  0.965012  0
H  H35  1  0.61198041  0.21905211  0.56237223  1  0  0.401287  0  0.896553  0  0  0.379525  0  0.95749  0  0  0.388459  0  0.944759  0  0  0.300578  0.373108  0  0.964998  0
H  H36  1  0.37427846  0.47047273  0.43669864  1  0  0.443514  0  0.836983  0  0  0.418561  0  0.895828  0  0  0.429029  0  0.88056  0  0  0.319986  0.411022  0  0.90684  0
H  H37  1  0.62571939  0.52953005  0.56330007  1  0  0.443497  0  0.837037  0  0  0.418547  0  0.895846  0  0  0.429015  0  0.880578  0  0  0.31998  0.411007  0  0.90686  0
H  H38  1  0.42861754  0.03959794  0.08564860  1  0  0.459766  0  0.782907  0  0  0.439172  0  0.838628  0  0  0.448156  0  0.827454  0  0  0.34422  0.432701  0  0.84595  0
H  H39  1  0.57138377  0.96040569  0.91435352  1  0  0.459792  0  0.782837  0  0  0.439197  0  0.838567  0  0  0.448182  0  0.827412  0  0  0.34424  0.432727  0  0.845889  0
H  H40  1  0.34754742  0.94832015  0.13337433  1  0  0.44463  0  0.805814  0  0  0.421787  0  0.868988  0  0  0.431069  0  0.855816  0  0  0.333965  0.414924  0  0.877327  0
H  H41  1  0.65245422  0.05168266  0.86662229  1  0  0.444569  0  0.805789  0  0  0.421704  0  0.869019  0  0  0.430987  0  0.855912  0  0  0.333907  0.414842  0  0.877356  0
H  H42  1  0.66821720  0.96323234  0.37442278  1  0  0.438861  0  0.854245  0  0  0.407528  0  0.917968  0  0  0.41825  0  0.902339  0  0  0.309822  0.399907  0  0.929106  0
H  H43  1  0.33178440  0.03676777  0.62557790  1  0  0.43885  0  0.854259  0  0  0.407526  0  0.917957  0  0  0.418246  0  0.902332  0  0  0.309833  0.399906  0  0.929092  0
H  H44  1  0.60515109  0.02031025  0.50029706  1  0  0.429187  0  0.874744  0  0  0.398418  0  0.93906  0  0  0.408953  0  0.923487  0  0  0.309091  0.390862  0  0.950273  0
H  H45  1  0.39484989  0.97969164  0.49970295  1  0  0.429178  0  0.87476  0  0  0.398407  0  0.939078  0  0  0.408942  0  0.923506  0  0  0.309088  0.390852  0  0.950289  0
C  C46  1  0.31618071  0.70975795  0.29373545  1  0  0.694942  0  3.845896  0  0  0.645361  0  4.139251  0  0  0.681725  0  4.128454  0  0  0.235012  0.620289  0  4.146343  0
C  C47  1  0.68381869  0.29024303  0.70626594  1  0  0.695159  0  3.845825  0  0  0.645573  0  4.139184  0  0  0.681934  0  4.128391  0  0  0.235088  0.620503  0  4.146276  0
C  C48  1  0.17895609  0.71816150  0.30364070  1  0  -0.067108  0  3.740866  0  0  -0.048969  0  3.978294  0  0  -0.05606  0  4.001276  0  0  -0.01587  -0.044586  0  3.963228  0
C  C49  1  0.82104645  0.28183602  0.69635516  1  0  -0.067165  0  3.740904  0  0  -0.048987  0  3.978304  0  0  -0.056075  0  4.001276  0  0  -0.015839  -0.044607  0  3.963235  0
C  C50  1  0.11654615  0.63575101  0.36450391  1  0  -0.067963  0  3.732041  0  0  -0.091926  0  3.985977  0  0  -0.09349  0  4.007783  0  0  -0.081597  -0.090932  0  3.971798  0
C  C51  1  0.88345671  0.36424825  0.63549406  1  0  -0.067957  0  3.732058  0  0  -0.091925  0  3.986002  0  0  -0.093489  0  4.00781  0  0  -0.081588  -0.090928  0  3.971821  0
C  C52  1  0.98963567  0.64307298  0.37384620  1  0  -0.064285  0  3.727275  0  0  -0.086862  0  3.976885  0  0  -0.088352  0  3.998499  0  0  -0.077902  -0.085953  0  3.96283  0
C  C53  1  0.01036810  0.35692364  0.62615162  1  0  -0.064287  0  3.727414  0  0  -0.086875  0  3.977011  0  0  -0.088368  0  3.998629  0  0  -0.077908  -0.085968  0  3.962958  0
C  C54  1  0.92187540  0.73265367  0.32249592  1  0  -0.055909  0  3.719245  0  0  -0.036944  0  3.954862  0  0  -0.043271  0  3.976425  0  0  -0.012035  -0.033097  0  3.940999  0
C  C55  1  0.07812461  0.26734293  0.67750242  1  0  -0.05578  0  3.719225  0  0  -0.036836  0  3.954789  0  0  -0.043161  0  3.976352  0  0  -0.011985  -0.032989  0  3.940927  0
C  C56  1  0.98288224  0.81643007  0.26343956  1  0  -0.069101  0  3.720315  0  0  -0.089924  0  3.964671  0  0  -0.090993  0  3.985489  0  0  -0.081249  -0.089242  0  3.95104  0
C  C57  1  0.01711494  0.18356654  0.73655743  1  0  -0.069303  0  3.720303  0  0  -0.090128  0  3.964704  0  0  -0.091195  0  3.985509  0  0  -0.081371  -0.089445  0  3.95107  0
C  C58  1  0.11011002  0.80891623  0.25402047  1  0  -0.067766  0  3.737881  0  0  -0.089136  0  3.984542  0  0  -0.090504  0  4.005564  0  0  -0.082872  -0.088083  0  3.97064  0
C  C59  1  0.88989032  0.19108217  0.74597609  1  0  -0.067663  0  3.738042  0  0  -0.089069  0  3.984666  0  0  -0.090398  0  4.005704  0  0  -0.082841  -0.088015  0  3.970767  0
C  C60  1  0.78919797  0.73337251  0.32602133  1  0  0.699941  0  3.82769  0  0  0.64496  0  4.127565  0  0  0.681077  0  4.117048  0  0  0.239085  0.620088  0  4.134533  0
C  C61  1  0.21080049  0.26662846  0.67398116  1  0  0.699852  0  3.827836  0  0  0.644973  0  4.127534  0  0  0.68109  0  4.117018  0  0  0.239056  0.6201  0  4.134502  0
C  C62  1  0.73716299  0.66484152  0.09357847  1  0  0.66673  0  3.876711  0  0  0.618257  0  4.165611  0  0  0.652888  0  4.158196  0  0  0.218732  0.594748  0  4.169936  0
C  C63  1  0.26283672  0.33515858  0.90642286  1  0  0.666752  0  3.87681  0  0  0.618232  0  4.165713  0  0  0.652859  0  4.158298  0  0  0.218768  0.594722  0  4.170039  0
C  C64  1  0.87124251  0.57772990  0.04479917  1  0  -0.057518  0  3.750554  0  0  -0.03593  0  3.981917  0  0  -0.042745  0  4.003774  0  0  -0.005705  -0.031517  0  3.967329  0
C  C65  1  0.12875844  0.42226931  0.95520334  1  0  -0.057561  0  3.750618  0  0  -0.035811  0  3.981788  0  0  -0.04261  0  4.00362  0  0  -0.005693  -0.031398  0  3.967199  0
C  C66  1  0.91185731  0.48219928  0.10622293  1  0  -0.055674  0  3.702602  0  0  -0.082115  0  3.953527  0  0  -0.082443  0  3.972489  0  0  -0.071549  -0.081722  0  3.940748  0
C  C67  1  0.08814206  0.51779904  0.89377940  1  0  -0.055599  0  3.702578  0  0  -0.082078  0  3.953438  0  0  -0.08241  0  3.972394  0  0  -0.07154  -0.08168  0  3.940653  0
C  C68  1  0.96018131  0.59517516  0.93823633  1  0  -0.062892  0  3.712218  0  0  -0.082591  0  3.954629  0  0  -0.084019  0  3.975349  0  0  -0.073205  -0.081547  0  3.940503  0
C  C69  1  0.03981871  0.40482407  0.06176417  1  0  -0.062811  0  3.71226  0  0  -0.082604  0  3.954628  0  0  -0.084041  0  3.975337  0  0  -0.073188  -0.081559  0  3.940504  0
C  C70  1  0.81012339  0.30049264  0.36881710  1  0  0.70663  0  3.864759  0  0  0.651695  0  4.162639  0  0  0.688074  0  4.151273  0  0  0.242316  0.626836  0  4.169951  0
C  C71  1  0.18987599  0.69950569  0.63118523  1  0  0.706605  0  3.864833  0  0  0.651611  0  4.162793  0  0  0.68799  0  4.151434  0  0  0.242284  0.62675  0  4.170105  0
C  C72  1  0.95065480  0.24853742  0.35692868  1  0  -0.064532  0  3.752225  0  0  -0.044818  0  3.987431  0  0  -0.052334  0  4.010449  0  0  -0.01259  -0.039791  0  3.971834  0
C  C73  1  0.04934521  0.75146179  0.64307416  1  0  -0.064496  0  3.752258  0  0  -0.044755  0  3.987456  0  0  -0.052268  0  4.010473  0  0  -0.012565  -0.039728  0  3.971861  0
C  C74  1  0.99891744  0.12790330  0.37181869  1  0  -0.069357  0  3.728721  0  0  -0.092252  0  3.976275  0  0  -0.093353  0  3.997343  0  0  -0.080091  -0.091288  0  3.962197  0
C  C75  1  0.00108322  0.87209680  0.62818310  1  0  -0.069375  0  3.728759  0  0  -0.092271  0  3.976308  0  0  -0.09337  0  3.997375  0  0  -0.080092  -0.091307  0  3.962229  0
C  C76  1  0.12527315  0.08184219  0.37278594  1  0  -0.077804  0  3.739019  0  0  -0.09994  0  3.989715  0  0  -0.101328  0  4.010389  0  0  -0.081345  -0.099079  0  3.975803  0
C  C77  1  0.87472908  0.91815882  0.62721369  1  0  -0.077816  0  3.738869  0  0  -0.099967  0  3.98956  0  0  -0.101358  0  4.010233  0  0  -0.081354  -0.099107  0  3.975649  0
C  C78  1  0.20139918  0.15735893  0.36168641  1  0  -0.067316  0  3.76498  0  0  -0.048258  0  4.000548  0  0  -0.055024  0  4.022381  0  0  -0.011574  -0.043755  0  3.985678  0
C  C79  1  0.79859928  0.84264204  0.63831608  1  0  -0.067378  0  3.764789  0  0  -0.048313  0  4.00039  0  0  -0.055074  0  4.022218  0  0  -0.011604  -0.043808  0  3.985519  0
C  C80  1  0.15582653  0.27683644  0.34128871  1  0  -0.063539  0  3.713272  0  0  -0.087368  0  3.963456  0  0  -0.088158  0  3.982556  0  0  -0.075479  -0.086348  0  3.950105  0
C  C81  1  0.84417162  0.72316538  0.65871616  1  0  -0.063497  0  3.713154  0  0  -0.087317  0  3.963323  0  0  -0.088111  0  3.982423  0  0  -0.075452  -0.086297  0  3.949969  0
C  C82  1  0.03097168  0.32185500  0.33756326  1  0  -0.074201  0  3.739656  0  0  -0.097215  0  3.990757  0  0  -0.098415  0  4.011433  0  0  -0.081464  -0.096177  0  3.976378  0
C  C83  1  0.96902613  0.67814505  0.66244262  1  0  -0.074166  0  3.739739  0  0  -0.097197  0  3.990829  0  0  -0.098397  0  4.011507  0  0  -0.081462  -0.09616  0  3.97645  0
C  C84  1  0.32633945  0.11353354  0.38123024  1  0  0.71985  0  3.837227  0  0  0.66646  0  4.12613  0  0  0.703693  0  4.113221  0  0  0.252128  0.640945  0  4.134237  0
C  C85  1  0.67366154  0.88646836  0.61876899  1  0  0.719919  0  3.837  0  0  0.666459  0  4.126018  0  0  0.703692  0  4.113117  0  0  0.252125  0.640942  0  4.134122  0
C  C86  1  0.52170657  0.39579586  0.20304067  1  0  0.674612  0  3.885839  0  0  0.623853  0  4.178316  0  0  0.660089  0  4.16808  0  0  0.218204  0.599175  0  4.184411  0
C  C87  1  0.47829441  0.60420343  0.79695484  1  0  0.674625  0  3.885658  0  0  0.6238  0  4.178208  0  0  0.660032  0  4.167982  0  0  0.21817  0.599126  0  4.184295  0
C  C88  1  0.51072874  0.44939631  0.09814480  1  0  -0.047455  0  3.736356  0  0  -0.027439  0  3.970583  0  0  -0.033752  0  3.991505  0  0  -0.008536  -0.023273  0  3.956317  0
C  C89  1  0.48926882  0.55060998  0.90185534  1  0  -0.047427  0  3.736208  0  0  -0.027325  0  3.970359  0  0  -0.033638  0  3.991282  0  0  -0.008504  -0.023166  0  3.956098  0
C  C90  1  0.62104176  0.47218407  0.01284032  1  0  -0.061056  0  3.716931  0  0  -0.08413  0  3.96525  0  0  -0.084748  0  3.985165  0  0  -0.078729  -0.083518  0  3.95167  0
C  C91  1  0.37895642  0.52782046  0.98715972  1  0  -0.061148  0  3.716913  0  0  -0.08425  0  3.965217  0  0  -0.084866  0  3.985126  0  0  -0.078769  -0.083636  0  3.951641  0
C  C92  1  0.38970921  0.47690407  0.08494598  1  0  -0.061345  0  3.719008  0  0  -0.085583  0  3.968463  0  0  -0.086525  0  3.988621  0  0  -0.077627  -0.084691  0  3.954423  0
C  C93  1  0.61028831  0.52309692  0.91505451  1  0  -0.061396  0  3.719038  0  0  -0.085675  0  3.968474  0  0  -0.086626  0  3.988641  0  0  -0.077645  -0.084779  0  3.954432  0
C  C94  1  0.71948655  0.05479160  0.14495275  1  0  0.721304  0  3.843278  0  0  0.671858  0  4.133552  0  0  0.709539  0  4.12035  0  0  0.243075  0.646079  0  4.141861  0
C  C95  1  0.28051472  0.94520675  0.85504738  1  0  0.721339  0  3.843225  0  0  0.671869  0  4.133536  0  0  0.709549  0  4.120336  0  0  0.243113  0.646089  0  4.141843  0
C  C96  1  0.86369101  0.02750973  0.06749503  1  0  -0.073135  0  3.733369  0  0  -0.053201  0  3.967318  0  0  -0.059713  0  3.98831  0  0  -0.015209  -0.048785  0  3.953027  0
C  C97  1  0.13630776  0.97249039  0.93250430  1  0  -0.073005  0  3.733262  0  0  -0.053066  0  3.967214  0  0  -0.059575  0  3.988202  0  0  -0.015164  -0.048649  0  3.952917  0
C  C98  1  0.93550889  0.10325549  0.06927492  1  0  -0.065231  0  3.715925  0  0  -0.086741  0  3.961878  0  0  -0.088005  0  3.982778  0  0  -0.077438  -0.085668  0  3.947423  0
C  C99  1  0.06449272  0.89674466  0.93072265  1  0  -0.065287  0  3.715948  0  0  -0.086799  0  3.961902  0  0  -0.088065  0  3.982803  0  0  -0.077463  -0.085727  0  3.947452  0
C  C100  1  0.92929267  0.92398960  0.99746401  1  0  -0.082676  0  3.732851  0  0  -0.104719  0  3.983351  0  0  -0.106113  0  4.003804  0  0  -0.08531  -0.103494  0  3.969344  0
C  C101  1  0.07070799  0.07601054  0.00253466  1  0  -0.082764  0  3.732942  0  0  -0.104827  0  3.983434  0  0  -0.106222  0  4.003885  0  0  -0.085318  -0.103586  0  3.969435  0
O  O102  1  0.37662864  0.62140046  0.33492589  1  0  -0.695889  0  2.032942  0  0  -0.635268  0  2.278808  0  0  -0.663391  0  2.268272  0  0  -0.34483  -0.615342  0  2.285788  0
O  O103  1  0.62337452  0.37859792  0.66507280  1  0  -0.695989  0  2.033005  0  0  -0.635412  0  2.278917  0  0  -0.663535  0  2.268382  0  0  -0.344905  -0.615486  0  2.285898  0
O  O104  1  0.36383137  0.79308245  0.24694000  1  0  -0.710625  0  2.010227  0  0  -0.648276  0  2.257318  0  0  -0.677092  0  2.245048  0  0  -0.361581  -0.627778  0  2.265374  0
O  O105  1  0.63616804  0.20691856  0.75305905  1  0  -0.710681  0  2.010146  0  0  -0.648368  0  2.257295  0  0  -0.677181  0  2.245018  0  0  -0.361595  -0.62787  0  2.26535  0
O  O106  1  0.75422511  0.64206442  0.35693703  1  0  -0.6494  0  2.03024  0  0  -0.595565  0  2.282037  0  0  -0.622407  0  2.272452  0  0  -0.323982  -0.576618  0  2.288331  0
O  O107  1  0.24577084  0.35793829  0.64306699  1  0  -0.649407  0  2.030331  0  0  -0.595611  0  2.282079  0  0  -0.622452  0  2.272498  0  0  -0.323993  -0.576661  0  2.288372  0
O  O108  1  0.72160953  0.82646250  0.29271957  1  0  -0.728307  0  2.029062  0  0  -0.65655  0  2.270501  0  0  -0.686628  0  2.260184  0  0  -0.367929  -0.635501  0  2.277445  0
O  O109  1  0.27839113  0.17353762  0.70728066  1  0  -0.728339  0  2.029157  0  0  -0.656586  0  2.270488  0  0  -0.686665  0  2.260175  0  0  -0.367945  -0.635537  0  2.277433  0
O  O110  1  0.65302753  0.64628323  0.19045339  1  0  -0.793008  0  2.179794  0  0  -0.722003  0  2.444018  0  0  -0.755075  0  2.434484  0  0  -0.42628  -0.698585  0  2.449921  0
O  O111  1  0.34697093  0.35371774  0.80954910  1  0  -0.792979  0  2.179848  0  0  -0.721978  0  2.444092  0  0  -0.755053  0  2.434562  0  0  -0.426291  -0.698559  0  2.449992  0
O  O112  1  0.70555541  0.76022360  0.04742563  1  0  -0.617834  0  1.915237  0  0  -0.568941  0  2.138833  0  0  -0.592732  0  2.128692  0  0  -0.325115  -0.552336  0  2.14528  0
O  O113  1  0.29444429  0.23977650  0.95257648  1  0  -0.617873  0  1.915252  0  0  -0.568993  0  2.138883  0  0  -0.592785  0  2.128746  0  0  -0.325148  -0.552385  0  2.145321  0
O  O114  1  0.74001259  0.23084351  0.39095349  1  0  -0.708341  0  2.06853  0  0  -0.645578  0  2.32364  0  0  -0.6735  0  2.310142  0  0  -0.37646  -0.62578  0  2.332703  0
O  O115  1  0.25998993  0.76915395  0.60904781  1  0  -0.708301  0  2.068488  0  0  -0.645565  0  2.323674  0  0  -0.673496  0  2.310168  0  0  -0.376475  -0.625763  0  2.332734  0
O  O116  1  0.76723671  0.41074635  0.36010483  1  0  -0.686943  0  2.073064  0  0  -0.622982  0  2.326223  0  0  -0.65059  0  2.313549  0  0  -0.360724  -0.604034  0  2.334683  0
O  O117  1  0.23276014  0.58925106  0.63989921  1  0  -0.686984  0  2.07317  0  0  -0.622966  0  2.326331  0  0  -0.650574  0  2.313654  0  0  -0.36071  -0.604016  0  2.33479  0
O  O118  1  0.39361844  0.00407372  0.35952562  1  0  -0.742604  0  2.107197  0  0  -0.674028  0  2.366028  0  0  -0.703071  0  2.350445  0  0  -0.384017  -0.653416  0  2.376075  0
O  O119  1  0.60638161  0.99592817  0.64047394  1  0  -0.742588  0  2.107094  0  0  -0.673986  0  2.365955  0  0  -0.70303  0  2.350378  0  0  -0.383993  -0.653371  0  2.375998  0
O  O120  1  0.35717465  0.18504648  0.42561712  1  0  -0.674404  0  2.023132  0  0  -0.609145  0  2.270597  0  0  -0.637652  0  2.258751  0  0  -0.362769  -0.588501  0  2.278075  0
O  O121  1  0.64282821  0.81495277  0.57438162  1  0  -0.674433  0  2.022961  0  0  -0.609157  0  2.27045  0  0  -0.637682  0  2.258609  0  0  -0.362771  -0.588512  0  2.277928  0
O  O122  1  0.61555934  0.40222505  0.23126459  1  0  -0.741327  0  2.019162  0  0  -0.68085  0  2.269167  0  0  -0.710626  0  2.259399  0  0  -0.366453  -0.659749  0  2.275113  0
O  O123  1  0.38443815  0.59777327  0.76873761  1  0  -0.741404  0  2.019254  0  0  -0.680852  0  2.269176  0  0  -0.710633  0  2.259407  0  0  -0.36647  -0.659758  0  2.275132  0
O  O124  1  0.43878164  0.34307020  0.26284608  1  0  -0.671776  0  1.995272  0  0  -0.619222  0  2.23712  0  0  -0.646804  0  2.227045  0  0  -0.354496  -0.599831  0  2.243311  0
O  O125  1  0.56122058  0.65692559  0.73714611  1  0  -0.671725  0  1.995203  0  0  -0.619144  0  2.237042  0  0  -0.646735  0  2.226965  0  0  -0.354453  -0.599754  0  2.24323  0
O  O126  1  0.67051859  0.14394928  0.21316943  1  0  -0.700983  0  2.069925  0  0  -0.638037  0  2.323791  0  0  -0.668689  0  2.312356  0  0  -0.382113  -0.616254  0  2.33084  0
O  O127  1  0.32948238  0.85604995  0.78683074  1  0  -0.70101  0  2.06996  0  0  -0.638055  0  2.32384  0  0  -0.668718  0  2.3124  0  0  -0.382135  -0.616272  0  2.330888  0
O  O128  1  0.65397401  0.98795106  0.14024049  1  0  -0.7123  0  2.027299  0  0  -0.653065  0  2.282308  0  0  -0.682409  0  2.269143  0  0  -0.382496  -0.63231  0  2.290794  0
O  O129  1  0.34602820  0.01204729  0.85976009  1  0  -0.712303  0  2.027257  0  0  -0.653073  0  2.282304  0  0  -0.682416  0  2.269139  0  0  -0.382492  -0.632317  0  2.290786  0
O  O130  1  0.48368821  0.76312425  0.41564416  1  0  -1.10219  0  1.75899  0  0  -1.021465  0  1.983766  0  0  -1.057015  0  1.961244  0  0  -0.686872  -0.995871  0  1.997615  0
O  O131  1  0.51631057  0.23687588  0.58435517  1  0  -1.102221  0  1.758978  0  0  -1.021503  0  1.98373  0  0  -1.057042  0  1.961209  0  0  -0.686894  -0.995908  0  1.997605  0
O  O132  1  0.45132552  0.43340237  0.45589040  1  0  -1.135523  0  1.831066  0  0  -1.055357  0  2.071354  0  0  -1.091498  0  2.044492  0  0  -0.739988  -1.029363  0  2.0897  0
O  O133  1  0.54867073  0.56659686  0.54410985  1  0  -1.135546  0  1.831184  0  0  -1.055366  0  2.071473  0  0  -1.091518  0  2.044607  0  0  -0.739996  -1.029371  0  2.089824  0
O  O134  1  0.43414647  0.95995525  0.11170192  1  0  -0.840531  0  1.856471  0  0  -0.790339  0  2.052287  0  0  -0.80984  0  2.022604  0  0  -0.578392  -0.776429  0  2.07114  0
O  O135  1  0.56585515  0.04004752  0.88829859  1  0  -0.840511  0  1.856396  0  0  -0.7903  0  2.052243  0  0  -0.809801  0  2.022649  0  0  -0.57837  -0.776391  0  2.071092  0
O  O136  1  0.62846978  0.03833959  0.42011968  1  0  -0.885203  0  1.895552  0  0  -0.832444  0  2.093933  0  0  -0.852611  0  2.059815  0  0  -0.618171  -0.818129  0  2.118064  0
O  O137  1  0.37152963  0.96166142  0.57987937  1  0  -0.885154  0  1.895544  0  0  -0.832417  0  2.093981  0  0  -0.852592  0  2.059856  0  0  -0.618174  -0.818103  0  2.118109  0
