# generated using pymatgen
data_Zn5H16(C3O2)8
_symmetry_space_group_name_H-M   'P 1'
_cell_length_a   6.33163234
_cell_length_b   14.29944112
_cell_length_c   19.42496957
_cell_angle_alpha   89.99962412
_cell_angle_beta   92.40409566
_cell_angle_gamma   89.99955005
_symmetry_Int_Tables_number   1
_chemical_formula_structural   Zn5H16(C3O2)8
_chemical_formula_sum   'Zn10 H32 C48 O32'
_cell_volume   1757.16555151
_cell_formula_units_Z   2
loop_
 _symmetry_equiv_pos_site_id
 _symmetry_equiv_pos_as_xyz
  1  'x, y, z'
loop_
 _atom_site_type_symbol
 _atom_site_label
 _atom_site_symmetry_multiplicity
 _atom_site_fract_x
 _atom_site_fract_y
 _atom_site_fract_z
 _atom_site_occupancy
 _atom_site_pbe_bader_charge
 _atom_site_pbe_bader_spin_density
 _atom_site_pbe_cm5_charge
 _atom_site_pbe_ddec_charge
 _atom_site_pbe_ddec_spin_density
 _atom_site_pbe_ddec_sum_bond_order
 _atom_site_pbe_magmom
Zn  Zn0  1  0.99011869  0.19608494  0.94178829  1  1.307047  0  0.676762  0.986278  0  2.284319  0
Zn  Zn1  1  0.50177410  0.60439515  0.54169866  1  1.387981  0  0.668231  1.050854  0  2.261827  0
Zn  Zn2  1  0.00986354  0.69608623  0.55821776  1  1.306956  0  0.676817  0.986342  0  2.284356  0
Zn  Zn3  1  0.49822147  0.10438564  0.95830038  1  1.387959  0  0.668292  1.05099  0  2.261565  0
Zn  Zn4  1  0.00986179  0.80391576  0.05820623  1  1.30714  0  0.676747  0.986259  0  2.284508  0
Zn  Zn5  1  0.49822665  0.39561254  0.45829990  1  1.388056  0  0.668256  1.050895  0  2.261629  0
Zn  Zn6  1  0.99013034  0.30392286  0.44178786  1  1.307164  0  0.676698  0.986126  0  2.284551  0
Zn  Zn7  1  0.50176846  0.89561157  0.04169485  1  1.387967  0  0.668272  1.050999  0  2.261543  0
Zn  Zn8  1  0.00000492  0.50000541  0.49999886  1  1.336738  0  0.632843  1.00238  0  2.201103  0
Zn  Zn9  1  0.99999870  0.00000386  0.00000256  1  1.336836  0  0.632844  1.002418  0  2.20113  0
H  H10  1  0.11804558  0.28256587  0.67155265  1  0.094728  0  0.105732  0.107863  0  1.002388  0
H  H11  1  0.27344141  0.18669988  0.76911213  1  0.09364  0  0.105303  0.109875  0  1.000091  0
H  H12  1  0.84963012  0.34486592  0.76424405  1  0.11406  0  0.108045  0.114271  0  1.003206  0
H  H13  1  0.70045191  0.43628839  0.66397028  1  0.079141  0  0.101196  0.100113  0  1.02662  0
H  H14  1  0.72108522  0.37174117  0.95509142  1  0.099522  0  0.101385  0.105738  0  1.029991  0
H  H15  1  0.13508385  0.46624860  0.03571834  1  0.083562  0  0.106311  0.110462  0  1.009031  0
H  H16  1  0.20935417  0.63847430  0.45527808  1  0.641102  0  0.309678  0.401528  0  0.892398  0
H  H17  1  0.82930653  0.55729802  0.61188573  1  0.605578  0  0.306219  0.394784  0  0.904007  0
H  H18  1  0.88196074  0.78255541  0.82844836  1  0.094747  0  0.105715  0.10787  0  1.002407  0
H  H19  1  0.72654960  0.68669223  0.73088488  1  0.093446  0  0.105277  0.109947  0  1.000087  0
H  H20  1  0.15039070  0.84487422  0.73575904  1  0.113069  0  0.108065  0.114323  0  1.003288  0
H  H21  1  0.29958307  0.93630156  0.83603219  1  0.079237  0  0.101212  0.10018  0  1.026453  0
H  H22  1  0.27890234  0.87175073  0.54490517  1  0.099577  0  0.101382  0.105774  0  1.03006  0
H  H23  1  0.86491874  0.96625446  0.46428551  1  0.083509  0  0.106324  0.110429  0  1.009038  0
H  H24  1  0.79064173  0.13846887  0.04472818  1  0.641082  0  0.309682  0.401577  0  0.892343  0
H  H25  1  0.17068319  0.05730356  0.88811855  1  0.605242  0  0.306185  0.394598  0  0.904224  0
H  H26  1  0.88193506  0.71743273  0.32843981  1  0.095764  0  0.105773  0.107936  0  1.002492  0
H  H27  1  0.72653611  0.81329313  0.23087974  1  0.083412  0  0.105282  0.109916  0  1.000143  0
H  H28  1  0.15036644  0.65512079  0.23574720  1  0.113085  0  0.108089  0.114323  0  1.003388  0
H  H29  1  0.29955579  0.56369973  0.33602019  1  0.079314  0  0.10122  0.100131  0  1.026624  0
H  H30  1  0.27892491  0.62825394  0.04488777  1  0.099771  0  0.101353  0.10563  0  1.030084  0
H  H31  1  0.86491391  0.53374791  0.96425698  1  0.083361  0  0.106328  0.110402  0  1.008762  0
H  H32  1  0.79065274  0.36153829  0.54472267  1  0.64084  0  0.309716  0.401637  0  0.892212  0
H  H33  1  0.17069442  0.44269848  0.38811026  1  0.605579  0  0.306173  0.394642  0  0.904126  0
H  H34  1  0.11806333  0.21743899  0.17155585  1  0.094972  0  0.105745  0.107969  0  1.002463  0
H  H35  1  0.27347628  0.31329938  0.26911628  1  0.083455  0  0.105266  0.109863  0  1.000124  0
H  H36  1  0.84961051  0.15510760  0.26425446  1  0.113151  0  0.108092  0.114227  0  1.003564  0
H  H37  1  0.70041012  0.06368865  0.16398269  1  0.079584  0  0.101245  0.100115  0  1.026584  0
H  H38  1  0.72108733  0.12826186  0.45511426  1  0.099834  0  0.101307  0.105612  0  1.030021  0
H  H39  1  0.13507540  0.03375463  0.53573762  1  0.083442  0  0.106339  0.110386  0  1.008783  0
H  H40  1  0.20934453  0.86153672  0.95527366  1  0.64116  0  0.309694  0.401621  0  0.892253  0
H  H41  1  0.82930002  0.94269644  0.11188169  1  0.605196  0  0.306196  0.394652  0  0.90412  0
C  C42  1  0.31518180  0.42248320  0.60262794  1  1.533065  0  0.220445  0.606689  0  4.146787  0
C  C43  1  0.39981113  0.36552042  0.66198373  1  -0.028635  0  -0.013168  -0.026063  0  3.960484  0
C  C44  1  0.27859590  0.29540237  0.69178027  1  -0.073928  0  -0.080087  -0.091509  0  3.960104  0
C  C45  1  0.36495488  0.24210898  0.74600548  1  0.021145  0  -0.077936  -0.083228  0  3.957173  0
C  C46  1  0.57091449  0.25993858  0.77218857  1  -0.019559  0  -0.013801  -0.032006  0  3.957636  0
C  C47  1  0.69121085  0.33073917  0.74277839  1  -0.10762  0  -0.081441  -0.091402  0  3.972226  0
C  C48  1  0.60702549  0.38200730  0.68752616  1  0.004458  0  -0.084659  -0.09091  0  3.974423  0
C  C49  1  0.66117416  0.20664166  0.83292152  1  1.562271  0  0.223033  0.608179  0  4.165606  0
C  C50  1  0.33274134  0.31209880  0.98784818  1  1.554205  0  0.223192  0.6109  0  4.16273  0
C  C51  1  0.41910612  0.40912969  0.99496173  1  -0.09617  0  -0.014714  -0.030204  0  3.967467  0
C  C52  1  0.62516067  0.42799799  0.97498451  1  0.03461  0  -0.082932  -0.089991  0  3.961744  0
C  C53  1  0.29442620  0.48162731  0.01995559  1  -0.014789  0  -0.082858  -0.095342  0  3.971986  0
C  C54  1  0.68483000  0.92248749  0.89737048  1  1.533055  0  0.220367  0.606516  0  4.146702  0
C  C55  1  0.60019050  0.86552274  0.83801680  1  -0.028491  0  -0.013093  -0.025837  0  3.960365  0
C  C56  1  0.72141801  0.79539894  0.80822188  1  -0.073996  0  -0.08016  -0.091642  0  3.959773  0
C  C57  1  0.63504744  0.74210285  0.75399564  1  0.021145  0  -0.07789  -0.08334  0  3.957186  0
C  C58  1  0.42910283  0.75993968  0.72781896  1  -0.019684  0  -0.013763  -0.031804  0  3.957485  0
C  C59  1  0.30878479  0.83073973  0.75722629  1  -0.106527  0  -0.081513  -0.091514  0  3.972268  0
C  C60  1  0.39298351  0.88200358  0.81247754  1  0.00422  0  -0.084653  -0.09108  0  3.974561  0
C  C61  1  0.33881901  0.70664152  0.66708368  1  1.562292  0  0.223055  0.608236  0  4.165267  0
C  C62  1  0.66725622  0.81210381  0.51215662  1  1.554253  0  0.223324  0.611074  0  4.162367  0
C  C63  1  0.58089448  0.90913436  0.50504166  1  -0.09577  0  -0.014634  -0.030234  0  3.967506  0
C  C64  1  0.37483045  0.92800320  0.52501395  1  0.034062  0  -0.082981  -0.090053  0  3.962051  0
C  C65  1  0.70556829  0.98163079  0.48004699  1  -0.014607  0  -0.08295  -0.095316  0  3.972179  0
C  C66  1  0.68482520  0.57751471  0.39737179  1  1.533294  0  0.220371  0.606357  0  4.146877  0
C  C67  1  0.60017598  0.63448028  0.33800681  1  -0.029083  0  -0.013163  -0.026055  0  3.960762  0
C  C68  1  0.72139568  0.70459413  0.30821397  1  -0.074877  0  -0.080184  -0.09177  0  3.960265  0
C  C69  1  0.63503338  0.75789171  0.25399075  1  0.031284  0  -0.07791  -0.083149  0  3.956972  0
C  C70  1  0.42907670  0.74004884  0.22781081  1  -0.019861  0  -0.013797  -0.031858  0  3.957539  0
C  C71  1  0.30876798  0.66925104  0.25721712  1  -0.106763  0  -0.081496  -0.091478  0  3.97252  0
C  C72  1  0.39295773  0.61798850  0.31247407  1  0.00467  0  -0.084691  -0.090928  0  3.974441  0
C  C73  1  0.33882228  0.79335275  0.16707128  1  1.562914  0  0.223102  0.608142  0  4.165252  0
C  C74  1  0.66726459  0.68789840  0.01214482  1  1.5543  0  0.223181  0.610924  0  4.162874  0
C  C75  1  0.58089805  0.59087241  0.00501270  1  -0.095637  0  -0.014775  -0.030453  0  3.967449  0
C  C76  1  0.37485089  0.57199991  0.02499677  1  0.034081  0  -0.082887  -0.089714  0  3.961623  0
C  C77  1  0.70556991  0.51837129  0.98002072  1  -0.013957  0  -0.082925  -0.095204  0  3.971614  0
C  C78  1  0.31517711  0.07751391  0.10262770  1  1.533252  0  0.220374  0.606293  0  4.146671  0
C  C79  1  0.39982381  0.13447936  0.16199081  1  -0.029136  0  -0.013145  -0.025947  0  3.960519  0
C  C80  1  0.27859658  0.20460665  0.19178213  1  -0.074173  0  -0.080114  -0.091784  0  3.960111  0
C  C81  1  0.36496418  0.25789226  0.24600573  1  0.031586  0  -0.077983  -0.083188  0  3.95734  0
C  C82  1  0.57091029  0.24004913  0.27218347  1  -0.019714  0  -0.013721  -0.031894  0  3.957498  0
C  C83  1  0.69122991  0.16924558  0.24277618  1  -0.106903  0  -0.08147  -0.091296  0  3.972756  0
C  C84  1  0.60702598  0.11798593  0.18753099  1  0.00427  0  -0.084711  -0.090898  0  3.974851  0
C  C85  1  0.66118104  0.29335778  0.33292413  1  1.562448  0  0.223066  0.608139  0  4.165208  0
C  C86  1  0.33274513  0.18790388  0.48785482  1  1.554269  0  0.223009  0.610775  0  4.162804  0
C  C87  1  0.41909469  0.09087683  0.49498445  1  -0.095463  0  -0.01467  -0.030217  0  3.967222  0
C  C88  1  0.62514859  0.07200240  0.47499958  1  0.03395  0  -0.082839  -0.089771  0  3.961515  0
C  C89  1  0.29442751  0.01837270  0.51997515  1  -0.014171  0  -0.082948  -0.095293  0  3.971921  0
O  O90  1  0.45330728  0.45683203  0.56268514  1  -1.208077  0  -0.326795  -0.620072  0  2.454109  0
O  O91  1  0.11757131  0.43392948  0.59356862  1  -1.154332  0  -0.309083  -0.548273  0  2.260119  0
O  O92  1  0.84361418  0.23452345  0.85632055  1  -1.173269  0  -0.323698  -0.568426  0  2.342965  0
O  O93  1  0.55480089  0.14000137  0.85690242  1  -1.185545  0  -0.320134  -0.574516  0  2.319254  0
O  O94  1  0.46210905  0.24475049  0.98847909  1  -1.196786  0  -0.317133  -0.580118  0  2.341339  0
O  O95  1  0.12977019  0.30540312  0.98087143  1  -1.169422  0  -0.325155  -0.56382  0  2.318858  0
O  O96  1  0.19816274  0.61793344  0.50280426  1  -1.238636  0  -0.560119  -0.859176  0  2.331682  0
O  O97  1  0.81620652  0.58563712  0.56634888  1  -1.218084  0  -0.558221  -0.86382  0  2.283867  0
O  O98  1  0.54671310  0.95683085  0.93731691  1  -1.208046  0  -0.326816  -0.620037  0  2.453958  0
O  O99  1  0.88244379  0.93393510  0.90642518  1  -1.154522  0  -0.309015  -0.548187  0  2.259923  0
O  O100  1  0.15636044  0.73451716  0.64369288  1  -1.173039  0  -0.323813  -0.568587  0  2.342764  0
O  O101  1  0.44519710  0.64000737  0.64309753  1  -1.185401  0  -0.320064  -0.574448  0  2.319221  0
O  O102  1  0.53788701  0.74475106  0.51152034  1  -1.196794  0  -0.317156  -0.580193  0  2.341119  0
O  O103  1  0.87022533  0.80540876  0.51914109  1  -1.169386  0  -0.325238  -0.563818  0  2.318714  0
O  O104  1  0.80184779  0.11792882  0.99720277  1  -1.238635  0  -0.560109  -0.859281  0  2.331754  0
O  O105  1  0.18379529  0.08563731  0.93365604  1  -1.217713  0  -0.558219  -0.863631  0  2.283999  0
O  O106  1  0.54670410  0.54316867  0.43731931  1  -1.208184  0  -0.326786  -0.619915  0  2.454058  0
O  O107  1  0.88244386  0.56608101  0.40642767  1  -1.15444  0  -0.309033  -0.548102  0  2.260153  0
O  O108  1  0.15637609  0.76547585  0.14367006  1  -1.173222  0  -0.323704  -0.568386  0  2.342806  0
O  O109  1  0.44521211  0.85999863  0.14310155  1  -1.186014  0  -0.320128  -0.574561  0  2.319256  0
O  O110  1  0.53790584  0.75524951  0.01152081  1  -1.196804  0  -0.317162  -0.580246  0  2.341374  0
O  O111  1  0.87023349  0.69459338  0.01913029  1  -1.169553  0  -0.325187  -0.563796  0  2.319003  0
O  O112  1  0.80185204  0.38207914  0.49719718  1  -1.238382  0  -0.56011  -0.859161  0  2.331507  0
O  O113  1  0.18381470  0.41437128  0.43365115  1  -1.218081  0  -0.558148  -0.863538  0  2.283808  0
O  O114  1  0.45329564  0.04316845  0.06268079  1  -1.20812  0  -0.326763  -0.619891  0  2.45407  0
O  O115  1  0.11754278  0.06607958  0.09357255  1  -1.154463  0  -0.309063  -0.548083  0  2.259772  0
O  O116  1  0.84364215  0.26547794  0.35632323  1  -1.173246  0  -0.323762  -0.56853  0  2.342784  0
O  O117  1  0.55479618  0.35999892  0.35689520  1  -1.185622  0  -0.320069  -0.574416  0  2.319295  0
O  O118  1  0.46211382  0.25525384  0.48847719  1  -1.197078  0  -0.317116  -0.580166  0  2.341312  0
O  O119  1  0.12978239  0.19460103  0.48086997  1  -1.169352  0  -0.325056  -0.563686  0  2.318848  0
O  O120  1  0.19814794  0.88207468  0.00279929  1  -1.238717  0  -0.560089  -0.859243  0  2.331543  0
O  O121  1  0.81619117  0.91436479  0.06634323  1  -1.217631  0  -0.558205  -0.863669  0  2.283848  0
