# generated using pymatgen
data_UAg2H6C14(NO5)2
_symmetry_space_group_name_H-M   'P 1'
_cell_length_a   8.58466964
_cell_length_b   9.44017362
_cell_length_c   12.14982797
_cell_angle_alpha   71.29560268
_cell_angle_beta   67.96904361
_cell_angle_gamma   65.74523097
_symmetry_Int_Tables_number   1
_chemical_formula_structural   UAg2H6C14(NO5)2
_chemical_formula_sum   'U2 Ag4 H12 C28 N4 O20'
_cell_volume   815.83892992
_cell_formula_units_Z   2
loop_
 _symmetry_equiv_pos_site_id
 _symmetry_equiv_pos_as_xyz
  1  'x, y, z'
loop_
 _atom_site_type_symbol
 _atom_site_label
 _atom_site_symmetry_multiplicity
 _atom_site_fract_x
 _atom_site_fract_y
 _atom_site_fract_z
 _atom_site_occupancy
 _atom_site_hle17_bader_spin_density
 _atom_site_hle17_ddec_charge
 _atom_site_hle17_ddec_spin_density
 _atom_site_hle17_ddec_sum_bond_order
 _atom_site_hle17_magmom
 _atom_site_hse06_10hf_bader_spin_density
 _atom_site_hse06_10hf_ddec_charge
 _atom_site_hse06_10hf_ddec_spin_density
 _atom_site_hse06_10hf_ddec_sum_bond_order
 _atom_site_hse06_10hf_magmom
 _atom_site_hse06_bader_spin_density
 _atom_site_hse06_ddec_charge
 _atom_site_hse06_ddec_spin_density
 _atom_site_hse06_ddec_sum_bond_order
 _atom_site_hse06_magmom
 _atom_site_pbe_bader_spin_density
 _atom_site_pbe_cm5_charge
 _atom_site_pbe_ddec_charge
 _atom_site_pbe_ddec_spin_density
 _atom_site_pbe_ddec_sum_bond_order
 _atom_site_pbe_magmom
U  U0  1  0.62043994  0.27558649  0.82470167  1  0  2.372283  0  4.142099  0  0  2.39131  0  4.819233  0  0  2.505116  0  4.783596  0  0  2.125593  2.311927  0  4.84403  0
U  U1  1  0.37956536  0.72442071  0.17529872  1  0  2.37214  0  4.142044  0  0  2.391196  0  4.819234  0  0  2.505026  0  4.783574  0  0  2.125509  2.311908  0  4.843905  0
Ag  Ag2  1  0.95906633  0.12073778  0.26416011  1  0  0.671991  0  1.30775  0  0  0.564222  0  1.736765  0  0  0.597111  0  1.679839  0  0  0.473001  0.541707  0  1.77622  0
Ag  Ag3  1  0.04093028  0.87926590  0.73583926  1  0  0.671984  0  1.307707  0  0  0.564192  0  1.736744  0  0  0.597085  0  1.679821  0  0  0.472997  0.541664  0  1.776229  0
Ag  Ag4  1  0.88903141  0.40062219  0.08212715  1  0  0.638194  0  1.310986  0  0  0.51839  0  1.769284  0  0  0.560335  0  1.698483  0  0  0.433207  0.489407  0  1.818434  0
Ag  Ag5  1  0.11097289  0.59939090  0.91787617  1  0  0.63818  0  1.310999  0  0  0.518407  0  1.769265  0  0  0.560351  0  1.698465  0  0  0.433177  0.489424  0  1.81841  0
H  H6  1  0.82137899  0.67017202  0.27189839  1  0  0.113815  0  0.930956  0  0  0.126007  0  0.985228  0  0  0.128777  0  0.983402  0  0  0.122086  0.124046  0  0.986584  0
H  H7  1  0.17861392  0.32982811  0.72810198  1  0  0.113817  0  0.930959  0  0  0.126047  0  0.985185  0  0  0.128792  0  0.983392  0  0  0.122074  0.124084  0  0.986543  0
H  H8  1  0.52212783  0.77541199  0.42055360  1  0  0.126485  0  0.943664  0  0  0.136072  0  1.002639  0  0  0.139599  0  1.000472  0  0  0.120678  0.133631  0  1.004175  0
H  H9  1  0.47786439  0.22458343  0.57944397  1  0  0.12649  0  0.943683  0  0  0.136086  0  1.002645  0  0  0.13961  0  1.000479  0  0  0.120675  0.133644  0  1.004179  0
H  H10  1  0.31017522  0.21346254  0.33158276  1  0  0.12607  0  0.964405  0  0  0.132906  0  1.029777  0  0  0.13712  0  1.027264  0  0  0.113683  0.129775  0  1.031796  0
H  H11  1  0.68982415  0.78652691  0.66842017  1  0  0.125996  0  0.964501  0  0  0.132855  0  1.029859  0  0  0.137057  0  1.027352  0  0  0.113669  0.129723  0  1.031879  0
H  H12  1  0.03467262  0.40961234  0.34172602  1  0  0.13109  0  0.963701  0  0  0.138643  0  1.026425  0  0  0.142691  0  1.023639  0  0  0.117653  0.135727  0  1.028533  0
H  H13  1  0.96531952  0.59038663  0.65827154  1  0  0.131067  0  0.963632  0  0  0.138616  0  1.026371  0  0  0.142659  0  1.023596  0  0  0.117653  0.135702  0  1.028477  0
H  H14  1  0.59085447  0.02898397  0.39041391  1  0  0.106218  0  0.930703  0  0  0.117563  0  0.987782  0  0  0.120614  0  0.9859  0  0  0.114914  0.115279  0  0.989316  0
H  H15  1  0.40914234  0.97100545  0.60959382  1  0  0.10617  0  0.930716  0  0  0.117561  0  0.98777  0  0  0.120617  0  0.985882  0  0  0.114887  0.115273  0  0.989297  0
H  H16  1  0.85247569  0.89748816  0.23107388  1  0  0.120428  0  0.960537  0  0  0.125511  0  1.028166  0  0  0.129652  0  1.025254  0  0  0.116959  0.122489  0  1.030413  0
H  H17  1  0.14752507  0.10251430  0.76892966  1  0  0.120404  0  0.960613  0  0  0.125533  0  1.028198  0  0  0.129678  0  1.025283  0  0  0.116984  0.122508  0  1.030447  0
C  C18  1  0.78738546  0.60650892  0.36496335  1  0  0.014612  0  3.642137  0  0  -0.000313  0  3.891427  0  0  0.001284  0  3.90852  0  0  -0.050573  -0.001322  0  3.879888  0
C  C19  1  0.21260460  0.39348886  0.63503586  1  0  0.014476  0  3.642199  0  0  -0.000459  0  3.891498  0  0  0.001151  0  3.908599  0  0  -0.050599  -0.001467  0  3.879958  0
C  C20  1  0.62226883  0.66470371  0.44625444  1  0  -0.080043  0  3.638338  0  0  -0.107842  0  3.887787  0  0  -0.110333  0  3.905991  0  0  -0.057077  -0.10612  0  3.875507  0
C  C21  1  0.37772049  0.33528935  0.55374445  1  0  -0.080007  0  3.638249  0  0  -0.107822  0  3.887751  0  0  -0.110304  0  3.905945  0  0  -0.057068  -0.106097  0  3.875469  0
C  C22  1  0.85452186  0.93561762  0.99545793  1  0  0.623847  0  3.898182  0  0  0.573756  0  4.187826  0  0  0.609719  0  4.182287  0  0  0.22071  0.549125  0  4.19054  0
C  C23  1  0.14548717  0.06438955  0.00454478  1  0  0.623848  0  3.898514  0  0  0.573683  0  4.188105  0  0  0.609648  0  4.182566  0  0  0.220729  0.549051  0  4.190821  0
C  C24  1  0.97123250  0.21920347  0.56925950  1  0  0.621267  0  3.918999  0  0  0.578575  0  4.21477  0  0  0.613722  0  4.206205  0  0  0.217252  0.554513  0  4.219663  0
C  C25  1  0.02876254  0.78079789  0.43073508  1  0  0.621404  0  3.918816  0  0  0.578667  0  4.21467  0  0  0.613814  0  4.2061  0  0  0.21731  0.554619  0  4.219555  0
C  C26  1  0.43276469  0.16506165  0.26409507  1  0  -0.070564  0  3.602251  0  0  -0.095196  0  3.843961  0  0  -0.09758  0  3.859903  0  0  -0.054921  -0.093702  0  3.83358  0
C  C27  1  0.56723618  0.83493727  0.73590600  1  0  -0.070488  0  3.602264  0  0  -0.095174  0  3.844026  0  0  -0.097547  0  3.859973  0  0  -0.054923  -0.093677  0  3.833644  0
C  C28  1  0.85669323  0.37961817  0.52147152  1  0  0.116888  0  3.748119  0  0  0.126022  0  3.991502  0  0  0.128218  0  4.009177  0  0  0.12346  0.124284  0  3.979758  0
C  C29  1  0.14329896  0.62038084  0.47852190  1  0  0.116854  0  3.748002  0  0  0.126011  0  3.991366  0  0  0.128207  0  4.009038  0  0  0.123409  0.124268  0  3.979626  0
C  C30  1  0.90711278  0.46192002  0.40341658  1  0  -0.08525  0  3.64193  0  0  -0.111533  0  3.890011  0  0  -0.114403  0  3.907184  0  0  -0.061745  -0.109772  0  3.878824  0
C  C31  1  0.09287900  0.53807659  0.59657999  1  0  -0.08513  0  3.641748  0  0  -0.111437  0  3.889875  0  0  -0.114304  0  3.90704  0  0  -0.061711  -0.109678  0  3.878692  0
C  C32  1  0.58278149  0.57473266  0.56274117  1  0  0.102469  0  3.761694  0  0  0.111571  0  4.008922  0  0  0.111811  0  4.028573  0  0  0.118689  0.111185  0  3.995705  0
C  C33  1  0.41720662  0.42526043  0.43725391  1  0  0.102493  0  3.761522  0  0  0.111486  0  4.008839  0  0  0.111722  0  4.028491  0  0  0.118646  0.111096  0  3.995637  0
C  C34  1  0.40741441  0.62350134  0.65474101  1  0  0.619444  0  3.931062  0  0  0.570469  0  4.220936  0  0  0.606316  0  4.216334  0  0  0.22298  0.546033  0  4.222989  0
C  C35  1  0.59258106  0.37649881  0.34525540  1  0  0.619354  0  3.931047  0  0  0.570513  0  4.220754  0  0  0.606362  0  4.216151  0  0  0.223029  0.546076  0  4.222802  0
C  C36  1  0.28681978  0.31753316  0.09306579  1  0  0.650929  0  3.876312  0  0  0.599829  0  4.164523  0  0  0.637889  0  4.155161  0  0  0.225793  0.573767  0  4.169849  0
C  C37  1  0.71318441  0.68246694  0.90693495  1  0  0.650958  0  3.876171  0  0  0.599877  0  4.164331  0  0  0.637936  0  4.154971  0  0  0.225916  0.573814  0  4.169659  0
C  C38  1  0.58565416  0.05901903  0.29716997  1  0  0.007459  0  3.671626  0  0  -0.009257  0  3.922518  0  0  -0.006397  0  3.937329  0  0  -0.05841  -0.011153  0  3.912768  0
C  C39  1  0.41434920  0.94097988  0.70283210  1  0  0.007605  0  3.671509  0  0  -0.009161  0  3.922435  0  0  -0.006303  0  3.937247  0  0  -0.058348  -0.011042  0  3.91267  0
C  C40  1  0.73292727  0.98711884  0.20932950  1  0  -0.113047  0  3.686036  0  0  -0.134949  0  3.94175  0  0  -0.137326  0  3.95551  0  0  -0.069434  -0.133581  0  3.932969  0
C  C41  1  0.26707936  0.01288481  0.79067058  1  0  -0.112942  0  3.686096  0  0  -0.134988  0  3.941767  0  0  -0.137371  0  3.955534  0  0  -0.069411  -0.133618  0  3.932988  0
C  C42  1  0.43929275  0.20556676  0.14175848  1  0  0.132217  0  3.718675  0  0  0.141037  0  3.96334  0  0  0.143001  0  3.979628  0  0  0.136094  0.139501  0  3.95248  0
C  C43  1  0.56070647  0.79442979  0.85824442  1  0  0.132107  0  3.718682  0  0  0.140941  0  3.963329  0  0  0.142903  0  3.979627  0  0  0.136067  0.139409  0  3.952473  0
C  C44  1  0.72276986  0.02687837  0.09080999  1  0  0.135756  0  3.74153  0  0  0.1421  0  3.987751  0  0  0.144566  0  4.00403  0  0  0.130666  0.140274  0  3.976878  0
C  C45  1  0.27723763  0.97312289  0.90919209  1  0  0.135536  0  3.741892  0  0  0.142159  0  3.987698  0  0  0.144626  0  4.003981  0  0  0.130625  0.140333  0  3.976827  0
N  N46  1  0.69791407  0.43491484  0.60014265  1  0  -0.384557  0  3.273869  0  0  -0.362032  0  3.545025  0  0  -0.381377  0  3.571619  0  0  -0.344667  -0.348532  0  3.526669  0
N  N47  1  0.30208311  0.56508414  0.39985278  1  0  -0.384555  0  3.27379  0  0  -0.361962  0  3.544898  0  0  -0.381307  0  3.571491  0  0  -0.344561  -0.348466  0  3.526548  0
N  N48  1  0.58326804  0.14111498  0.05625491  1  0  -0.380962  0  3.256768  0  0  -0.363194  0  3.533393  0  0  -0.382039  0  3.557667  0  0  -0.34062  -0.349975  0  3.516529  0
N  N49  1  0.41674023  0.85888745  0.94374998  1  0  -0.380889  0  3.257106  0  0  -0.363189  0  3.533595  0  0  -0.382039  0  3.557876  0  0  -0.340603  -0.349978  0  3.516736  0
O  O50  1  0.13110336  0.35366752  0.16181845  1  0  -0.600884  0  2.079717  0  0  -0.536748  0  2.344117  0  0  -0.567352  0  2.329309  0  0  -0.290155  -0.515092  0  2.353461  0
O  O51  1  0.86890376  0.64633137  0.83818430  1  0  -0.600878  0  2.07958  0  0  -0.536751  0  2.343962  0  0  -0.567356  0  2.329169  0  0  -0.2902  -0.515089  0  2.353304  0
O  O52  1  0.82738862  0.99488812  0.88980091  1  0  -0.657295  0  2.186856  0  0  -0.605353  0  2.472842  0  0  -0.643693  0  2.468213  0  0  -0.336089  -0.578114  0  2.474851  0
O  O53  1  0.17262588  0.00511786  0.11020068  1  0  -0.657256  0  2.187099  0  0  -0.605349  0  2.473147  0  0  -0.64369  0  2.46852  0  0  -0.336104  -0.578113  0  2.47515  0
O  O54  1  0.39517096  0.53525738  0.76080592  1  0  -0.667771  0  2.171364  0  0  -0.623634  0  2.460054  0  0  -0.661819  0  2.455327  0  0  -0.34084  -0.596276  0  2.461609  0
O  O55  1  0.60481898  0.46474752  0.23919076  1  0  -0.6677  0  2.171303  0  0  -0.623599  0  2.459944  0  0  -0.661783  0  2.455213  0  0  -0.340887  -0.596269  0  2.461546  0
O  O56  1  0.97262516  0.80913999  0.02318310  1  0  -0.568927  0  2.037955  0  0  -0.508004  0  2.300568  0  0  -0.538888  0  2.289105  0  0  -0.285929  -0.486048  0  2.307598  0
O  O57  1  0.02737270  0.19086009  0.97682259  1  0  -0.568919  0  2.037989  0  0  -0.507976  0  2.300564  0  0  -0.53886  0  2.2891  0  0  -0.285948  -0.486019  0  2.307591  0
O  O58  1  0.89593270  0.16175326  0.68075598  1  0  -0.68614  0  2.175332  0  0  -0.650479  0  2.465026  0  0  -0.689856  0  2.459378  0  0  -0.379467  -0.622094  0  2.46745  0
O  O59  1  0.10406834  0.83825869  0.31924270  1  0  -0.686252  0  2.175222  0  0  -0.650559  0  2.46491  0  0  -0.689939  0  2.459261  0  0  -0.37953  -0.622187  0  2.467327  0
O  O60  1  0.32974835  0.36676760  0.97701092  1  0  -0.661422  0  2.170654  0  0  -0.614557  0  2.45899  0  0  -0.654273  0  2.452035  0  0  -0.349437  -0.586113  0  2.462271  0
O  O61  1  0.67025751  0.63323131  0.02299133  1  0  -0.661406  0  2.170656  0  0  -0.614549  0  2.458996  0  0  -0.65427  0  2.452052  0  0  -0.349506  -0.586111  0  2.462278  0
O  O62  1  0.51513237  0.17458149  0.78648870  1  0  -0.683992  0  1.629975  0  0  -0.684517  0  1.94122  0  0  -0.708312  0  1.932485  0  0  -0.761804  -0.67041  0  1.947992  0
O  O63  1  0.48489208  0.82540432  0.21351850  1  0  -0.683871  0  1.629828  0  0  -0.684474  0  1.941143  0  0  -0.708281  0  1.932411  0  0  -0.761669  -0.670387  0  1.947897  0
O  O64  1  0.72200293  0.38356718  0.85870526  1  0  -0.662934  0  1.58177  0  0  -0.664928  0  1.881927  0  0  -0.687036  0  1.870219  0  0  -0.757863  -0.652066  0  1.890637  0
O  O65  1  0.27799339  0.61645069  0.14129403  1  0  -0.6629  0  1.581747  0  0  -0.664926  0  1.881957  0  0  -0.687043  0  1.870242  0  0  -0.757892  -0.652087  0  1.890646  0
O  O66  1  0.28686254  0.74490036  0.62162648  1  0  -0.580204  0  2.134558  0  0  -0.509934  0  2.400375  0  0  -0.541841  0  2.391198  0  0  -0.300547  -0.487608  0  2.405946  0
O  O67  1  0.71312803  0.25509269  0.37837292  1  0  -0.580146  0  2.134595  0  0  -0.509926  0  2.400367  0  0  -0.54183  0  2.391178  0  0  -0.300546  -0.4876  0  2.405937  0
O  O68  1  0.12015217  0.15029145  0.50723225  1  0  -0.547504  0  1.892041  0  0  -0.511523  0  2.107971  0  0  -0.535016  0  2.099797  0  0  -0.293853  -0.4947  0  2.112978  0
O  O69  1  0.87984507  0.84970397  0.49276402  1  0  -0.547507  0  1.892003  0  0  -0.51152  0  2.107948  0  0  -0.535012  0  2.099774  0  0  -0.293838  -0.4947  0  2.112949  0
