# generated using pymatgen
data_Mn2H17C20(NO5)3
_symmetry_space_group_name_H-M   'P 1'
_cell_length_a   13.01259974
_cell_length_b   15.24138230
_cell_length_c   15.24151534
_cell_angle_alpha   63.38989485
_cell_angle_beta   78.87191374
_cell_angle_gamma   78.87219440
_symmetry_Int_Tables_number   1
_chemical_formula_structural   Mn2H17C20(NO5)3
_chemical_formula_sum   'Mn8 H68 C80 N12 O60'
_cell_volume   2632.20839782
_cell_formula_units_Z   4
loop_
 _symmetry_equiv_pos_site_id
 _symmetry_equiv_pos_as_xyz
  1  'x, y, z'
loop_
 _atom_site_type_symbol
 _atom_site_label
 _atom_site_symmetry_multiplicity
 _atom_site_fract_x
 _atom_site_fract_y
 _atom_site_fract_z
 _atom_site_occupancy
 _atom_site_pbe_bader_charge
 _atom_site_pbe_bader_spin_density
 _atom_site_pbe_cm5_charge
 _atom_site_pbe_ddec_charge
 _atom_site_pbe_ddec_spin_density
 _atom_site_pbe_ddec_sum_bond_order
 _atom_site_pbe_magmom
Mn  Mn0  1  0.16077762  0.70935155  0.53542615  1  1.516676  4.553562  0.610504  1.056666  4.663306  2.22905  4.47
Mn  Mn1  1  0.33922295  0.46457079  0.29064897  1  1.516685  4.553563  0.610509  1.056669  4.663288  2.229038  4.47
Mn  Mn2  1  0.83922199  0.29064436  0.46457773  1  1.516617  4.553589  0.610506  1.056573  4.663342  2.229112  4.47
Mn  Mn3  1  0.66077636  0.53542735  0.70935332  1  1.516506  4.553576  0.6105  1.056698  4.66327  2.229073  4.47
Mn  Mn4  1  0.39130071  0.67152106  0.67603596  1  1.567795  4.53745  0.616175  1.109178  4.662733  2.273994  4.479
Mn  Mn5  1  0.10869654  0.32396118  0.32848184  1  1.567739  4.537465  0.616137  1.108933  4.662769  2.274208  4.479
Mn  Mn6  1  0.60869949  0.32848157  0.32395894  1  1.567843  4.53742  0.616151  1.10901  4.662731  2.274184  4.479
Mn  Mn7  1  0.89129914  0.67604063  0.67152077  1  1.567829  4.537432  0.61616  1.109045  4.662731  2.274106  4.479
H  H8  1  0.98574186  0.34687245  0.75994256  1  0.113826  0.000655  0.119963  0.117044  0.000136  1.02633  0.0
H  H9  1  0.51425582  0.24006047  0.65312742  1  0.114204  0.000655  0.119937  0.116925  0.000136  1.02632  0.0
H  H10  1  0.01425948  0.65312793  0.24005773  1  0.113846  0.000655  0.119943  0.116966  0.000136  1.026304  0.0
H  H11  1  0.48574904  0.75993697  0.34687290  1  0.114351  0.000655  0.119929  0.116905  0.000136  1.026402  0.0
H  H12  1  0.18439276  0.45694710  0.48265587  1  0.136258  0.000208  0.117528  0.124001  -0.000899  1.024001  0.0
H  H13  1  0.31560933  0.51734645  0.54304890  1  0.136206  0.000208  0.117501  0.123955  -0.0009  1.024002  0.0
H  H14  1  0.81561859  0.54304888  0.51734661  1  0.13624  0.000208  0.117522  0.12396  -0.0009  1.024005  0.0
H  H15  1  0.68439762  0.48265252  0.45694580  1  0.136437  0.000208  0.117527  0.12402  -0.000899  1.024029  0.0
H  H16  1  0.34919589  0.91599859  0.67625693  1  0.146802  5.5e-05  0.123234  0.132379  -0.00032  1.01042  0.0
H  H17  1  0.15080573  0.32373463  0.08400199  1  0.146664  5.5e-05  0.123223  0.132381  -0.00032  1.010456  0.0
H  H18  1  0.65080900  0.08400407  0.32373649  1  0.146829  5.5e-05  0.123228  0.132384  -0.00032  1.010453  0.0
H  H19  1  0.84919039  0.67626352  0.91599691  1  0.146819  5.5e-05  0.123246  0.132419  -0.00032  1.010431  0.0
H  H20  1  0.05651990  0.98740877  0.55421443  1  0.091918  0.000332  0.112743  0.115183  -0.000231  1.003095  0.0
H  H21  1  0.44347138  0.44579895  0.01258213  1  0.092041  0.000332  0.112777  0.11522  -0.000231  1.00304  0.0
H  H22  1  0.94347854  0.01258487  0.44579788  1  0.091883  0.000332  0.112746  0.115159  -0.000231  1.003093  0.0
H  H23  1  0.55652418  0.55420361  0.98741819  1  0.091948  0.000332  0.112756  0.115201  -0.000231  1.003045  0.0
H  H24  1  0.45095129  0.72355051  0.85163255  1  0.086146  0.000355  0.103948  0.161655  -0.000183  1.004548  0.0
H  H25  1  0.04905351  0.14836184  0.27645075  1  0.08628  0.000355  0.103973  0.161728  -0.000183  1.004502  0.0
H  H26  1  0.54904513  0.27645724  0.14836533  1  0.088668  0.000355  0.103945  0.161612  -0.000183  1.004571  0.0
H  H27  1  0.95095356  0.85163638  0.72354622  1  0.086189  0.000355  0.103953  0.161664  -0.000183  1.004486  0.0
H  H28  1  0.39216621  0.70342440  0.97455831  1  0.064364  0.000504  0.100781  0.158185  0.00013  1.022936  0.0
H  H29  1  0.10783671  0.02543651  0.29657565  1  0.06432  0.000504  0.100791  0.158232  0.00013  1.023086  0.0
H  H30  1  0.60782500  0.29658112  0.02543883  1  0.064088  0.000504  0.100772  0.158161  0.00013  1.023016  0.0
H  H31  1  0.89216862  0.97456317  0.70342229  1  0.064318  0.000504  0.100778  0.158216  0.00013  1.023022  0.0
H  H32  1  0.35405222  0.81385090  0.87185987  1  0.075709  0.000278  0.107798  0.164032  0.000172  0.978472  0.0
H  H33  1  0.14595373  0.12813631  0.18615148  1  0.075749  0.000278  0.107818  0.164034  0.000172  0.978497  0.0
H  H34  1  0.64593813  0.18615535  0.12813841  1  0.075842  0.000278  0.107773  0.164007  0.000172  0.978538  0.0
H  H35  1  0.85405485  0.87186263  0.81384754  1  0.07577  0.000278  0.107809  0.16404  0.000172  0.978511  0.0
H  H36  1  0.22290208  0.62641795  0.10153666  1  0.065435  0.001081  0.10079  0.110485  0.000542  1.034207  0.0
H  H37  1  0.27710505  0.89845939  0.37357577  1  0.065402  0.001081  0.100778  0.110467  0.000542  1.03421  0.0
H  H38  1  0.77709541  0.37357578  0.89846264  1  0.06532  0.001082  0.100763  0.110445  0.000542  1.034244  0.0
H  H39  1  0.72289921  0.10154249  0.62642269  1  0.084032  0.00107  0.100776  0.110465  0.000542  1.03429  0.0
H  H40  1  0.10461504  0.70111342  0.05349734  1  0.079274  0.000397  0.10743  0.129425  0.000211  1.01214  0.0
H  H41  1  0.39538862  0.94650211  0.29888348  1  0.07958  0.000397  0.107419  0.129361  0.000211  1.012173  0.0
H  H42  1  0.89538403  0.29888031  0.94650234  1  0.079669  0.000397  0.107415  0.129379  0.000211  1.012156  0.0
H  H43  1  0.60461352  0.05349826  0.70111734  1  0.079636  0.000397  0.107414  0.129374  0.000211  1.012168  0.0
H  H44  1  0.22411159  0.75425887  0.01882550  1  0.078693  0.000148  0.114703  0.137102  2.6e-05  0.977916  0.0
H  H45  1  0.27589423  0.98117307  0.24573951  1  0.078693  0.000148  0.114687  0.137097  2.6e-05  0.9779  0.0
H  H46  1  0.77588438  0.24573483  0.98117802  1  0.078612  0.000148  0.114667  0.137035  2.6e-05  0.97783  0.0
H  H47  1  0.72411105  0.01882731  0.75426207  1  0.078585  0.000148  0.114706  0.137082  2.6e-05  0.977853  0.0
H  H48  1  0.06545323  0.65901469  0.91187319  1  0.105225  0.00083  0.102579  0.126657  0.000195  0.998736  0.0
H  H49  1  0.43454843  0.08812135  0.34098851  1  0.105233  0.00083  0.102597  0.126682  0.000195  0.99874  0.0
H  H50  1  0.93454482  0.34098644  0.08812274  1  0.105258  0.00083  0.102582  0.12666  0.000195  0.998812  0.0
H  H51  1  0.56545507  0.91188051  0.65901206  1  0.10529  0.00083  0.102572  0.126603  0.000195  0.998801  0.0
H  H52  1  0.10598493  0.55519454  0.02032540  1  0.078039  0.000526  0.107287  0.131097  2.7e-05  0.983778  0.0
H  H53  1  0.39401681  0.97966837  0.44480730  1  0.077811  0.000526  0.107399  0.131344  2.7e-05  0.983617  0.0
H  H54  1  0.89401430  0.44480365  0.97967097  1  0.077888  0.000526  0.107344  0.131228  2.7e-05  0.983731  0.0
H  H55  1  0.60598914  0.02033276  0.55519317  1  0.077842  0.000527  0.107372  0.131219  2.7e-05  0.983616  0.0
H  H56  1  0.16950940  0.56848730  0.90033561  1  0.106528  0.000466  0.104681  0.124494  -9.5e-05  1.036056  0.0
H  H57  1  0.33049238  0.09965778  0.43151598  1  0.106638  0.000466  0.10471  0.124508  -9.5e-05  1.036046  0.0
H  H58  1  0.83049108  0.43151312  0.09965891  1  0.106651  0.000466  0.104729  0.124521  -9.5e-05  1.036039  0.0
H  H59  1  0.66951200  0.90034335  0.56848476  1  0.106618  0.000466  0.104707  0.12449  -9.5e-05  1.036022  0.0
H  H60  1  0.31415766  0.74106421  0.36849722  1  0.645578  0.003478  0.331881  0.417854  0.002098  0.86616  0.003
H  H61  1  0.18584128  0.63150286  0.25893232  1  0.645569  0.003479  0.331855  0.417869  0.002099  0.866121  0.003
H  H62  1  0.68584152  0.25893468  0.63150279  1  0.645575  0.003479  0.331856  0.417828  0.002099  0.866194  0.003
H  H63  1  0.81415738  0.36849974  0.74106482  1  0.645608  0.003479  0.331863  0.41783  0.002099  0.866144  0.003
H  H64  1  0.36916000  0.68953865  0.46958470  1  0.656409  0.001552  0.298027  0.385785  0.000544  0.963304  0.002
H  H65  1  0.13084136  0.53041203  0.31046158  1  0.656458  0.001552  0.298043  0.385813  0.000545  0.963307  0.002
H  H66  1  0.63084199  0.31046249  0.53041251  1  0.656487  0.001552  0.298027  0.3858  0.000545  0.963287  0.002
H  H67  1  0.86915576  0.46959054  0.68953847  1  0.656507  0.001551  0.298009  0.385769  0.000545  0.96335  0.002
H  H68  1  0.57445194  0.76157390  0.60603617  1  0.649794  0.001303  0.297232  0.38655  0.001001  0.953142  0.002
H  H69  1  0.92554621  0.39396667  0.23842734  1  0.649775  0.001303  0.297252  0.386609  0.001001  0.953061  0.002
H  H70  1  0.42554559  0.23842571  0.39396511  1  0.649786  0.001303  0.297215  0.386563  0.001001  0.953124  0.002
H  H71  1  0.07445475  0.60603665  0.76157369  1  0.649781  0.001303  0.297241  0.386575  0.001001  0.953103  0.002
H  H72  1  0.57037003  0.70334683  0.72283796  1  0.647483  0.001942  0.303389  0.382757  0.002087  0.953742  0.002
H  H73  1  0.92962526  0.27716148  0.29665914  1  0.647339  0.001948  0.303359  0.382735  0.002087  0.953762  0.002
H  H74  1  0.42962590  0.29665870  0.27716033  1  0.647388  0.001947  0.303375  0.382746  0.002087  0.953747  0.002
H  H75  1  0.07037188  0.72284109  0.70334157  1  0.647434  0.001946  0.303366  0.3827  0.002087  0.953818  0.002
C  C76  1  0.05143457  0.51780215  0.60918088  1  1.586194  0.016811  0.2342  0.60505  0.016162  4.153513  0.015
C  C77  1  0.44856577  0.39082253  0.48219206  1  1.586027  0.016812  0.234197  0.605103  0.016162  4.153578  0.015
C  C78  1  0.94857060  0.48219307  0.39082103  1  1.586237  0.01681  0.234198  0.604992  0.016162  4.153622  0.015
C  C79  1  0.55144118  0.60917645  0.51780198  1  1.58561  0.016817  0.234134  0.604999  0.016164  4.153459  0.015
C  C80  1  0.08062597  0.41425243  0.61920566  1  -0.024535  0.002948  -0.01175  -0.030096  0.001657  3.969193  0.001
C  C81  1  0.41938091  0.38080131  0.58573981  1  -0.02433  0.002947  -0.011776  -0.030345  0.001657  3.96927  0.001
C  C82  1  0.91938077  0.58573756  0.38080486  1  -0.024401  0.002947  -0.011696  -0.030069  0.001657  3.969223  0.001
C  C83  1  0.58062802  0.61920061  0.41425586  1  -0.023963  0.002948  -0.011799  -0.030257  0.001658  3.96934  0.001
C  C84  1  0.03818032  0.33561570  0.70022094  1  0.017785  0.00822  -0.066879  -0.119139  0.006197  3.963797  0.005
C  C85  1  0.46181448  0.29978221  0.66438288  1  0.017148  0.008222  -0.066806  -0.118799  0.006198  3.963584  0.005
C  C86  1  0.96181792  0.66437874  0.29978317  1  0.017759  0.008221  -0.066867  -0.119022  0.006198  3.96384  0.005
C  C87  1  0.53819165  0.70021746  0.33561624  1  0.016823  0.008219  -0.066841  -0.118874  0.006196  3.963801  0.005
C  C88  1  0.06649412  0.24013354  0.70736647  1  0.254174  -0.000202  0.084007  0.029924  -0.000575  3.905607  -0.001
C  C89  1  0.43350388  0.29264378  0.75986282  1  0.254569  -0.000202  0.083979  0.029886  -0.000575  3.905559  -0.001
C  C90  1  0.93350878  0.75985571  0.29264307  1  0.254317  -0.000202  0.084061  0.030006  -0.000575  3.905595  -0.001
C  C91  1  0.56649616  0.70736030  0.24013474  1  0.254279  -0.000202  0.08398  0.030035  -0.000575  3.905746  -0.001
C  C92  1  0.14216173  0.21840528  0.63837664  1  0.020024  0.007331  0.021886  0.039116  0.0055  3.939938  0.004
C  C93  1  0.35783346  0.36162455  0.78159306  1  0.020097  0.007331  0.021901  0.039208  0.0055  3.939898  0.004
C  C94  1  0.85783597  0.78159287  0.36162263  1  0.020141  0.007334  0.021935  0.039117  0.005502  3.939973  0.004
C  C95  1  0.64216410  0.63838027  0.21840264  1  0.020282  0.007329  0.021885  0.039044  0.005499  3.939903  0.004
C  C96  1  0.18370392  0.29909626  0.55620096  1  0.033705  0.000725  -0.002186  -0.063444  -0.000427  3.912431  -0.001
C  C97  1  0.31629278  0.44380541  0.70089768  1  0.033716  0.000725  -0.002273  -0.063605  -0.000427  3.912491  -0.001
C  C98  1  0.81630066  0.70089815  0.44380863  1  0.033439  0.000725  -0.002237  -0.063498  -0.000428  3.912594  -0.001
C  C99  1  0.68370262  0.55619793  0.29909774  1  0.033714  0.000725  -0.002182  -0.06336  -0.000427  3.912198  -0.001
C  C100  1  0.15211932  0.39543614  0.54675970  1  0.03091  0.006709  -0.060121  -0.070836  0.004414  3.885373  0.004
C  C101  1  0.34787863  0.45324051  0.60456020  1  0.030302  0.006712  -0.060046  -0.07063  0.004415  3.885131  0.004
C  C102  1  0.84788449  0.60456350  0.45324180  1  0.030928  0.006709  -0.060166  -0.070826  0.004414  3.885525  0.004
C  C103  1  0.65212892  0.54675993  0.39543505  1  0.029899  0.00671  -0.060078  -0.070845  0.004413  3.885348  0.004
C  C104  1  0.16465381  0.11915778  0.63768668  1  0.048171  0.014983  0.019008  0.028122  0.011824  3.957111  0.01
C  C105  1  0.33533682  0.36231635  0.88083867  1  0.048248  0.014985  0.01907  0.028252  0.011824  3.956657  0.01
C  C106  1  0.83534275  0.88083739  0.36231674  1  0.048491  0.014988  0.018988  0.028176  0.011828  3.956836  0.01
C  C107  1  0.66465869  0.63768625  0.11915772  1  0.04827  0.014985  0.018971  0.028105  0.011825  3.956886  0.01
C  C108  1  0.25477660  0.05140367  0.66820705  1  0.224332  -0.002134  0.088312  0.039932  -0.002724  3.911634  -0.002
C  C109  1  0.24521921  0.33179279  0.94859173  1  0.224681  -0.002134  0.08826  0.039915  -0.002723  3.911541  -0.002
C  C110  1  0.74522873  0.94859601  0.33179090  1  0.22428  -0.002134  0.088259  0.039864  -0.002724  3.911799  -0.002
C  C111  1  0.75477798  0.66820907  0.05140534  1  0.224699  -0.002134  0.088273  0.039927  -0.002724  3.911642  -0.002
C  C112  1  0.27623666  0.96456431  0.65556508  1  0.082935  0.013037  -0.063106  -0.125498  0.010054  3.921788  0.008
C  C113  1  0.22375895  0.34442989  0.03543409  1  0.083021  0.013039  -0.063048  -0.125472  0.010056  3.921766  0.008
C  C114  1  0.72376162  0.03543533  0.34443345  1  0.082938  0.013041  -0.063074  -0.125474  0.010058  3.921703  0.008
C  C115  1  0.77623853  0.65556975  0.96456391  1  0.082682  0.01304  -0.063041  -0.125476  0.010057  3.921745  0.008
C  C116  1  0.20347713  0.94088219  0.61552741  1  -0.01835  -0.000968  -0.007894  -0.020937  -0.002396  3.980595  -0.002
C  C117  1  0.29651616  0.38447473  0.05911491  1  -0.018952  -0.000967  -0.007897  -0.020967  -0.002395  3.980682  -0.002
C  C118  1  0.79652432  0.05911744  0.38447385  1  -0.018925  -0.000969  -0.007904  -0.020974  -0.002397  3.98063  -0.002
C  C119  1  0.70347702  0.61552784  0.94088385  1  -0.019026  -0.000968  -0.007902  -0.020984  -0.002396  3.980686  -0.002
C  C120  1  0.11232043  0.00622247  0.58600359  1  0.001637  0.014207  -0.06176  -0.082885  0.010556  3.905931  0.009
C  C121  1  0.38766885  0.41400365  0.99377086  1  0.002132  0.014204  -0.061775  -0.08286  0.010554  3.906153  0.009
C  C122  1  0.88767561  0.99377118  0.41400453  1  0.001979  0.014207  -0.061757  -0.082815  0.010556  3.906024  0.009
C  C123  1  0.61232687  0.58599746  0.00622680  1  0.002016  0.014205  -0.061728  -0.082821  0.010555  3.906136  0.009
C  C124  1  0.09476263  0.09562170  0.59400003  1  -0.015913  -0.002369  -0.001794  -0.052448  -0.004092  3.928855  -0.003
C  C125  1  0.40522609  0.40601984  0.90436722  1  -0.01602  -0.002369  -0.001818  -0.052589  -0.004093  3.928845  -0.003
C  C126  1  0.90523521  0.90437046  0.40601172  1  -0.016036  -0.00237  -0.001746  -0.052428  -0.004094  3.928635  -0.003
C  C127  1  0.59476768  0.59398420  0.09563145  1  -0.015714  -0.00237  -0.001788  -0.052485  -0.004093  3.928839  -0.003
C  C128  1  0.00169880  0.16832717  0.55232990  1  1.573478  0.01506  0.221769  0.593409  0.015657  4.184134  0.013
C  C129  1  0.49829038  0.44768291  0.83165919  1  1.573893  0.01506  0.221797  0.593583  0.01566  4.183849  0.013
C  C130  1  0.99829594  0.83166495  0.44768437  1  1.574037  0.015058  0.221724  0.593373  0.015659  4.18408  0.013
C  C131  1  0.50170397  0.55232263  0.16833806  1  1.573936  0.015058  0.221763  0.593447  0.015659  4.18433  0.013
C  C132  1  0.22470415  0.84912282  0.59949781  1  1.574465  0.034785  0.229968  0.594122  0.033877  4.173154  0.029
C  C133  1  0.27528840  0.40050080  0.15087793  1  1.574759  0.034781  0.229987  0.594094  0.033876  4.173151  0.029
C  C134  1  0.77529450  0.15087979  0.40049867  1  1.574495  0.034791  0.229853  0.593907  0.033885  4.173313  0.029
C  C135  1  0.72470086  0.59950174  0.84912086  1  1.57396  0.034793  0.229957  0.594192  0.033881  4.17295  0.029
C  C136  1  0.26200104  0.28503381  0.47579864  1  1.567092  0.027872  0.223667  0.584902  0.026814  4.172999  0.022
C  C137  1  0.23799449  0.52420640  0.71496196  1  1.566672  0.027877  0.223659  0.584853  0.026812  4.173039  0.022
C  C138  1  0.73799719  0.71496063  0.52420482  1  1.566989  0.02787  0.223612  0.58473  0.026813  4.173225  0.022
C  C139  1  0.76200998  0.47579400  0.28503778  1  1.566889  0.027869  0.223704  0.584882  0.02681  4.172949  0.022
C  C140  1  0.29482812  0.68596978  0.88348866  1  1.344706  0.007109  0.249513  0.520749  0.006831  4.039712  0.007
C  C141  1  0.20517112  0.11650459  0.31403709  1  1.344745  0.007108  0.249482  0.520736  0.006829  4.039911  0.007
C  C142  1  0.70516492  0.31403946  0.11650520  1  1.344949  0.007108  0.249535  0.520725  0.00683  4.039918  0.007
C  C143  1  0.79483101  0.88349578  0.68596373  1  1.34498  0.007109  0.249508  0.520738  0.006831  4.03988  0.007
C  C144  1  0.37780928  0.73382378  0.89715688  1  -0.089881  0.001596  -0.236198  -0.515638  0.00103  3.896821  0.001
C  C145  1  0.12219331  0.10283741  0.26617964  1  -0.090166  0.001596  -0.236225  -0.515746  0.00103  3.897009  0.001
C  C146  1  0.62218597  0.26618101  0.10284186  1  -0.092494  0.001597  -0.236181  -0.515551  0.00103  3.896924  0.001
C  C147  1  0.87781088  0.89715928  0.73382179  1  -0.09015  0.001597  -0.236233  -0.51569  0.00103  3.896889  0.001
C  C148  1  0.19029498  0.68709913  0.03649454  1  0.262934  0.001288  -0.133869  -0.273759  0.001156  3.882221  0.001
C  C149  1  0.30970882  0.96350280  0.31289996  1  0.262527  0.001288  -0.133869  -0.273649  0.001156  3.882282  0.001
C  C150  1  0.80970670  0.31289833  0.96350239  1  0.262833  0.001288  -0.133868  -0.273625  0.001156  3.88202  0.001
C  C151  1  0.69029438  0.03650127  0.68709969  1  0.243881  0.0013  -0.133934  -0.273716  0.001156  3.882226  0.001
C  C152  1  0.13343198  0.60784410  0.94560739  1  0.199716  0.000817  -0.140467  -0.272899  0.000459  3.874627  0.0
C  C153  1  0.36657069  0.05438544  0.39215586  1  0.199872  0.000817  -0.140615  -0.27311  0.000459  3.874645  0.0
C  C154  1  0.86656890  0.39215336  0.05438771  1  0.199855  0.000817  -0.140569  -0.27305  0.000459  3.874699  0.0
C  C155  1  0.63343419  0.94561200  0.60784578  1  0.199607  0.000817  -0.140558  -0.272925  0.000459  3.874573  0.0
N  N156  1  0.01175091  0.16212527  0.79065205  1  0.396515  0.0005  0.060463  0.524389  0.000298  4.198339  0.0
N  N157  1  0.48824568  0.20935295  0.83787368  1  0.39636  0.0005  0.060338  0.524192  0.000298  4.198723  0.0
N  N158  1  0.98825175  0.83787139  0.20935228  1  0.396471  0.0005  0.060466  0.524342  0.000298  4.198343  0.0
N  N159  1  0.51175471  0.79064887  0.16212941  1  0.396631  0.0005  0.060315  0.524117  0.000299  4.198756  0.0
N  N160  1  0.33149463  0.07282457  0.71305247  1  0.364638  0.000353  0.062687  0.522922  0.000263  4.192367  0.0
N  N161  1  0.16850491  0.28694078  0.92717648  1  0.364167  0.000353  0.062774  0.523087  0.000263  4.19229  0.0
N  N162  1  0.66851138  0.92717585  0.28694437  1  0.364542  0.000353  0.062691  0.522814  0.000263  4.192598  0.0
N  N163  1  0.83149493  0.71305887  0.07282177  1  0.364307  0.000353  0.062739  0.523049  0.000263  4.1924  0.0
N  N164  1  0.21121328  0.66111137  0.95275273  1  -1.177383  0.010349  -0.273282  -0.015022  0.007645  3.642153  0.008
N  N165  1  0.28878823  0.04724310  0.33888940  1  -1.177181  0.010346  -0.273313  -0.015222  0.007643  3.642218  0.008
N  N166  1  0.78878360  0.33888680  0.04724471  1  -1.177579  0.010348  -0.27328  -0.015067  0.007644  3.642072  0.008
N  N167  1  0.71121446  0.95275877  0.66110934  1  -1.176979  0.010349  -0.273226  -0.015056  0.007645  3.642083  0.008
O  O168  1  0.11564090  0.57883921  0.55291123  1  -1.199435  0.06638  -0.301598  -0.55119  0.045691  2.358283  0.028
O  O169  1  0.38435370  0.44709269  0.42116078  1  -1.199472  0.066386  -0.301646  -0.55124  0.045689  2.358138  0.028
O  O170  1  0.88436115  0.42116190  0.44709058  1  -1.19942  0.066371  -0.301581  -0.55115  0.045686  2.358336  0.028
O  O171  1  0.61565397  0.55290768  0.57884367  1  -1.199261  0.066387  -0.301596  -0.55123  0.0457  2.358059  0.028
O  O172  1  0.96500561  0.53747504  0.65712111  1  -1.200242  0.055705  -0.28754  -0.559514  0.041082  2.343823  0.028
O  O173  1  0.53499760  0.34288780  0.46251881  1  -1.200243  0.055704  -0.287506  -0.559536  0.041082  2.344072  0.028
O  O174  1  0.03500564  0.46252168  0.34288105  1  -1.200427  0.055709  -0.287605  -0.559497  0.041079  2.343864  0.028
O  O175  1  0.46502176  0.65711789  0.53747207  1  -1.199886  0.055707  -0.287478  -0.55953  0.041085  2.344162  0.028
O  O176  1  0.30504092  0.14076508  0.73941516  1  -0.431247  0.000152  -0.105047  -0.300458  2.3e-05  1.981614  0.0
O  O177  1  0.19495891  0.26057576  0.85923853  1  -0.430956  0.000152  -0.10514  -0.300606  2.3e-05  1.98167  0.0
O  O178  1  0.69496893  0.85924131  0.26057509  1  -0.431393  0.000152  -0.105091  -0.30044  2.3e-05  1.981648  0.0
O  O179  1  0.80503824  0.73942612  0.14075592  1  -0.431129  0.000152  -0.10507  -0.300536  2.3e-05  1.981749  0.0
O  O180  1  0.41869933  0.02116191  0.72244653  1  -0.467311  -4.5e-05  -0.129544  -0.343649  -8.2e-05  1.939908  0.0
O  O181  1  0.08129784  0.27754944  0.97883627  1  -0.467351  -4.5e-05  -0.129596  -0.34373  -8.3e-05  1.939943  0.0
O  O182  1  0.58130188  0.97883332  0.27755213  1  -0.46717  -4.5e-05  -0.129494  -0.343546  -8.2e-05  1.939966  0.0
O  O183  1  0.91870255  0.72245171  0.02115925  1  -0.467119  -4.5e-05  -0.129582  -0.343722  -8.3e-05  1.939896  0.0
O  O184  1  0.92534538  0.18839748  0.82921774  1  -0.476434  0.000533  -0.141394  -0.352164  0.000248  1.898339  0.0
O  O185  1  0.57465640  0.17079144  0.81160720  1  -0.476322  0.000533  -0.141312  -0.352093  0.000248  1.898479  0.0
O  O186  1  0.07465914  0.81160288  0.17078595  1  -0.476504  0.000533  -0.141432  -0.352171  0.000248  1.898419  0.0
O  O187  1  0.42534341  0.82920367  0.18840487  1  -0.476719  0.000533  -0.141281  -0.35207  0.000248  1.898459  0.0
O  O188  1  0.05342708  0.07550274  0.81691455  1  -0.44705  0.001157  -0.118089  -0.310736  0.000872  1.907024  0.001
O  O189  1  0.44656793  0.18310016  0.92449344  1  -0.447006  0.001157  -0.118012  -0.310645  0.000871  1.90739  0.001
O  O190  1  0.94658003  0.92449613  0.18309263  1  -0.446963  0.001157  -0.118072  -0.310754  0.000872  1.907107  0.001
O  O191  1  0.55342576  0.81690461  0.07550623  1  -0.44693  0.001157  -0.118036  -0.310648  0.000872  1.907297  0.001
O  O192  1  0.31974574  0.81260094  0.58839133  1  -1.194969  0.058472  -0.301838  -0.553954  0.039501  2.313788  0.019
O  O193  1  0.18024284  0.41160411  0.18739847  1  -1.195021  0.05848  -0.301805  -0.55389  0.039502  2.313523  0.019
O  O194  1  0.68024950  0.18740385  0.41160675  1  -1.195066  0.058481  -0.301766  -0.553806  0.039501  2.313496  0.019
O  O195  1  0.81974692  0.58839475  0.81260122  1  -1.194979  0.058484  -0.301828  -0.55397  0.039501  2.313664  0.019
O  O196  1  0.14405457  0.81471391  0.59510130  1  -1.197102  0.070806  -0.309954  -0.591201  0.048912  2.355086  0.033
O  O197  1  0.35593552  0.40489779  0.18528526  1  -1.197432  0.070802  -0.309985  -0.591151  0.048909  2.355153  0.033
O  O198  1  0.85593895  0.18528641  0.40490102  1  -1.197081  0.070805  -0.309941  -0.591094  0.048914  2.355326  0.033
O  O199  1  0.64405081  0.59510326  0.81471470  1  -1.196558  0.070793  -0.309975  -0.591251  0.048909  2.355063  0.033
O  O200  1  0.01778327  0.24080585  0.46715035  1  -1.21651  0.09564  -0.298019  -0.598806  0.073886  2.443467  0.044
O  O201  1  0.48220545  0.53286355  0.75918616  1  -1.216746  0.095638  -0.297996  -0.59887  0.073894  2.443302  0.044
O  O202  1  0.98220903  0.75919290  0.53286403  1  -1.216695  0.095648  -0.298006  -0.598833  0.07389  2.443513  0.044
O  O203  1  0.51778794  0.46713686  0.24080565  1  -1.216714  0.095652  -0.298055  -0.598887  0.07389  2.443614  0.044
O  O204  1  0.91036174  0.15732128  0.59911395  1  -1.165017  0.053506  -0.293673  -0.531436  0.037666  2.141721  0.029
O  O205  1  0.58962646  0.40089813  0.84267169  1  -1.16519  0.053519  -0.293732  -0.53161  0.037673  2.141846  0.029
O  O206  1  0.08963187  0.84267308  0.40089625  1  -1.16526  0.053521  -0.293664  -0.53146  0.03767  2.141755  0.029
O  O207  1  0.41036821  0.59910517  0.15732780  1  -1.165415  0.053518  -0.29366  -0.531482  0.037669  2.141847  0.029
O  O208  1  0.24259594  0.34450667  0.38593814  1  -1.221742  0.091171  -0.316314  -0.626518  0.06864  2.448765  0.033
O  O209  1  0.25740026  0.61406549  0.65548937  1  -1.22135  0.091162  -0.316374  -0.626588  0.068647  2.448828  0.033
O  O210  1  0.75740526  0.65549447  0.61405921  1  -1.221759  0.091165  -0.316306  -0.626474  0.068635  2.44894  0.033
O  O211  1  0.74260412  0.38593496  0.34450314  1  -1.221721  0.091163  -0.31638  -0.626541  0.068638  2.44887  0.033
O  O212  1  0.34142606  0.22165469  0.49696469  1  -1.153856  0.027188  -0.284543  -0.50031  0.019133  2.166618  0.022
O  O213  1  0.15856894  0.50303650  0.77834135  1  -1.153858  0.027188  -0.284467  -0.500253  0.019133  2.166603  0.022
O  O214  1  0.65857289  0.77834571  0.50303207  1  -1.153796  0.027188  -0.284499  -0.500173  0.019134  2.166515  0.022
O  O215  1  0.84143234  0.49695801  0.22165499  1  -1.153706  0.027183  -0.284495  -0.500247  0.01913  2.166586  0.022
O  O216  1  0.30161699  0.70298235  0.43973542  1  -1.287954  0.064047  -0.557649  -0.761146  0.046049  2.1417  0.026
O  O217  1  0.19838436  0.56026227  0.29701390  1  -1.287974  0.064044  -0.557639  -0.761227  0.046052  2.141648  0.026
O  O218  1  0.69838493  0.29701361  0.56026476  1  -1.288063  0.064054  -0.557627  -0.761154  0.046055  2.141746  0.026
O  O219  1  0.80161372  0.43973885  0.70298466  1  -1.288037  0.064044  -0.557609  -0.761139  0.046051  2.141615  0.026
O  O220  1  0.30318953  0.66860794  0.80825780  1  -1.209646  0.061663  -0.310277  -0.558555  0.044751  2.347158  0.028
O  O221  1  0.19680711  0.19173110  0.33140325  1  -1.209668  0.061656  -0.310237  -0.558426  0.04474  2.347311  0.028
O  O222  1  0.69680650  0.33140208  0.19173258  1  -1.209733  0.061666  -0.310238  -0.558456  0.044749  2.347334  0.028
O  O223  1  0.80319087  0.80826552  0.66860322  1  -1.209784  0.061669  -0.310233  -0.558482  0.044747  2.347346  0.028
O  O224  1  0.52507561  0.74204545  0.66981986  1  -1.300431  0.069449  -0.561316  -0.770712  0.05195  2.134536  0.034
O  O225  1  0.97492219  0.33017764  0.25796230  1  -1.300273  0.069449  -0.561303  -0.770744  0.051953  2.134499  0.034
O  O226  1  0.47492119  0.25795935  0.33017729  1  -1.300348  0.069451  -0.561274  -0.770708  0.051951  2.134503  0.034
O  O227  1  0.02507783  0.66982123  0.74204217  1  -1.300395  0.069443  -0.561308  -0.770677  0.051949  2.134598  0.034
