# generated using pymatgen
data_Zn4H40C69N22O13
_symmetry_space_group_name_H-M   'P 1'
_cell_length_a   16.66035949
_cell_length_b   17.02113925
_cell_length_c   19.63820119
_cell_angle_alpha   106.84609822
_cell_angle_beta   115.73359519
_cell_angle_gamma   102.78724640
_symmetry_Int_Tables_number   1
_chemical_formula_structural   Zn4H40C69N22O13
_chemical_formula_sum   'Zn4 H40 C69 N22 O13'
_cell_volume   4394.93195597
_cell_formula_units_Z   1
loop_
 _symmetry_equiv_pos_site_id
 _symmetry_equiv_pos_as_xyz
  1  'x, y, z'
loop_
 _atom_site_type_symbol
 _atom_site_label
 _atom_site_symmetry_multiplicity
 _atom_site_fract_x
 _atom_site_fract_y
 _atom_site_fract_z
 _atom_site_occupancy
 _atom_site_pbe_bader_charge
 _atom_site_pbe_bader_spin_density
 _atom_site_pbe_cm5_charge
 _atom_site_pbe_ddec_charge
 _atom_site_pbe_ddec_spin_density
 _atom_site_pbe_ddec_sum_bond_order
 _atom_site_pbe_magmom
Zn  Zn0  1  0.61042022  0.08555920  0.00150802  1  1.194053  0  0.750099  0.607796  0  2.520108  0
Zn  Zn1  1  0.38405977  0.95304727  0.99744481  1  1.187734  0  0.755702  0.61977  0  2.504356  0
Zn  Zn2  1  0.63248112  0.94991996  0.09912559  1  1.199161  0  0.732179  0.597922  0  2.501415  0
Zn  Zn3  1  0.36325060  0.03325683  0.87052050  1  1.213521  0  0.748601  0.659689  0  2.407992  0
H  H4  1  0.61662626  0.97113061  0.84332986  1  0.101157  0  0.116391  0.103882  0  1.038035  0
H  H5  1  0.37176912  0.75193562  0.89534369  1  0.152998  0  0.122692  0.116212  0  1.008492  0
H  H6  1  0.73122287  0.83307945  0.21834622  1  0.076367  0  0.108271  0.095946  0  1.012227  0
H  H7  1  0.36655367  0.06831551  0.73036353  1  0.099024  0  0.124673  0.119555  0  0.994696  0
H  H8  1  0.43473355  0.65401501  0.01425687  1  0.037288  0  0.113371  0.102884  0  0.99409  0
H  H9  1  0.67252854  0.12716566  0.88337890  1  0.138702  0  0.122777  0.117907  0  1.027011  0
H  H10  1  0.34002478  0.86495569  0.71798877  1  0.098286  0  0.119172  0.106192  0  1.002914  0
H  H11  1  0.65903480  0.80674874  0.97774311  1  0.109873  0  0.122691  0.11341  0  1.001131  0
H  H12  1  0.64140074  0.26505952  0.12855213  1  0.089754  0  0.122291  0.105295  0  1.005001  0
H  H13  1  0.33392989  0.90901382  0.12567869  1  0.103831  0  0.117199  0.103382  0  1.016441  0
H  H14  1  0.82763696  0.09950248  0.28015976  1  0.089999  0  0.119982  0.107782  0  0.99461  0
H  H15  1  0.82282835  0.25697288  0.14142504  1  0.091305  0  0.123182  0.113814  0  0.985494  0
H  H16  1  0.33579452  0.12752978  0.03141276  1  0.105348  0  0.118834  0.108026  0  1.051624  0
H  H17  1  0.64561221  0.98769284  0.26640606  1  0.108748  0  0.117886  0.101606  0  1.002083  0
H  H18  1  0.35039420  0.91960262  0.48572304  1  0.08396  0  0.107005  0.107868  0  0.99224  0
H  H19  1  0.36596230  0.97664137  0.62215517  1  0.066318  0  0.103616  0.102647  0  1.005416  0
H  H20  1  0.65874063  0.06867523  0.60716002  1  0.118734  0  0.116445  0.125714  0  1.000436  0
H  H21  1  0.63337179  0.95627659  0.49412820  1  0.053138  0  0.10494  0.108712  0  1.001747  0
H  H22  1  0.62643296  0.93683329  0.36212533  1  0.047523  0  0.101263  0.101264  0  0.999498  0
H  H23  1  0.34514281  0.94999902  0.25853032  1  0.046653  0  0.096818  0.094625  0  1.009136  0
H  H24  1  0.35152083  0.96798347  0.38962802  1  0.067757  0  0.099697  0.096991  0  1.009156  0
H  H25  1  0.13251435  0.47007459  0.62952205  1  0.059063  0  0.102811  0.101655  0  0.996986  0
H  H26  1  0.23938697  0.61008477  0.76055875  1  0.055347  0  0.102608  0.104287  0  0.994918  0
H  H27  1  0.34509941  0.72909127  0.63350841  1  0.063384  0  0.102721  0.103216  0  0.996053  0
H  H28  1  0.23651459  0.58983163  0.50206231  1  0.071527  0  0.104023  0.106202  0  0.985934  0
H  H29  1  0.91411008  0.38693357  0.27563125  1  0.08473  0  0.110585  0.120966  0  0.997469  0
H  H30  1  0.99722332  0.21293214  0.38935136  1  0.066501  0  0.105415  0.10583  0  0.990846  0
H  H31  1  0.12978565  0.34540212  0.51974157  1  0.084396  0  0.109193  0.111363  0  0.98674  0
H  H32  1  0.42683291  0.58596249  0.09448796  1  0.123737  0  0.10531  0.1166  0  1.041585  0
H  H33  1  0.74016579  0.69196488  0.23984095  1  0.072382  0  0.106843  0.109419  0  0.987491  0
H  H34  1  0.73383881  0.55295924  0.25654946  1  0.05453  0  0.106527  0.108691  0  0.98806  0
H  H35  1  0.64164631  0.39361606  0.20188542  1  0.068108  0  0.109784  0.113317  0  0.993084  0
H  H36  1  0.98522941  0.79663676  0.85935161  1  0.101562  0  0.110147  0.115554  0  1.013855  0
H  H37  1  0.95458872  0.97438505  0.74006044  1  0.142373  0  0.114077  0.131706  0  1.032352  0
H  H38  1  0.86034151  0.72990834  0.88177776  1  0.059372  0  0.108021  0.109351  0  0.987314  0
H  H39  1  0.73042266  0.74497986  0.90688320  1  0.077622  0  0.107211  0.110813  0  0.989229  0
H  H40  1  0.68913283  0.91585460  0.78071054  1  0.109904  0  0.105458  0.117792  0  1.032088  0
H  H41  1  0.10610432  0.98723369  0.02046193  1  0.062923  0  0.108901  0.114926  0  0.975743  0
H  H42  1  0.23239067  0.00611358  0.07838550  1  0.058264  0  0.102118  0.102769  0  0.99524  0
H  H43  1  0.14252661  0.91992146  0.07397930  1  0.072945  0  0.11498  0.123685  0  0.966177  0
C  C44  1  0.62113950  0.93779168  0.88347674  1  0.427891  0  0.015128  -0.033092  0  3.941039  0
C  C45  1  0.36453449  0.79178274  0.86038091  1  0.404602  0  0.020664  -0.025206  0  3.921013  0
C  C46  1  0.65791815  0.79906494  0.16273989  1  0.364476  0  -0.008292  -0.071151  0  4.02584  0
C  C47  1  0.44023639  0.08395329  0.77903275  1  0.404546  0  0.014182  -0.043667  0  3.941936  0
C  C48  1  0.50572911  0.70934612  0.05895466  1  0.51877  0  0.001907  -0.044564  0  4.03468  0
C  C49  1  0.59631766  0.11504693  0.85724334  1  0.399303  0  0.010437  -0.047738  0  3.969853  0
C  C50  1  0.35197602  0.85094939  0.77132809  1  0.395323  0  0.013231  -0.034655  0  3.972027  0
C  C51  1  0.64362344  0.85382789  0.95195852  1  0.434586  0  0.021653  -0.029996  0  3.925632  0
C  C52  1  0.65277217  0.86826987  0.88787341  1  -0.003704  0  -0.035794  -0.051837  0  4.056607  0
C  C53  1  0.34205829  0.76943205  0.77749107  1  0.005756  0  -0.030982  -0.036678  0  4.047165  0
C  C54  1  0.58355447  0.71648354  0.13345229  1  -0.003674  0  -0.048661  -0.065962  0  4.103471  0
C  C55  1  0.52228321  0.08728399  0.77346989  1  0.006156  0  -0.033303  -0.03155  0  4.064808  0
C  C56  1  0.56724774  0.21809496  0.09971138  1  0.444474  0  0.024392  -0.018216  0  3.92201  0
C  C57  1  0.41119219  0.93005769  0.14970266  1  0.353587  0  0.008369  -0.055159  0  3.980409  0
C  C58  1  0.81331173  0.12604758  0.23401903  1  0.404487  0  0.009668  -0.050495  0  3.983716  0
C  C59  1  0.15486070  0.96799928  0.82180787  1  0.794731  0  0.188115  0.106803  0  3.956313  0
C  C60  1  0.15888586  0.92014093  0.91533279  1  1.061129  0  0.194837  0.289105  0  4.049868  0
C  C61  1  0.81017503  0.20698760  0.16386341  1  0.374285  0  0.007279  -0.058469  0  3.992404  0
C  C62  1  0.41095329  0.14918166  0.04891358  1  0.387636  0  0.000617  -0.05585  0  3.94019  0
C  C63  1  0.56996267  0.96992511  0.22059160  1  0.406047  0  0.013635  -0.038007  0  3.963958  0
C  C64  1  0.48691913  0.23479226  0.09778380  1  0.052696  0  -0.029571  -0.022203  0  4.032298  0
C  C65  1  0.48854140  0.94629498  0.22773809  1  0.040624  0  -0.033089  -0.036045  0  4.083568  0
C  C66  1  0.86235285  0.21146915  0.24452469  1  0.072682  0  -0.036854  -0.043827  0  4.096253  0
C  C67  1  0.09117947  0.92308190  0.84152820  1  0.044803  0  -0.007089  -0.13529  0  3.95588  0
C  C68  1  0.42154677  0.96600139  0.54172199  1  -0.087608  0  -0.085951  -0.123026  0  3.988248  0
C  C69  1  0.43062427  0.99805205  0.61926843  1  0.007522  0  -0.090033  -0.121694  0  4.000898  0
C  C70  1  0.52070312  0.05590822  0.69500627  1  0.01147  0  -0.004505  0.034502  0  4.019773  0
C  C71  1  0.60110022  0.07673362  0.68607546  1  0.18972  0  0.077823  0.031666  0  3.927837  0
C  C72  1  0.59328240  0.04720134  0.60881980  1  0.04167  0  -0.075521  -0.166013  0  3.951857  0
C  C73  1  0.50273712  0.99129567  0.53451827  1  0.000735  0  9.9e-05  0.088477  0  3.99821  0
C  C74  1  0.57031964  0.95568659  0.44270332  1  -0.046338  0  -0.087375  -0.120466  0  3.979446  0
C  C75  1  0.56640302  0.94490851  0.36825269  1  -0.036363  0  -0.092207  -0.129489  0  3.984911  0
C  C76  1  0.48693815  0.94527594  0.30119012  1  0.027833  0  -0.00777  0.088584  0  4.046869  0
C  C77  1  0.40809274  0.94986571  0.30938226  1  -0.049509  0  -0.096278  -0.135129  0  4.006597  0
C  C78  1  0.41145651  0.95975010  0.38340737  1  -0.073456  0  -0.092212  -0.12844  0  4.011482  0
C  C79  1  0.49405638  0.96614976  0.45259778  1  0.031502  0  -0.011829  0.061849  0  4.009169  0
C  C80  1  0.18033439  0.52631476  0.63047554  1  -0.048713  0  -0.089202  -0.120499  0  3.997594  0
C  C81  1  0.24094842  0.60530106  0.70458060  1  0.011609  0  -0.091467  -0.128173  0  3.9842  0
C  C82  1  0.29761452  0.68145806  0.70634733  1  -0.00325  0  -0.00538  0.089313  0  4.036863  0
C  C83  1  0.29814123  0.67261510  0.63298770  1  -0.03863  0  -0.091116  -0.126111  0  3.980011  0
C  C84  1  0.23682298  0.59401480  0.55872036  1  -0.049576  0  -0.093324  -0.123255  0  4.003762  0
C  C85  1  0.17357400  0.52091833  0.55530166  1  -0.013634  0  -0.017689  0.052947  0  4.044004  0
C  C86  1  0.03395469  0.44942056  0.40291432  1  0.140788  0  0.077318  0.034504  0  3.917075  0
C  C87  1  0.96072625  0.37537001  0.32781290  1  0.030505  0  -0.084442  -0.179313  0  3.950094  0
C  C88  1  0.94410549  0.28842433  0.32144033  1  0.010608  0  -0.005486  0.099151  0  4.051052  0
C  C89  1  0.00657838  0.27963191  0.39248732  1  0.013048  0  -0.084531  -0.121461  0  3.969623  0
C  C90  1  0.08103752  0.35444066  0.46645425  1  -0.068097  0  -0.083011  -0.114835  0  3.988526  0
C  C91  1  0.09699043  0.44240125  0.47500168  1  0.014699  0  0.003066  0.028446  0  3.983129  0
C  C92  1  0.58275770  0.64603057  0.16094165  1  -0.00778  0  0.005216  0.120189  0  4.033809  0
C  C93  1  0.48589789  0.32420952  0.12638339  1  0.089825  0  -0.005943  0.038264  0  4.025575  0
C  C94  1  0.39948047  0.42236285  0.10014140  1  0.262262  0  0.085558  -0.016655  0  3.886925  0
C  C95  1  0.39931474  0.33981374  0.09631116  1  0.244092  0  0.084314  -0.015346  0  3.908637  0
C  C96  1  0.57267347  0.40066419  0.17332008  1  -0.055491  0  -0.074005  -0.151588  0  3.925002  0
C  C97  1  0.57635792  0.48593014  0.17962122  1  0.031438  0  -0.006064  0.078701  0  4.024357  0
C  C98  1  0.48780240  0.49758613  0.13645732  1  -0.024958  0  0.001353  0.051631  0  3.993114  0
C  C99  1  0.49357773  0.57855003  0.12999942  1  0.009397  0  -0.096418  -0.19515  0  3.927136  0
C  C100  1  0.66996531  0.63772212  0.21158514  1  -0.045395  0  -0.082973  -0.119529  0  3.971036  0
C  C101  1  0.66665949  0.56033039  0.22081796  1  -0.04389  0  -0.08581  -0.125388  0  3.996693  0
C  C102  1  0.98728393  0.89390850  0.80918331  1  0.006353  0  -0.012491  0.097324  0  4.052718  0
C  C103  1  0.70562867  0.83739234  0.85076610  1  -0.027345  0  0.006223  0.11705  0  4.016071  0
C  C104  1  0.82241207  0.77053776  0.85987545  1  -0.052083  0  -0.085252  -0.122969  0  3.999522  0
C  C105  1  0.75023502  0.77911287  0.87380270  1  -0.009875  0  -0.087486  -0.129341  0  3.982385  0
C  C106  1  0.72555287  0.87440758  0.80207875  1  0.034788  0  -0.089225  -0.179474  0  3.910979  0
C  C107  1  0.80023281  0.86796959  0.78793006  1  -0.001633  0  0.004328  0.048429  0  3.975938  0
C  C108  1  0.85497523  0.82040626  0.82309748  1  0.01329  0  -0.00681  0.075126  0  4.024667  0
C  C109  1  0.94492446  0.83204664  0.83034582  1  -0.041182  0  -0.072639  -0.152657  0  3.901203  0
C  C110  1  0.92863972  0.93202965  0.76457537  1  0.038752  0  -0.073357  -0.157383  0  3.921795  0
C  C111  1  0.83682304  0.91561395  0.75106054  1  0.183541  0  0.079315  0.026528  0  3.890776  0
C  C112  1  0.15717528  0.95514497  0.03930822  1  0.367324  0  -0.127822  -0.170454  0  3.865257  0
N  N113  1  0.59782590  0.96344832  0.94138409  1  -0.800998  0  -0.282384  -0.176506  0  3.614979  0
N  N114  1  0.38388203  0.87938782  0.89885927  1  -0.812012  0  -0.287582  -0.18785  0  3.628843  0
N  N115  1  0.62494978  0.83574294  0.10921416  1  -0.834848  0  -0.294189  -0.205785  0  3.626569  0
N  N116  1  0.46301202  0.10438758  0.85872810  1  -0.783759  0  -0.284559  -0.181489  0  3.554852  0
N  N117  1  0.53037467  0.77972462  0.04433572  1  -0.744605  0  -0.27242  -0.235544  0  3.281567  0
N  N118  1  0.56043148  0.12293180  0.90730129  1  -0.791272  0  -0.281025  -0.182627  0  3.53202  0
N  N119  1  0.37607508  0.91550800  0.84382396  1  -0.818253  0  -0.29266  -0.212274  0  3.659038  0
N  N120  1  0.61163259  0.91165755  0.98360017  1  -0.783073  0  -0.271418  -0.165009  0  3.584788  0
N  N121  1  0.54039872  0.13071051  0.05489182  1  -0.813229  0  -0.278053  -0.172169  0  3.587903  0
N  N122  1  0.44505850  0.94272730  0.10094391  1  -0.802943  0  -0.28931  -0.166325  0  3.667043  0
N  N123  1  0.73810943  0.07542243  0.15397153  1  -0.795379  0  -0.267561  -0.171162  0  3.560033  0
N  N124  1  0.24824975  0.98933962  0.87899445  1  -0.738159  0  -0.268046  -0.212154  0  3.66309  0
N  N125  1  0.25095629  0.95892922  0.93536349  1  -0.738099  0  -0.2488  -0.219627  0  3.520595  0
N  N126  1  0.73661213  0.12568098  0.11035213  1  -0.786309  0  -0.275343  -0.172578  0  3.568322  0
N  N127  1  0.44315616  0.08726195  0.02180937  1  -0.831101  0  -0.287944  -0.21199  0  3.592148  0
N  N128  1  0.54360263  0.96799420  0.14471847  1  -0.783154  0  -0.269178  -0.177599  0  3.533398  0
N  N129  1  0.14167747  0.98745129  0.75261112  1  0.299046  0  0.057829  0.510633  0  4.193653  0
N  N130  1  0.70128290  0.13176260  0.75927749  1  0.39379  0  0.060685  0.528884  0  4.195017  0
N  N131  1  0.03478967  0.53698855  0.40446974  1  0.385382  0  0.053771  0.515809  0  4.224473  0
N  N132  1  0.30547729  0.43063229  0.06496046  1  0.430224  0  0.054867  0.518396  0  4.217778  0
N  N133  1  0.30537728  0.26300545  0.05363746  1  0.421692  0  0.054462  0.519305  0  4.241287  0
N  N134  1  0.77747162  0.95004270  0.69697489  1  0.372909  0  0.053682  0.522082  0  4.193986  0
O  O135  1  0.05906552  0.97009587  0.69564567  1  -0.414933  0  -0.109134  -0.291858  0  1.88782  0
O  O136  1  0.21791217  0.02068371  0.75251439  1  -0.531794  0  -0.159581  -0.372939  0  1.942072  0
O  O137  1  0.14298910  0.88699071  0.96536051  1  -1.084375  0  -0.198263  -0.202549  0  2.538798  0
O  O138  1  0.74547332  0.20421972  0.76493516  1  -0.429318  0  -0.125291  -0.315393  0  1.845111  0
O  O139  1  0.73580365  0.09967195  0.80921577  1  -0.483532  0  -0.134695  -0.345254  0  1.926646  0
O  O140  1  0.03644098  0.59015839  0.46391770  1  -0.44877  0  -0.135659  -0.33044  0  1.885852  0
O  O141  1  0.02966948  0.54975417  0.34381244  1  -0.456536  0  -0.155662  -0.355803  0  1.855819  0
O  O142  1  0.28810069  0.46732859  0.01722613  1  -0.47888  0  -0.12945  -0.321338  0  1.882945  0
O  O143  1  0.24997997  0.40037553  0.08609587  1  -0.440188  0  -0.134815  -0.325178  0  1.865612  0
O  O144  1  0.29046096  0.23018692  0.09774525  1  -0.446916  0  -0.121707  -0.314494  0  1.878868  0
O  O145  1  0.25096431  0.23417796  0.97662708  1  -0.439407  0  -0.127567  -0.3177  0  1.859684  0
O  O146  1  0.81906129  0.01195169  0.68685300  1  -0.460287  0  -0.147797  -0.349007  0  1.871471  0
O  O147  1  0.68752982  0.91311182  0.66168451  1  -0.479988  0  -0.137175  -0.344595  0  1.922439  0
