# generated using pymatgen
data_ZnH6C16(N4O3)2
_symmetry_space_group_name_H-M   'P 1'
_cell_length_a   10.29250664
_cell_length_b   10.30382944
_cell_length_c   11.68340704
_cell_angle_alpha   87.24932089
_cell_angle_beta   122.20775704
_cell_angle_gamma   116.61200049
_symmetry_Int_Tables_number   1
_chemical_formula_structural   ZnH6C16(N4O3)2
_chemical_formula_sum   'Zn2 H12 C32 N16 O12'
_cell_volume   907.03059365
_cell_formula_units_Z   2
loop_
 _symmetry_equiv_pos_site_id
 _symmetry_equiv_pos_as_xyz
  1  'x, y, z'
loop_
 _atom_site_type_symbol
 _atom_site_label
 _atom_site_symmetry_multiplicity
 _atom_site_fract_x
 _atom_site_fract_y
 _atom_site_fract_z
 _atom_site_occupancy
 _atom_site_pbe_bader_spin_density
 _atom_site_pbe_cm5_charge
 _atom_site_pbe_ddec_charge
 _atom_site_pbe_ddec_spin_density
 _atom_site_pbe_ddec_sum_bond_order
 _atom_site_pbe_magmom
Zn  Zn0  1  0.00000362  0.50000340  0.99999793  1  0  0.765941  0.951496  0  2.410266  0
Zn  Zn1  1  0.99999799  0.99999619  0.49999854  1  0  0.765781  0.95208  0  2.409977  0
H  H2  1  0.70821567  0.11207393  0.79813218  1  0  0.328463  0.332948  0  0.905042  0
H  H3  1  0.81272474  0.90932800  0.70158288  1  0  0.328222  0.333505  0  0.904756  0
H  H4  1  0.29180931  0.88793681  0.20188524  1  0  0.328533  0.333042  0  0.904964  0
H  H5  1  0.18726525  0.09066877  0.29841971  1  0  0.328223  0.333636  0  0.904574  0
H  H6  1  0.95244588  0.73540237  0.03845635  1  0  0.301657  0.401593  0  0.926482  0
H  H7  1  0.19742349  0.91457091  0.46141973  1  0  0.301907  0.401905  0  0.926023  0
H  H8  1  0.04755855  0.26459818  0.96154323  1  0  0.301656  0.401631  0  0.926435  0
H  H9  1  0.80258186  0.08542681  0.53858706  1  0  0.301906  0.401904  0  0.926027  0
H  H10  1  0.99008626  0.65835012  0.16335118  1  0  0.324086  0.404743  0  0.877771  0
H  H11  1  0.99568909  0.82792554  0.33636149  1  0  0.323895  0.404663  0  0.876751  0
H  H12  1  0.00991435  0.34165160  0.83664760  1  0  0.324079  0.404748  0  0.877724  0
H  H13  1  0.00431708  0.17206400  0.66364806  1  0  0.323893  0.404667  0  0.876759  0
C  C14  1  0.45441570  0.90960313  0.71163497  1  0  0.245997  0.506546  0  4.138828  0
C  C15  1  0.69670348  0.74187542  0.78826674  1  0  0.244586  0.50471  0  4.142535  0
C  C16  1  0.54559366  0.09041101  0.28836620  1  0  0.246082  0.506556  0  4.138739  0
C  C17  1  0.30329158  0.25811735  0.21172941  1  0  0.244677  0.504835  0  4.142361  0
C  C18  1  0.38824216  0.80963396  0.78519790  1  0  -0.033424  -0.205637  0  4.108128  0
C  C19  1  0.52342756  0.60234683  0.71482742  1  0  -0.032789  -0.205165  0  4.108398  0
C  C20  1  0.61176068  0.19038248  0.21480217  1  0  -0.033458  -0.205542  0  4.107922  0
C  C21  1  0.47656290  0.39764043  0.28516574  1  0  -0.032889  -0.205221  0  4.108529  0
C  C22  1  0.51778100  0.86718510  0.92793251  1  0  0.01957  -0.022171  0  4.015658  0
C  C23  1  0.43866620  0.58940261  0.57205867  1  0  0.019259  -0.021742  0  4.014311  0
C  C24  1  0.48221190  0.13281320  0.07206538  1  0  0.019626  -0.022253  0  4.015471  0
C  C25  1  0.56132436  0.41059014  0.42793722  1  0  0.019305  -0.021773  0  4.014503  0
C  C26  1  0.67553831  0.00600444  0.94775725  1  0  0.251758  0.488122  0  4.126877  0
C  C27  1  0.55760300  0.72727467  0.55210452  1  0  0.250899  0.48576  0  4.127911  0
C  C28  1  0.32446852  0.99400107  0.05225206  1  0  0.251713  0.488103  0  4.127096  0
C  C29  1  0.44239416  0.27272132  0.44789434  1  0  0.250938  0.48592  0  4.128011  0
C  C30  1  0.51846850  0.82114198  0.04317456  1  0  -0.01329  -0.115774  0  4.168212  0
C  C31  1  0.27782963  0.47509333  0.45689487  1  0  -0.01366  -0.11673  0  4.16637  0
C  C32  1  0.48153539  0.17885438  0.95682040  1  0  -0.013278  -0.115648  0  4.16801  0
C  C33  1  0.72215537  0.52490504  0.54310127  1  0  -0.01359  -0.116623  0  4.166494  0
C  C34  1  0.66583483  0.89012309  0.18238290  1  0  0.221745  0.330144  0  4.035695  0
C  C35  1  0.20792595  0.48343266  0.31763611  1  0  0.222371  0.331434  0  4.034797  0
C  C36  1  0.33416485  0.10987510  0.81761711  1  0  0.221662  0.330048  0  4.035647  0
C  C37  1  0.79205973  0.51656696  0.68235863  1  0  0.222282  0.331269  0  4.034774  0
C  C38  1  0.36528725  0.70669339  0.02769709  1  0  0.225254  0.344444  0  4.011431  0
C  C39  1  0.17887056  0.33739108  0.47234453  1  0  0.225775  0.34631  0  4.008097  0
C  C40  1  0.63471917  0.29330503  0.97230075  1  0  0.225268  0.344383  0  4.011371  0
C  C41  1  0.82111980  0.66260528  0.52764877  1  0  0.22566  0.346183  0  4.008218  0
C  C42  1  0.22670795  0.67365815  0.71964343  1  0  0.174313  0.288911  0  4.059467  0
C  C43  1  0.45260936  0.50624055  0.78031886  1  0  0.17383  0.288879  0  4.059903  0
C  C44  1  0.77328936  0.32635568  0.28034557  1  0  0.174261  0.288864  0  4.05943  0
C  C45  1  0.54738388  0.49375112  0.21967647  1  0  0.173821  0.288856  0  4.059852  0
N  N46  1  0.62607915  0.02394913  0.81488066  1  0  -0.394742  -0.444077  0  3.470034  0
N  N47  1  0.70800901  0.81044565  0.68492333  1  0  -0.393781  -0.443329  0  3.470065  0
N  N48  1  0.37393494  0.97606108  0.18512766  1  0  -0.394786  -0.444104  0  3.470295  0
N  N49  1  0.29198833  0.18954692  0.31507554  1  0  -0.393809  -0.44356  0  3.469971  0
N  N50  1  0.23676345  0.61784484  0.01730109  1  0  -0.320443  -0.40044  0  3.15526  0
N  N51  1  0.10028303  0.21917023  0.48244898  1  0  -0.320828  -0.402177  0  3.154479  0
N  N52  1  0.76324034  0.38216055  0.98269488  1  0  -0.320484  -0.400442  0  3.155183  0
N  N53  1  0.89971967  0.78082034  0.51754706  1  0  -0.320736  -0.402079  0  3.154538  0
N  N54  1  0.77555457  0.93899854  0.30214986  1  0  -0.328506  -0.399127  0  3.175013  0
N  N55  1  0.13706400  0.47330633  0.19779203  1  0  -0.328949  -0.399991  0  3.176037  0
N  N56  1  0.22443065  0.06099594  0.69785230  1  0  -0.328417  -0.399073  0  3.174988  0
N  N57  1  0.86293139  0.52669445  0.80220358  1  0  -0.328898  -0.399853  0  3.175893  0
N  N58  1  0.09844171  0.55590982  0.67214911  1  0  -0.311366  -0.385931  0  2.774265  0
N  N59  1  0.38192164  0.42532283  0.82765726  1  0  -0.310792  -0.385683  0  2.773047  0
N  N60  1  0.90155803  0.44410068  0.32783917  1  0  -0.31137  -0.385971  0  2.774265  0
N  N61  1  0.61807099  0.57467334  0.17233875  1  0  -0.310726  -0.385613  0  2.772919  0
O  O62  1  0.38055422  0.89865900  0.58492871  1  0  -0.27251  -0.454238  0  2.170022  0
O  O63  1  0.81215371  0.79445407  0.91495177  1  0  -0.272178  -0.453679  0  2.170951  0
O  O64  1  0.61947040  0.10136512  0.41507767  1  0  -0.272562  -0.454274  0  2.169816  0
O  O65  1  0.18783461  0.20553846  0.08504656  1  0  -0.272279  -0.453765  0  2.170843  0
O  O66  1  0.81616978  0.08679195  0.05891879  1  0  -0.253344  -0.400591  0  2.098092  0
O  O67  1  0.52746112  0.75689442  0.44085029  1  0  -0.252726  -0.399353  0  2.098319  0
O  O68  1  0.18382252  0.91320422  0.94109167  1  0  -0.253343  -0.400613  0  2.09807  0
O  O69  1  0.47253647  0.24310056  0.55914702  1  0  -0.25275  -0.399428  0  2.098403  0
O  O70  1  0.03636332  0.70385212  0.10851782  1  0  -0.548216  -0.745293  0  2.062416  0
O  O71  1  0.09596352  0.92867198  0.39149490  1  0  -0.547901  -0.745284  0  2.062636  0
O  O72  1  0.96364417  0.29615484  0.89148753  1  0  -0.548197  -0.745341  0  2.062472  0
O  O73  1  0.90404133  0.07132114  0.60851243  1  0  -0.547881  -0.745251  0  2.062534  0
