# generated using pymatgen
data_FeNiH15C15N11O2
_symmetry_space_group_name_H-M   'P 1'
_cell_length_a   9.63213073
_cell_length_b   10.54561754
_cell_length_c   10.54559931
_cell_angle_alpha   67.85926942
_cell_angle_beta   86.57718184
_cell_angle_gamma   86.57741471
_symmetry_Int_Tables_number   1
_chemical_formula_structural   FeNiH15C15N11O2
_chemical_formula_sum   'Fe2 Ni2 H30 C30 N22 O4'
_cell_volume   989.62767484
_cell_formula_units_Z   2
loop_
 _symmetry_equiv_pos_site_id
 _symmetry_equiv_pos_as_xyz
  1  'x, y, z'
loop_
 _atom_site_type_symbol
 _atom_site_label
 _atom_site_symmetry_multiplicity
 _atom_site_fract_x
 _atom_site_fract_y
 _atom_site_fract_z
 _atom_site_occupancy
 _atom_site_hse06_10hf_ddec_charge
 _atom_site_hse06_10hf_ddec_spin_density
 _atom_site_hse06_10hf_ddec_sum_bond_order
 _atom_site_hse06_10hf_magmom
 _atom_site_hse06_ddec_charge
 _atom_site_hse06_ddec_spin_density
 _atom_site_hse06_ddec_sum_bond_order
 _atom_site_hse06_magmom
 _atom_site_pbe_cm5_charge
 _atom_site_pbe_ddec_charge
 _atom_site_pbe_ddec_spin_density
 _atom_site_pbe_ddec_sum_bond_order
 _atom_site_pbe_magmom
Fe  Fe0  1  0.24999987  0.74544522  0.25455304  1  0.678891  -2.097455  3.30791  -1.954  0.728272  -2.075129  3.247581  -1.946  0.784711  0.646763  -2.106135  3.345459  -1.946
Fe  Fe1  1  0.75000358  0.25455169  0.74544971  1  0.678951  -2.097446  3.30779  -1.954  0.72835  -2.075122  3.247447  -1.946  0.784737  0.646823  -2.10613  3.345336  -1.946
Ni  Ni2  1  0.49999960  0.50000594  0.00000024  1  0.137001  0.011267  3.856542  0.005  0.152106  0.008144  3.794309  0.003  0.399714  0.132545  0.013238  3.899562  0.006
Ni  Ni3  1  0.00000131  0.00000112  0.49999304  1  0.137172  0.011268  3.856598  0.005  0.15209  0.008143  3.794326  0.003  0.39977  0.132613  0.013237  3.899587  0.006
H  H4  1  0.25000072  0.25340224  0.74659564  1  0.120082  0.000191  0.962012  0.0  0.124107  0.000109  0.958526  0.0  0.113797  0.117181  0.000227  0.964606  0.0
H  H5  1  0.74999749  0.74659663  0.25340186  1  0.120063  0.000191  0.96202  0.0  0.124085  0.000109  0.958541  0.0  0.113787  0.117166  0.000227  0.964607  0.0
H  H6  1  0.39835291  0.23293347  0.93995862  1  0.120297  -3e-05  1.048063  -0.001  0.122103  8e-06  1.049105  0.0  0.106592  0.119166  -7.7e-05  1.04744  -0.001
H  H7  1  0.10164734  0.06004037  0.76706311  1  0.120304  -3e-05  1.047956  -0.001  0.122098  9e-06  1.049012  0.0  0.106598  0.119171  -7.7e-05  1.047341  -0.001
H  H8  1  0.60164525  0.76706644  0.06003941  1  0.120338  -3e-05  1.047929  -0.001  0.12214  8e-06  1.048974  0.0  0.106614  0.119208  -7.7e-05  1.047308  -0.001
H  H9  1  0.89835092  0.93995649  0.23293706  1  0.120329  -3e-05  1.04797  -0.001  0.122125  8e-06  1.049025  0.0  0.106627  0.1192  -7.7e-05  1.047348  -0.001
H  H10  1  0.43486235  0.21453044  0.15841689  1  0.13793  4e-05  1.019932  0.0  0.140388  -5e-06  1.016674  0.0  0.097648  0.135739  0.000186  1.023002  0.0
H  H11  1  0.06513652  0.84158006  0.78546886  1  0.137938  4e-05  1.019891  0.0  0.140403  -5e-06  1.016618  0.0  0.097647  0.135752  0.000186  1.022952  0.0
H  H12  1  0.56513680  0.78547054  0.84158257  1  0.137918  4e-05  1.019961  0.0  0.14038  -5e-06  1.016695  0.0  0.097626  0.135729  0.000186  1.023037  0.0
H  H13  1  0.93486070  0.15841683  0.21453231  1  0.137925  4e-05  1.019912  0.0  0.140394  -5e-06  1.016635  0.0  0.097638  0.135734  0.000186  1.022984  0.0
H  H14  1  0.59336490  0.12561121  0.14683277  1  0.148972  0.001088  1.010074  0.001  0.149443  0.000848  1.01233  0.001  0.098924  0.148799  0.00132  1.008171  0.001
H  H15  1  0.90663321  0.85316652  0.87438748  1  0.148967  0.001087  1.010107  0.001  0.149438  0.000847  1.012363  0.001  0.098911  0.148793  0.001319  1.008207  0.001
H  H16  1  0.40663322  0.87438697  0.85318112  1  0.148932  0.001088  1.010205  0.001  0.149405  0.000847  1.012459  0.001  0.098912  0.148761  0.001319  1.008301  0.001
H  H17  1  0.09336535  0.14682218  0.12561780  1  0.148922  0.001088  1.010213  0.001  0.149395  0.000848  1.012467  0.001  0.098896  0.148746  0.00132  1.008312  0.001
H  H18  1  0.50842047  0.09455539  0.30945387  1  0.150253  3.4e-05  1.010199  0.0  0.153552  4.2e-05  1.008209  0.0  0.101167  0.147905  5.4e-05  1.011529  0.0
H  H19  1  0.99157296  0.69054419  0.90544676  1  0.150222  3.4e-05  1.010186  0.0  0.153528  4.3e-05  1.008187  0.0  0.101147  0.147876  5.4e-05  1.011514  0.0
H  H20  1  0.49156278  0.90545194  0.69055146  1  0.150232  3.4e-05  1.010201  0.0  0.153536  4.2e-05  1.008205  0.0  0.101154  0.147886  5.3e-05  1.011531  0.0
H  H21  1  0.00843382  0.30944752  0.09455503  1  0.150238  3.4e-05  1.010159  0.0  0.15354  4.2e-05  1.008166  0.0  0.10116  0.14789  5.3e-05  1.011485  0.0
H  H22  1  0.55477873  0.88773937  0.40786774  1  0.26324  -0.00023  1.032468  -0.001  0.270753  -0.000203  1.027089  -0.001  0.311542  0.257855  -0.000261  1.036683  -0.001
H  H23  1  0.94521857  0.59213100  0.11226443  1  0.263246  -0.00023  1.032471  -0.001  0.270755  -0.000203  1.027103  -0.001  0.311574  0.257862  -0.000261  1.036683  -0.001
H  H24  1  0.44521280  0.11226900  0.59213866  1  0.263256  -0.00023  1.032471  -0.001  0.270767  -0.000203  1.027098  -0.001  0.311575  0.257871  -0.000261  1.036686  -0.001
H  H25  1  0.05479145  0.40785853  0.88773237  1  0.263241  -0.00023  1.032438  -0.001  0.270751  -0.000203  1.027069  -0.001  0.311586  0.257857  -0.000261  1.036647  -0.001
H  H26  1  0.63169296  0.70697195  0.57483531  1  0.327582  -0.000132  0.949412  0.0  0.333803  -9e-05  0.945104  0.0  0.311602  0.323251  -0.000169  0.952489  0.0
H  H27  1  0.86830388  0.42516005  0.29303560  1  0.327585  -0.000132  0.949465  0.0  0.333803  -9.1e-05  0.945163  0.0  0.31163  0.323257  -0.000169  0.952549  0.0
H  H28  1  0.36830491  0.29303426  0.42516784  1  0.327597  -0.000132  0.94951  0.0  0.333817  -9e-05  0.9452  0.0  0.311609  0.323263  -0.000169  0.952595  0.0
H  H29  1  0.13169768  0.57483176  0.70697020  1  0.327538  -0.000132  0.94949  0.0  0.333757  -9e-05  0.945183  0.0  0.311576  0.323208  -0.000169  0.952577  0.0
H  H30  1  0.56689762  0.54428076  0.61739005  1  0.343925  0.000172  0.941525  0.0  0.350816  0.000173  0.936748  0.0  0.315016  0.339089  0.000177  0.944783  0.0
H  H31  1  0.93310309  0.38261209  0.45572524  1  0.343878  0.000172  0.941549  0.0  0.350768  0.000173  0.936772  0.0  0.314988  0.339041  0.000177  0.944807  0.0
H  H32  1  0.43310442  0.45572542  0.38261195  1  0.343918  0.000172  0.941584  0.0  0.350805  0.000173  0.93681  0.0  0.314999  0.339079  0.000177  0.944848  0.0
H  H33  1  0.06689603  0.61738896  0.54427799  1  0.343882  0.000172  0.941552  0.0  0.35077  0.000173  0.936779  0.0  0.31499  0.339043  0.000177  0.944816  0.0
C  C34  1  0.42312363  0.59039757  0.10626924  1  0.047312  0.032883  3.796996  0.021  0.060217  0.03074  3.792861  0.019  0.017548  0.035539  0.032622  3.802319  0.02
C  C35  1  0.07687378  0.89373434  0.40959931  1  0.047305  0.032868  3.797098  0.021  0.060252  0.030725  3.792914  0.019  0.017557  0.035571  0.032617  3.802378  0.02
C  C36  1  0.57687431  0.40960845  0.89372450  1  0.047173  0.03288  3.797148  0.021  0.060073  0.030736  3.793018  0.019  0.017477  0.035379  0.032619  3.802509  0.02
C  C37  1  0.92312834  0.10627163  0.59039235  1  0.047314  0.032858  3.796898  0.021  0.060256  0.030722  3.792729  0.019  0.017595  0.035582  0.032612  3.802177  0.02
C  C38  1  0.67698345  0.50789087  0.05348369  1  0.03804  0.000773  3.850501  0.0  0.041589  0.000613  3.853199  0.0  0.010847  0.033696  0.001211  3.849641  0.0
C  C39  1  0.82301902  0.94652500  0.49210404  1  0.037887  0.000769  3.850599  0.0  0.041483  0.000609  3.853251  0.0  0.010772  0.033542  0.001211  3.84975  0.0
C  C40  1  0.32301432  0.49211836  0.94651543  1  0.038178  0.000774  3.850445  0.0  0.041726  0.000612  3.853148  0.0  0.010961  0.033849  0.001212  3.849561  0.0
C  C41  1  0.17699377  0.05347467  0.50788389  1  0.038004  0.000771  3.850673  0.0  0.041594  0.000612  3.853331  0.0  0.010868  0.033674  0.001212  3.849801  0.0
C  C42  1  0.25000015  0.16074300  0.83925447  1  -0.016195  0.012079  3.966692  0.007  -0.008197  0.008377  3.975556  0.005  -0.071424  -0.021611  0.014551  3.961326  0.008
C  C43  1  0.74999913  0.83925486  0.16074432  1  -0.016172  0.012085  3.966694  0.007  -0.008174  0.008371  3.975555  0.005  -0.071423  -0.021585  0.014551  3.961324  0.008
C  C44  1  0.33223307  0.15031309  0.94744770  1  -0.161507  0.002495  3.935823  0.001  -0.165725  0.000839  3.95289  0.0  -0.084019  -0.159451  0.005124  3.925235  0.002
C  C45  1  0.16776821  0.05254938  0.84968427  1  -0.161566  0.002502  3.935677  0.001  -0.165783  0.000835  3.952752  0.0  -0.084069  -0.159517  0.005124  3.925099  0.002
C  C46  1  0.66776721  0.84968579  0.05255063  1  -0.161577  0.002483  3.935702  0.001  -0.165795  0.000841  3.952766  0.0  -0.084039  -0.159524  0.005124  3.92512  0.002
C  C47  1  0.83223110  0.94744748  0.15031586  1  -0.161528  0.002492  3.935733  0.001  -0.165742  0.000839  3.952802  0.0  -0.084075  -0.159479  0.005124  3.925152  0.002
C  C48  1  0.32944780  0.03007549  0.06539308  1  0.165086  0.008417  4.022967  0.004  0.173257  0.006107  4.039849  0.003  0.12065  0.159185  0.009681  4.012178  0.004
C  C49  1  0.17055078  0.93460364  0.96992150  1  0.16525  0.008417  4.02307  0.004  0.173438  0.006109  4.039932  0.003  0.120735  0.159354  0.009681  4.012276  0.004
C  C50  1  0.67055148  0.96992237  0.93460571  1  0.165152  0.008426  4.023171  0.004  0.173335  0.006105  4.040035  0.003  0.120642  0.159242  0.009682  4.012393  0.004
C  C51  1  0.82944855  0.06539221  0.03007998  1  0.165177  0.008426  4.023218  0.004  0.173361  0.006106  4.040089  0.003  0.120683  0.159273  0.009681  4.012431  0.004
C  C52  1  0.41121910  0.00514606  0.18607308  1  0.188839  0.011769  3.93322  0.006  0.196194  0.010178  3.947965  0.006  0.131179  0.183688  0.013489  3.923445  0.007
C  C53  1  0.08878095  0.81392572  0.99484946  1  0.18861  0.011761  3.933385  0.006  0.195943  0.010179  3.948157  0.006  0.131145  0.183459  0.013487  3.923603  0.007
C  C54  1  0.58878007  0.99485391  0.81392773  1  0.188674  0.011764  3.933379  0.006  0.196017  0.010175  3.948133  0.006  0.131101  0.183523  0.013489  3.923606  0.007
C  C55  1  0.91122040  0.18607214  0.00514922  1  0.188596  0.011753  3.933429  0.006  0.195931  0.010176  3.948203  0.006  0.131121  0.183447  0.01349  3.923648  0.007
C  C56  1  0.49132408  0.11498749  0.20157474  1  -0.437321  0.000404  3.926594  0.0  -0.440496  0.000266  3.932858  0.0  -0.233562  -0.434364  0.000328  3.921966  -0.001
C  C57  1  0.00867198  0.79842359  0.88500950  1  -0.437194  0.000402  3.926451  0.0  -0.440368  0.000265  3.932709  0.0  -0.233474  -0.434246  0.000327  3.921843  -0.001
C  C58  1  0.50866671  0.88501359  0.79842889  1  -0.437185  0.000403  3.926625  0.0  -0.440365  0.000266  3.93288  0.0  -0.233453  -0.434224  0.000328  3.921979  -0.001
C  C59  1  0.99133058  0.20157015  0.11498981  1  -0.437131  0.000403  3.926512  0.0  -0.440306  0.000265  3.93277  0.0  -0.233457  -0.434175  0.000328  3.921879  -0.001
C  C60  1  0.46397568  0.69681445  0.47063526  1  0.68682  -0.000384  4.171085  -0.001  0.72151  -0.000127  4.169227  -0.001  0.342503  0.663287  -0.000517  4.170958  -0.002
C  C61  1  0.03602285  0.52936580  0.30318705  1  0.686811  -0.000384  4.171059  -0.001  0.721505  -0.000127  4.169198  -0.001  0.3425  0.663274  -0.000517  4.170934  -0.002
C  C62  1  0.53602647  0.30318867  0.52936795  1  0.686647  -0.000384  4.171393  -0.001  0.721353  -0.000127  4.169524  -0.001  0.342368  0.663115  -0.000517  4.171258  -0.002
C  C63  1  0.96397749  0.47063107  0.69681397  1  0.686657  -0.000384  4.17124  -0.001  0.721359  -0.000127  4.169375  -0.001  0.342431  0.663124  -0.000517  4.17111  -0.002
N  N64  1  0.36721209  0.65087428  0.16952046  1  -0.347898  0.02032  3.651218  0.01  -0.366295  0.015423  3.656887  0.005  -0.407952  -0.335896  0.023062  3.64639  0.013
N  N65  1  0.13278325  0.83047711  0.34912794  1  -0.347946  0.020324  3.651318  0.01  -0.366342  0.015427  3.656977  0.005  -0.407951  -0.335945  0.02306  3.646481  0.013
N  N66  1  0.63279424  0.34912880  0.83048161  1  -0.347786  0.020321  3.651396  0.01  -0.36618  0.015424  3.657064  0.005  -0.407848  -0.335774  0.023063  3.646555  0.013
N  N67  1  0.86721507  0.16951867  0.65086982  1  -0.347943  0.020329  3.651098  0.01  -0.366341  0.015427  3.656751  0.005  -0.407995  -0.335943  0.023061  3.646257  0.013
N  N68  1  0.79068765  0.51365001  0.08495029  1  -0.399808  0.001553  3.111485  0.001  -0.412662  0.001007  3.126011  0.001  -0.358009  -0.390654  0.001912  3.102117  0.001
N  N69  1  0.70931090  0.91505651  0.48634860  1  -0.39969  0.00156  3.111459  0.001  -0.412547  0.001012  3.125965  0.001  -0.357928  -0.390527  0.001912  3.102086  0.001
N  N70  1  0.20932545  0.48634329  0.91502970  1  -0.399907  0.001552  3.111534  0.001  -0.412762  0.001009  3.12606  0.001  -0.35811  -0.390762  0.001912  3.102169  0.001
N  N71  1  0.29068015  0.08496419  0.51365486  1  -0.399792  0.001557  3.111755  0.001  -0.412645  0.001008  3.126264  0.001  -0.358024  -0.390633  0.001911  3.102384  0.001
N  N72  1  0.24999829  0.92587121  0.07412621  1  -0.296471  -0.0242  3.588254  -0.044  -0.317637  -0.020253  3.606836  -0.036  -0.315795  -0.280401  -0.028832  3.573792  -0.051
N  N73  1  0.75000000  0.07412467  0.92587625  1  -0.296512  -0.024201  3.588428  -0.044  -0.317681  -0.020251  3.607006  -0.036  -0.315777  -0.280433  -0.028834  3.573968  -0.051
N  N74  1  0.40479616  0.87960824  0.27426542  1  -0.102803  -0.016877  3.596314  -0.03  -0.112191  -0.015312  3.613675  -0.027  -0.199226  -0.09618  -0.018913  3.584229  -0.033
N  N75  1  0.09520065  0.72573237  0.12038838  1  -0.102664  -0.016874  3.596326  -0.03  -0.112041  -0.015311  3.613684  -0.027  -0.199191  -0.09604  -0.018912  3.584236  -0.033
N  N76  1  0.59520511  0.12039171  0.72573434  1  -0.102824  -0.016875  3.596366  -0.03  -0.112202  -0.015311  3.613716  -0.027  -0.199236  -0.096203  -0.018912  3.584283  -0.033
N  N77  1  0.90479767  0.27426345  0.87961126  1  -0.102789  -0.016872  3.596354  -0.03  -0.112164  -0.01531  3.613705  -0.027  -0.199238  -0.096164  -0.018913  3.584262  -0.033
N  N78  1  0.47655981  0.83410248  0.38873706  1  -0.28207  0.000333  3.611611  0.0  -0.30479  -0.000275  3.626814  0.0  -0.288415  -0.267236  0.000954  3.601499  0.0
N  N79  1  0.02343861  0.61126098  0.16589806  1  -0.282122  0.000335  3.611731  0.0  -0.304841  -0.000274  3.626927  0.0  -0.288476  -0.267289  0.000955  3.601618  0.0
N  N80  1  0.52344136  0.16589956  0.61126378  1  -0.281998  0.000335  3.611674  0.0  -0.304718  -0.000273  3.62687  0.0  -0.288394  -0.267162  0.000954  3.601557  0.0
N  N81  1  0.97655960  0.38873694  0.83410360  1  -0.281963  0.000337  3.611592  0.0  -0.304682  -0.000275  3.626786  0.0  -0.288435  -0.267123  0.000954  3.601461  0.0
N  N82  1  0.55188819  0.64791170  0.57430627  1  -0.679678  0.00012  3.278425  0.0  -0.702965  0.000113  3.273524  0.0  -0.567324  -0.66348  0.000275  3.281016  0.0
N  N83  1  0.94811028  0.42569293  0.35209187  1  -0.679623  0.000121  3.278429  0.0  -0.702905  0.000114  3.273529  0.0  -0.567334  -0.663433  0.000275  3.281019  0.0
N  N84  1  0.44810867  0.35209351  0.42569826  1  -0.679648  0.000121  3.278542  0.0  -0.702931  0.000113  3.273637  0.0  -0.567293  -0.663446  0.000275  3.281131  0.0
N  N85  1  0.05189325  0.57430191  0.64791074  1  -0.679531  0.000121  3.278423  0.0  -0.702813  0.000114  3.27352  0.0  -0.567252  -0.663339  0.000275  3.281014  0.0
O  O86  1  0.37444151  0.62720585  0.44778880  1  -0.518917  -0.013686  2.205854  -0.023  -0.547865  -0.010962  2.198353  -0.018  -0.282278  -0.497226  -0.016979  2.209239  -0.028
O  O87  1  0.12555558  0.55221546  0.37279418  1  -0.518905  -0.013685  2.20587  -0.023  -0.547871  -0.010961  2.198381  -0.018  -0.282261  -0.497208  -0.016978  2.209243  -0.028
O  O88  1  0.62555973  0.37279417  0.55221473  1  -0.518815  -0.013685  2.206126  -0.023  -0.547812  -0.010962  2.198657  -0.018  -0.282193  -0.497127  -0.016978  2.209502  -0.028
O  O89  1  0.87444583  0.44778041  0.62720813  1  -0.518819  -0.013685  2.205973  -0.023  -0.547806  -0.010962  2.198497  -0.018  -0.282213  -0.497126  -0.016979  2.209341  -0.028
