# generated using pymatgen
data_UH16C20(NO3)2
_symmetry_space_group_name_H-M   'P 1'
_cell_length_a   9.85431875
_cell_length_b   10.43482067
_cell_length_c   11.75451858
_cell_angle_alpha   116.15730457
_cell_angle_beta   91.45718721
_cell_angle_gamma   115.96530857
_symmetry_Int_Tables_number   1
_chemical_formula_structural   UH16C20(NO3)2
_chemical_formula_sum   'U2 H32 C40 N4 O12'
_cell_volume   938.98279105
_cell_formula_units_Z   2
loop_
 _symmetry_equiv_pos_site_id
 _symmetry_equiv_pos_as_xyz
  1  'x, y, z'
loop_
 _atom_site_type_symbol
 _atom_site_label
 _atom_site_symmetry_multiplicity
 _atom_site_fract_x
 _atom_site_fract_y
 _atom_site_fract_z
 _atom_site_occupancy
 _atom_site_hle17_bader_spin_density
 _atom_site_hle17_ddec_charge
 _atom_site_hle17_ddec_spin_density
 _atom_site_hle17_ddec_sum_bond_order
 _atom_site_hle17_magmom
 _atom_site_hse06_10hf_bader_spin_density
 _atom_site_hse06_10hf_ddec_charge
 _atom_site_hse06_10hf_ddec_spin_density
 _atom_site_hse06_10hf_ddec_sum_bond_order
 _atom_site_hse06_10hf_magmom
 _atom_site_hse06_bader_spin_density
 _atom_site_hse06_ddec_charge
 _atom_site_hse06_ddec_spin_density
 _atom_site_hse06_ddec_sum_bond_order
 _atom_site_hse06_magmom
 _atom_site_pbe_bader_spin_density
 _atom_site_pbe_cm5_charge
 _atom_site_pbe_ddec_charge
 _atom_site_pbe_ddec_spin_density
 _atom_site_pbe_ddec_sum_bond_order
 _atom_site_pbe_magmom
U  U0  1  0.46407213  0.79279601  0.19547304  1  0  2.292079  0  4.181927  0  0  2.322706  0  4.851455  0  0  2.429734  0  4.821851  0  0  2.162952  2.249733  0  4.871019  0
U  U1  1  0.53592550  0.20719366  0.80452023  1  0  2.291965  0  4.181988  0  0  2.322733  0  4.851445  0  0  2.429793  0  4.8218  0  0  2.162974  2.249783  0  4.870977  0
H  H2  1  0.41663754  0.76585233  0.89288965  1  0  0.098435  0  0.951889  0  0  0.108199  0  1.011575  0  0  0.111614  0  1.00786  0  0  0.126405  0.105743  0  1.014099  0
H  H3  1  0.58336546  0.23414848  0.10711057  1  0  0.098495  0  0.951843  0  0  0.108218  0  1.011565  0  0  0.111635  0  1.007847  0  0  0.126412  0.105764  0  1.014087  0
H  H4  1  0.12990469  0.58256017  0.57009483  1  0  0.101826  0  0.956644  0  0  0.1241  0  1.018381  0  0  0.125553  0  1.017898  0  0  0.088809  0.123065  0  1.018726  0
H  H5  1  0.87009873  0.41743939  0.42990492  1  0  0.101799  0  0.956643  0  0  0.124069  0  1.018384  0  0  0.125522  0  1.017902  0  0  0.088789  0.123033  0  1.018729  0
H  H6  1  0.28168610  0.55705969  0.62414327  1  0  0.105114  0  0.971413  0  0  0.12551  0  1.03697  0  0  0.124815  0  1.040538  0  0  0.089252  0.125882  0  1.034462  0
H  H7  1  0.71831572  0.44293865  0.37585598  1  0  0.105136  0  0.971417  0  0  0.125538  0  1.036963  0  0  0.124842  0  1.040534  0  0  0.089263  0.125908  0  1.034457  0
H  H8  1  0.31977100  0.75592222  0.66364246  1  0  0.139096  0  0.966691  0  0  0.162892  0  1.022359  0  0  0.164384  0  1.021371  0  0  0.101752  0.161832  0  1.023165  0
H  H9  1  0.68023183  0.24407613  0.33635765  1  0  0.139134  0  0.966638  0  0  0.162912  0  1.022331  0  0  0.164405  0  1.021341  0  0  0.101748  0.161849  0  1.023138  0
H  H10  1  0.93442736  0.55661931  0.69620566  1  0  0.101569  0  0.945887  0  0  0.113291  0  1.006646  0  0  0.116416  0  1.004351  0  0  0.107384  0.110829  0  1.008729  0
H  H11  1  0.06557504  0.44338026  0.30379321  1  0  0.101549  0  0.945894  0  0  0.113272  0  1.006646  0  0  0.116397  0  1.004351  0  0  0.107379  0.11081  0  1.00873  0
H  H12  1  0.87112403  0.59419990  0.90590991  1  0  0.116441  0  0.957858  0  0  0.124763  0  1.021334  0  0  0.128071  0  1.019504  0  0  0.11698  0.122389  0  1.022988  0
H  H13  1  0.12887755  0.40580216  0.09409075  1  0  0.116446  0  0.957891  0  0  0.12477  0  1.021361  0  0  0.12808  0  1.019528  0  0  0.116985  0.122401  0  1.023007  0
H  H14  1  0.83280184  0.64614873  0.08551529  1  0  0.126959  0  0.958422  0  0  0.137833  0  1.014977  0  0  0.141309  0  1.012612  0  0  0.116524  0.135235  0  1.017151  0
H  H15  1  0.16719991  0.35385578  0.91448461  1  0  0.126955  0  0.958423  0  0  0.13785  0  1.014975  0  0  0.141326  0  1.012608  0  0  0.116534  0.135252  0  1.017148  0
H  H16  1  0.80424271  0.71407170  0.30875928  1  0  0.119852  0  0.940943  0  0  0.132862  0  0.995396  0  0  0.136331  0  0.992902  0  0  0.115912  0.130525  0  0.996899  0
H  H17  1  0.19575767  0.28592788  0.69123955  1  0  0.11986  0  0.940926  0  0  0.132877  0  0.995373  0  0  0.136347  0  0.99288  0  0  0.115913  0.130539  0  0.996874  0
H  H18  1  0.14743814  0.88297695  0.59251533  1  0  0.125921  0  0.959076  0  0  0.144838  0  1.020036  0  0  0.146617  0  1.019492  0  0  0.102222  0.143411  0  1.020765  0
H  H19  1  0.85255482  0.11701780  0.40748404  1  0  0.1259  0  0.959089  0  0  0.144829  0  1.020029  0  0  0.14661  0  1.019486  0  0  0.102216  0.143401  0  1.020759  0
H  H20  1  0.94385514  0.73068625  0.53033484  1  0  0.100546  0  0.963356  0  0  0.122035  0  1.029543  0  0  0.121886  0  1.031182  0  0  0.089288  0.122101  0  1.028323  0
H  H21  1  0.05614003  0.26931094  0.46966552  1  0  0.100597  0  0.963281  0  0  0.122083  0  1.029469  0  0  0.121933  0  1.031107  0  0  0.089319  0.12215  0  1.028249  0
H  H22  1  0.00536779  0.93599804  0.57040035  1  0  0.113034  0  0.956229  0  0  0.135364  0  1.018254  0  0  0.135809  0  1.018982  0  0  0.09492  0.134706  0  1.017941  0
H  H23  1  0.99462678  0.06399793  0.42959952  1  0  0.113015  0  0.956287  0  0  0.13535  0  1.018294  0  0  0.135794  0  1.019024  0  0  0.094912  0.134691  0  1.017982  0
H  H24  1  0.29019224  0.86455632  0.43310197  1  0  0.095306  0  0.940364  0  0  0.10013  0  1.007857  0  0  0.102897  0  1.004606  0  0  0.129754  0.098013  0  1.01038  0
H  H25  1  0.70980656  0.13544208  0.56689893  1  0  0.095302  0  0.940359  0  0  0.100141  0  1.007845  0  0  0.102895  0  1.00461  0  0  0.12975  0.09802  0  1.010373  0
H  H26  1  0.27018864  0.36699562  0.31305148  1  0  0.098272  0  0.960778  0  0  0.107515  0  1.02516  0  0  0.110479  0  1.02417  0  0  0.105293  0.105203  0  1.026406  0
H  H27  1  0.72981014  0.63300276  0.68694771  1  0  0.098247  0  0.960723  0  0  0.107488  0  1.025123  0  0  0.110452  0  1.024132  0  0  0.105286  0.105174  0  1.02637  0
H  H28  1  0.71373891  0.78654397  0.57619131  1  0  0.104764  0  0.941855  0  0  0.115476  0  1.001504  0  0  0.118702  0  1.000225  0  0  0.110775  0.113398  0  1.002099  0
H  H29  1  0.28625905  0.21345690  0.42380967  1  0  0.104779  0  0.941798  0  0  0.115488  0  1.001447  0  0  0.118713  0  1.000168  0  0  0.110768  0.113409  0  1.002042  0
H  H30  1  0.02691803  0.01520212  0.21702454  1  0  0.099851  0  0.960098  0  0  0.110445  0  1.021217  0  0  0.113293  0  1.020574  0  0  0.107116  0.108618  0  1.021418  0
H  H31  1  0.97307874  0.98479627  0.78297461  1  0  0.099838  0  0.960103  0  0  0.110421  0  1.021231  0  0  0.11327  0  1.020587  0  0  0.107111  0.108596  0  1.021431  0
H  H32  1  0.73756662  0.90503140  0.87059622  1  0  0.108125  0  0.93097  0  0  0.119353  0  0.987469  0  0  0.122732  0  0.985641  0  0  0.112633  0.116825  0  0.989092  0
H  H33  1  0.26243073  0.09496821  0.12940256  1  0  0.108154  0  0.930967  0  0  0.119384  0  0.987463  0  0  0.122763  0  0.985635  0  0  0.112647  0.116857  0  0.989085  0
C  C34  1  0.29401856  0.72556828  0.89178456  1  0  0.100963  0  3.640947  0  0  0.068597  0  3.896582  0  0  0.076883  0  3.911422  0  0  0.061955  0.06336  0  3.8859  0
C  C35  1  0.70598343  0.27443253  0.10821478  1  0  0.100878  0  3.640939  0  0  0.068561  0  3.896573  0  0  0.076853  0  3.91141  0  0  0.061933  0.063329  0  3.885889  0
C  C36  1  0.18243255  0.65929783  0.77616284  1  0  0.106307  0  3.738122  0  0  0.136003  0  3.973851  0  0  0.132361  0  3.998913  0  0  0.002806  0.138517  0  3.957177  0
C  C37  1  0.81756884  0.34070174  0.22383601  1  0  0.106412  0  3.737937  0  0  0.136063  0  3.97371  0  0  0.132414  0  3.998773  0  0  0.002814  0.138572  0  3.957038  0
C  C38  1  0.23046041  0.63776420  0.65205125  1  0  -0.345411  0  3.72219  0  0  -0.42725  0  3.95004  0  0  -0.429562  0  3.962233  0  0  -0.239325  -0.425518  0  3.941741  0
C  C39  1  0.76954199  0.36223538  0.34794848  1  0  -0.345469  0  3.722088  0  0  -0.42728  0  3.949923  0  0  -0.429598  0  3.962123  0  0  -0.239318  -0.425546  0  3.941628  0
C  C40  1  0.02800635  0.61235143  0.78302818  1  0  -0.067092  0  3.696892  0  0  -0.093023  0  3.944071  0  0  -0.091537  0  3.963601  0  0  -0.069623  -0.094214  0  3.932539  0
C  C41  1  0.97199664  0.38764937  0.21697118  1  0  -0.067064  0  3.696854  0  0  -0.09298  0  3.944029  0  0  -0.091491  0  3.963559  0  0  -0.069581  -0.09417  0  3.932501  0
C  C42  1  0.99168500  0.63224038  0.90099083  1  0  -0.123866  0  3.704545  0  0  -0.145949  0  3.961079  0  0  -0.151669  0  3.982347  0  0  -0.075389  -0.14343  0  3.948285  0
C  C43  1  0.00831699  0.36776044  0.09900937  1  0  -0.123913  0  3.704667  0  0  -0.145985  0  3.96115  0  0  -0.151701  0  3.982419  0  0  -0.075417  -0.143461  0  3.948357  0
C  C44  1  0.11001630  0.69774085  0.01154651  1  0  0.164991  0  3.789073  0  0  0.162151  0  4.043954  0  0  0.168591  0  4.064482  0  0  0.117637  0.158008  0  4.029739  0
C  C45  1  0.88998587  0.30226244  0.98845464  1  0  0.164962  0  3.789227  0  0  0.162143  0  4.044078  0  0  0.16858  0  4.064608  0  0  0.117621  0.157994  0  4.029875  0
C  C46  1  0.07949729  0.72247933  0.13930099  1  0  0.169713  0  3.787785  0  0  0.168479  0  4.040233  0  0  0.17592  0  4.060489  0  0  0.120905  0.163695  0  4.026283  0
C  C47  1  0.92050386  0.27752395  0.86069842  1  0  0.16967  0  3.787812  0  0  0.168413  0  4.040302  0  0  0.175849  0  4.060565  0  0  0.120913  0.163628  0  4.026352  0
C  C48  1  0.93345554  0.69490295  0.16338882  1  0  -0.123207  0  3.687836  0  0  -0.145314  0  3.942047  0  0  -0.150892  0  3.960983  0  0  -0.072569  -0.141852  0  3.929669  0
C  C49  1  0.06654603  0.30509910  0.83661098  1  0  -0.123171  0  3.687763  0  0  -0.145311  0  3.942008  0  0  -0.150887  0  3.960949  0  0  -0.072561  -0.141847  0  3.92963  0
C  C50  1  0.91672374  0.73101095  0.28902997  1  0  -0.052913  0  3.656246  0  0  -0.077699  0  3.901976  0  0  -0.074432  0  3.91789  0  0  -0.06162  -0.079793  0  3.891276  0
C  C51  1  0.08327462  0.26898867  0.71096968  1  0  -0.052909  0  3.656169  0  0  -0.077694  0  3.901918  0  0  -0.074428  0  3.917831  0  0  -0.061613  -0.079788  0  3.891214  0
C  C52  1  0.03556542  0.83791459  0.52827323  1  0  -0.333935  0  3.716211  0  0  -0.416368  0  3.949901  0  0  -0.417364  0  3.960588  0  0  -0.236708  -0.415437  0  3.942793  0
C  C53  1  0.96442797  0.16207891  0.47172567  1  0  -0.333977  0  3.716185  0  0  -0.416389  0  3.949872  0  0  -0.417385  0  3.96056  0  0  -0.236739  -0.415462  0  3.942769  0
C  C54  1  0.04574891  0.79484527  0.39052556  1  0  0.098027  0  3.733908  0  0  0.127056  0  3.970735  0  0  0.122887  0  3.995383  0  0  0.000681  0.129767  0  3.954281  0
C  C55  1  0.95424567  0.20515070  0.60947431  1  0  0.09804  0  3.733916  0  0  0.127065  0  3.970764  0  0  0.122897  0  3.995408  0  0  0.000695  0.129776  0  3.954308  0
C  C56  1  0.18663804  0.81674650  0.35807683  1  0  0.094361  0  3.665911  0  0  0.064169  0  3.920742  0  0  0.072267  0  3.937813  0  0  0.058895  0.058936  0  3.908846  0
C  C57  1  0.81335915  0.18325068  0.64192357  1  0  0.094302  0  3.666022  0  0  0.064094  0  3.920866  0  0  0.0722  0  3.937943  0  0  0.058853  0.058864  0  3.908968  0
C  C58  1  0.48236476  0.67349871  0.37045580  1  0  0.627948  0  3.899409  0  0  0.588563  0  4.1971  0  0  0.624758  0  4.189701  0  0  0.20785  0.564364  0  4.200559  0
C  C59  1  0.51763680  0.32650331  0.62954230  1  0  0.628076  0  3.899629  0  0  0.588712  0  4.19727  0  0  0.624918  0  4.189855  0  0  0.207884  0.564509  0  4.200734  0
C  C60  1  0.49133916  0.58513751  0.43845276  1  0  -0.033902  0  3.739075  0  0  -0.01044  0  3.964791  0  0  -0.015381  0  3.984181  0  0  -0.004059  -0.007151  0  3.951251  0
C  C61  1  0.50865943  0.41485836  0.56154376  1  0  -0.034061  0  3.73925  0  0  -0.010567  0  3.964906  0  0  -0.015517  0  3.984294  0  0  -0.004076  -0.007268  0  3.95135  0
C  C62  1  0.37008668  0.42413081  0.39524961  1  0  -0.080876  0  3.730792  0  0  -0.104732  0  3.98118  0  0  -0.105591  0  4.000735  0  0  -0.078898  -0.103867  0  3.967979  0
C  C63  1  0.62991268  0.57586876  0.60474749  1  0  -0.080832  0  3.730699  0  0  -0.104699  0  3.981088  0  0  -0.105552  0  4.000644  0  0  -0.078928  -0.103835  0  3.967883  0
C  C64  1  0.62125747  0.66097346  0.54360944  1  0  -0.073595  0  3.722707  0  0  -0.097701  0  3.973951  0  0  -0.098364  0  3.992827  0  0  -0.076243  -0.097041  0  3.960368  0
C  C65  1  0.37874088  0.33902612  0.45638765  1  0  -0.073546  0  3.722697  0  0  -0.09766  0  3.973927  0  0  -0.098315  0  3.992798  0  0  -0.076221  -0.097002  0  3.960337  0
C  C66  1  0.73037574  0.90454879  0.10031670  1  0  0.624197  0  3.884939  0  0  0.58429  0  4.182904  0  0  0.620895  0  4.175668  0  0  0.207957  0.559611  0  4.186494  0
C  C67  1  0.26962364  0.09545083  0.89968383  1  0  0.62418  0  3.885037  0  0  0.584277  0  4.182998  0  0  0.620881  0  4.175768  0  0  0.207927  0.559597  0  4.186594  0
C  C68  1  0.86926515  0.95512478  0.04862119  1  0  -0.042648  0  3.738121  0  0  -0.018502  0  3.964816  0  0  -0.024325  0  3.985617  0  0  -0.006012  -0.014386  0  3.950788  0
C  C69  1  0.13073500  0.04487855  0.95138077  1  0  -0.042647  0  3.738109  0  0  -0.018496  0  3.964801  0  0  -0.024318  0  3.985603  0  0  -0.005999  -0.014378  0  3.950772  0
C  C70  1  0.01693372  0.00963529  0.12231826  1  0  -0.072147  0  3.719852  0  0  -0.094936  0  3.969914  0  0  -0.096142  0  3.990769  0  0  -0.078411  -0.09426  0  3.955955  0
C  C71  1  0.98306543  0.99036804  0.87768283  1  0  -0.072124  0  3.719894  0  0  -0.094906  0  3.969949  0  0  -0.096111  0  3.990801  0  0  -0.07841  -0.09423  0  3.955987  0
C  C72  1  0.85279815  0.94611802  0.92614410  1  0  -0.065531  0  3.71478  0  0  -0.090459  0  3.966933  0  0  -0.091101  0  3.986538  0  0  -0.07623  -0.089889  0  3.953721  0
C  C73  1  0.14720099  0.05388530  0.07385699  1  0  -0.065554  0  3.714722  0  0  -0.090495  0  3.966899  0  0  -0.091138  0  3.986503  0  0  -0.076247  -0.089927  0  3.953689  0
N  N74  1  0.26068336  0.74415138  0.00603264  1  0  -0.392508  0  3.223012  0  0  -0.367074  0  3.517684  0  0  -0.38867  0  3.541686  0  0  -0.347221  -0.351983  0  3.500553  0
N  N75  1  0.73931922  0.25585065  0.99396718  1  0  -0.392488  0  3.223106  0  0  -0.367064  0  3.51774  0  0  -0.388665  0  3.541748  0  0  -0.347214  -0.351975  0  3.50061  0
N  N76  1  0.20301657  0.77975045  0.23633109  1  0  -0.40439  0  3.29171  0  0  -0.377595  0  3.582034  0  0  -0.401525  0  3.608584  0  0  -0.373083  -0.361215  0  3.563263  0
N  N77  1  0.79698340  0.22025040  0.76366992  1  0  -0.404303  0  3.291803  0  0  -0.377509  0  3.582144  0  0  -0.40144  0  3.608693  0  0  -0.373071  -0.361131  0  3.563373  0
O  O78  1  0.39963307  0.58293301  0.06958533  1  0  -0.672433  0  1.593121  0  0  -0.674672  0  1.875732  0  0  -0.694971  0  1.863919  0  0  -0.754629  -0.661994  0  1.883711  0
O  O79  1  0.60037277  0.41707158  0.93042236  1  0  -0.672464  0  1.592705  0  0  -0.674748  0  1.875258  0  0  -0.695065  0  1.863444  0  0  -0.754545  -0.662074  0  1.88323  0
O  O80  1  0.53056234  0.00423614  0.32099222  1  0  -0.700497  0  1.599395  0  0  -0.705061  0  1.893043  0  0  -0.725849  0  1.880631  0  0  -0.760499  -0.692719  0  1.902237  0
O  O81  1  0.46944061  0.99577088  0.67901123  1  0  -0.700407  0  1.599793  0  0  -0.705006  0  1.893464  0  0  -0.725788  0  1.88104  0  0  -0.760607  -0.692671  0  1.902658  0
O  O82  1  0.60608287  0.89931470  0.05763284  1  0  -0.619627  0  1.992535  0  0  -0.600142  0  2.245844  0  0  -0.632238  0  2.24255  0  0  -0.338572  -0.577526  0  2.246986  0
O  O83  1  0.39391593  0.10068370  0.94236806  1  0  -0.619632  0  1.992563  0  0  -0.600144  0  2.245856  0  0  -0.632243  0  2.242562  0  0  -0.338551  -0.577532  0  2.247002  0
O  O84  1  0.73442356  0.86468447  0.18820162  1  0  -0.60177  0  2.021574  0  0  -0.576638  0  2.277175  0  0  -0.609238  0  2.275738  0  0  -0.336014  -0.553477  0  2.276845  0
O  O85  1  0.26557844  0.13531637  0.81179943  1  0  -0.601776  0  2.021643  0  0  -0.576641  0  2.277223  0  0  -0.609249  0  2.275795  0  0  -0.336013  -0.553483  0  2.276896  0
O  O86  1  0.34873813  0.64016949  0.31531382  1  0  -0.623747  0  2.010079  0  0  -0.600237  0  2.263579  0  0  -0.632614  0  2.261591  0  0  -0.336882  -0.577162  0  2.26357  0
O  O87  1  0.65126342  0.35983250  0.68468257  1  0  -0.623785  0  2.010203  0  0  -0.60027  0  2.263661  0  0  -0.632651  0  2.261663  0  0  -0.336866  -0.577196  0  2.263653  0
O  O88  1  0.60781997  0.77836216  0.36314210  1  0  -0.60359  0  1.958712  0  0  -0.582839  0  2.208444  0  0  -0.613752  0  2.204651  0  0  -0.334661  -0.560858  0  2.209539  0
O  O89  1  0.39218720  0.22164728  0.63686152  1  0  -0.603579  0  1.958768  0  0  -0.582898  0  2.20854  0  0  -0.613815  0  2.204737  0  0  -0.33468  -0.560921  0  2.209639  0
