# generated using pymatgen
data_CuH30C32(NO)4
_symmetry_space_group_name_H-M   'P 1'
_cell_length_a   8.59377842
_cell_length_b   8.86189688
_cell_length_c   10.75476138
_cell_angle_alpha   78.71840749
_cell_angle_beta   72.32203366
_cell_angle_gamma   64.96964783
_symmetry_Int_Tables_number   1
_chemical_formula_structural   CuH30C32(NO)4
_chemical_formula_sum   'Cu1 H30 C32 N4 O4'
_cell_volume   704.94309357
_cell_formula_units_Z   1
loop_
 _symmetry_equiv_pos_site_id
 _symmetry_equiv_pos_as_xyz
  1  'x, y, z'
loop_
 _atom_site_type_symbol
 _atom_site_label
 _atom_site_symmetry_multiplicity
 _atom_site_fract_x
 _atom_site_fract_y
 _atom_site_fract_z
 _atom_site_occupancy
 _atom_site_hle17_ddec_charge
 _atom_site_hle17_ddec_spin_density
 _atom_site_hle17_ddec_sum_bond_order
 _atom_site_hle17_magmom
 _atom_site_hse06_10hf_ddec_charge
 _atom_site_hse06_10hf_ddec_spin_density
 _atom_site_hse06_10hf_ddec_sum_bond_order
 _atom_site_hse06_10hf_magmom
 _atom_site_hse06_ddec_charge
 _atom_site_hse06_ddec_spin_density
 _atom_site_hse06_ddec_sum_bond_order
 _atom_site_hse06_magmom
 _atom_site_pbe_cm5_charge
 _atom_site_pbe_ddec_charge
 _atom_site_pbe_ddec_spin_density
 _atom_site_pbe_ddec_sum_bond_order
 _atom_site_pbe_magmom
Cu  Cu0  1  0.50000017  0.49999995  0.99999817  1  0.893213  -0.695699  1.843681  -0.521  0.882805  -0.795078  2.240438  -0.648  0.973586  -0.862567  2.175916  -0.742  0.70203  0.824057  -0.745785  2.29209  -0.585
H  H1  1  0.08947813  0.41116321  0.14366442  1  0.113071  -1.3e-05  0.96503  0.0  0.123372  -3.8e-05  1.024653  0.0  0.127004  -6e-06  1.023856  0.0  0.108568  0.12069  -6.9e-05  1.025463  0.0
H  H2  1  0.91052340  0.58883727  0.85633632  1  0.113068  -1.5e-05  0.964988  0.0  0.123375  -3.8e-05  1.024603  0.0  0.126964  -6e-06  1.023859  0.0  0.108559  0.12069  -6.9e-05  1.025413  0.0
H  H3  1  0.27222685  0.93273615  0.61772245  1  0.097696  1e-05  0.961298  0.0  0.105781  5e-06  1.027122  0.0  0.108937  4e-06  1.025926  0.0  0.100566  0.103429  9e-06  1.02825  0.0
H  H4  1  0.72776509  0.06726685  0.38228110  1  0.097767  9e-06  0.961255  0.0  0.105834  5e-06  1.027093  0.0  0.108989  5e-06  1.025895  0.0  0.100571  0.103484  9e-06  1.028224  0.0
H  H5  1  0.89194337  0.34243908  0.05099220  1  0.068991  6.8e-05  0.957139  0.0  0.07672  6e-05  1.022887  0.0  0.079344  7.4e-05  1.021225  0.0  0.109821  0.074694  4.2e-05  1.024313  0.0
H  H6  1  0.10806114  0.65756016  0.94900617  1  0.069003  6.6e-05  0.957148  0.0  0.076766  6e-05  1.022866  0.0  0.079368  7.4e-05  1.021228  0.0  0.109848  0.074732  4.2e-05  1.024288  0.0
H  H7  1  0.44022294  0.69773245  0.25521769  1  0.076938  7.1e-05  0.953818  0.0  0.083879  6.6e-05  1.018971  0.0  0.086769  6.4e-05  1.01751  0.0  0.109399  0.081686  6.2e-05  1.020134  0.0
H  H8  1  0.55978066  0.30226306  0.74478053  1  0.07699  7.6e-05  0.953867  0.0  0.083917  6.6e-05  1.019021  0.0  0.086815  6.4e-05  1.017544  0.0  0.109413  0.081718  6.2e-05  1.020198  0.0
H  H9  1  0.12343006  0.58635127  0.27092191  1  0.086001  -0.000186  0.95129  0.0  0.09106  -0.000188  1.023335  0.0  0.095821  -8.5e-05  1.017792  0.0  0.113271  0.087549  -0.000313  1.027436  0.0
H  H10  1  0.87656677  0.41365170  0.72908142  1  0.085984  -0.000182  0.951297  0.0  0.091051  -0.000188  1.023352  0.0  0.095814  -8.5e-05  1.017807  0.0  0.113244  0.087541  -0.000313  1.02745  0.0
H  H11  1  0.37167573  0.63696948  0.57236823  1  0.088048  -6e-06  0.952845  0.0  0.101465  -2e-06  1.008208  0.0  0.10344  -4e-06  1.008799  0.0  0.099158  0.100115  6e-06  1.007786  0.0
H  H12  1  0.62831989  0.36303352  0.42763352  1  0.088027  -4e-06  0.952837  0.0  0.101446  -2e-06  1.008196  0.0  0.103422  -4e-06  1.008785  0.0  0.099148  0.100098  6e-06  1.007774  0.0
H  H13  1  0.61678299  0.77882315  0.35994556  1  0.101605  1.5e-05  0.968339  0.0  0.107471  -1.2e-05  1.037592  0.0  0.111621  1e-06  1.035123  0.0  0.104564  0.104416  -1.8e-05  1.03977  0.0
H  H14  1  0.38321713  0.22117485  0.64005496  1  0.101643  1.7e-05  0.968367  0.0  0.107513  -1.2e-05  1.037604  0.0  0.111662  1e-06  1.035136  0.0  0.104578  0.104455  -1.8e-05  1.039784  0.0
H  H15  1  0.20355902  0.55679313  0.46335814  1  0.100852  1e-05  0.951344  0.0  0.112784  1e-06  1.01036  0.0  0.115326  3e-06  1.010096  0.0  0.103364  0.110949  0.0  1.010678  0.0
H  H16  1  0.79643835  0.44320863  0.53664153  1  0.100877  1.1e-05  0.951376  0.0  0.112804  1e-06  1.010398  0.0  0.115349  3e-06  1.010127  0.0  0.103373  0.110972  1e-06  1.010712  0.0
H  H17  1  0.36548803  0.02624645  0.86864494  1  0.114013  0.000771  1.007051  0.001  0.120618  0.000287  1.075038  0.0  0.123188  0.00025  1.078703  0.0  0.086378  0.11887  0.000299  1.072632  0.0
H  H18  1  0.63451526  0.97375280  0.13135279  1  0.113991  0.000769  1.007056  0.001  0.120605  0.000286  1.075032  0.0  0.123175  0.000251  1.078697  0.0  0.086387  0.118857  0.000299  1.072625  0.0
H  H19  1  0.01759200  0.98486087  0.12116454  1  0.130636  0.000821  0.938411  0.001  0.151146  0.000321  0.998011  0.0  0.153034  0.000281  0.998311  0.0  0.097047  0.149691  0.000347  0.99796  0.0
H  H20  1  0.98241390  0.01514083  0.87883590  1  0.130713  0.000827  0.938153  0.001  0.151192  0.000321  0.997799  0.0  0.153078  0.000281  0.998102  0.0  0.097063  0.149736  0.000347  0.997751  0.0
H  H21  1  0.13520932  0.11859103  0.04673329  1  0.117682  -0.000595  0.954881  -0.001  0.139962  -0.000679  1.01063  -0.001  0.141238  -0.000463  1.010662  0.0  0.092314  0.138985  -0.000855  1.010696  -0.001
H  H22  1  0.86479709  0.88140942  0.95326816  1  0.117723  -0.000592  0.954844  -0.001  0.139977  -0.000679  1.010631  -0.001  0.141254  -0.000463  1.01066  0.0  0.092311  0.138995  -0.000855  1.010697  -0.001
H  H23  1  0.17528007  0.98902715  0.19231230  1  0.130801  0.000912  0.938743  0.001  0.151436  0.000339  0.9982  0.0  0.153455  0.0003  0.998475  0.0  0.098101  0.149943  0.000367  0.998102  0.0
H  H24  1  0.82472790  0.01096958  0.80768657  1  0.130695  0.000915  0.938861  0.001  0.151386  0.000339  0.998255  0.0  0.153408  0.0003  0.998529  0.0  0.098079  0.149892  0.000367  0.998159  0.0
H  H25  1  0.78697272  0.79151789  0.69121964  1  0.124344  0.000806  0.95509  0.001  0.142136  0.000301  1.01905  0.0  0.144045  0.000264  1.019491  0.0  0.094392  0.140712  0.000321  1.018887  0.0
H  H26  1  0.21303107  0.20848010  0.30877909  1  0.124379  0.000806  0.955101  0.001  0.142176  0.000301  1.01905  0.0  0.144086  0.000264  1.019493  0.0  0.0944  0.140752  0.000321  1.01889  0.0
H  H27  1  0.59391813  0.97583720  0.68059556  1  0.114021  -0.000644  0.967458  -0.001  0.135096  -0.000696  1.027602  -0.001  0.136135  -0.000473  1.028248  -0.001  0.089819  0.134314  -0.000869  1.027175  -0.001
H  H28  1  0.40608689  0.02416080  0.31940195  1  0.114006  -0.000646  0.967475  -0.001  0.135081  -0.000696  1.027627  -0.001  0.136121  -0.000473  1.028272  -0.001  0.089807  0.1343  -0.000869  1.027202  -0.001
H  H29  1  0.63452886  0.78979661  0.61407197  1  0.131737  0.000921  0.933144  0.001  0.149996  0.000354  0.995385  0.0  0.152937  0.000313  0.993351  0.0  0.09664  0.147814  0.00039  0.996964  0.0
H  H30  1  0.36547668  0.21020014  0.38592561  1  0.13171  0.000919  0.93324  0.001  0.150007  0.000354  0.99542  0.0  0.152949  0.000313  0.993384  0.0  0.09664  0.147827  0.00039  0.996995  0.0
C  C31  1  0.04877066  0.02219054  0.53157567  1  -0.010182  -2.1e-05  3.75901  0.0  0.003735  -3.9e-05  3.98235  0.0  0.002322  -1.9e-05  4.006468  0.0  -0.005482  0.004435  -4.2e-05  3.966313  0.0
C  C32  1  0.95122077  0.97781371  0.46842781  1  -0.010239  -4.7e-05  3.759101  0.0  0.003626  -4e-05  3.982538  0.0  0.002209  -1.8e-05  4.006658  0.0  -0.00539  0.004336  -4.2e-05  3.966499  0.0
C  C33  1  0.01202929  0.80642474  0.44211489  1  0.167138  -2.9e-05  3.827064  0.0  0.167251  -4.9e-05  4.075748  0.0  0.17151  -2.3e-05  4.099065  0.0  0.095582  0.16463  -7.7e-05  4.059736  0.0
C  C34  1  0.98796267  0.19357827  0.55788680  1  0.167172  -5.4e-05  3.826945  0.0  0.167379  -5e-05  4.075461  0.0  0.171635  -2.2e-05  4.098777  0.0  0.095615  0.164763  -7.6e-05  4.05945  0.0
C  C35  1  0.94563997  0.47607398  0.17124703  1  -0.158315  -0.000269  3.702795  0.0  -0.175008  -0.000119  3.941932  0.0  -0.181832  -0.000113  3.962622  0.0  -0.080351  -0.170409  -0.000152  3.928308  0.0
C  C36  1  0.05436432  0.52392275  0.82875363  1  -0.158312  -0.000265  3.70271  0.0  -0.17498  -0.00012  3.941845  0.0  -0.181771  -0.000112  3.962551  0.0  -0.080351  -0.17038  -0.000152  3.928212  0.0
C  C37  1  0.86754962  0.60276238  0.25747597  1  0.079296  0.000442  3.799351  0.0  0.096046  0.000353  4.027982  0.0  0.098277  0.000273  4.048748  0.0  0.002037  0.094659  0.000605  4.014282  0.0
C  C38  1  0.13245029  0.39723312  0.74252592  1  0.079213  0.000442  3.799478  0.0  0.09595  0.000354  4.028139  0.0  0.098183  0.000273  4.048896  0.0  0.001995  0.094562  0.000605  4.014435  0.0
C  C39  1  0.20112939  0.89703263  0.56801958  1  -0.107129  -0.000124  3.743281  0.0  -0.129053  -5.3e-05  3.99571  0.0  -0.132119  -2.6e-05  4.017347  0.0  -0.091023  -0.126999  -0.000115  3.981221  0.0
C  C40  1  0.79886307  0.10296912  0.43198405  1  -0.107139  -9.6e-05  3.743301  0.0  -0.129016  -5.5e-05  3.995709  0.0  -0.132084  -2.5e-05  4.017358  0.0  -0.091009  -0.126966  -0.000115  3.981228  0.0
C  C41  1  0.83664395  0.43824618  0.12011594  1  0.122539  0.000529  3.746973  0.0  0.100292  0.000393  4.006708  0.0  0.106247  0.00037  4.023896  0.0  0.043709  0.096603  0.000507  3.994978  0.0
C  C42  1  0.16336157  0.56175056  0.87988350  1  0.12251  0.000528  3.746899  0.0  0.100212  0.000393  4.006668  0.0  0.106186  0.00037  4.023852  0.0  0.043671  0.096537  0.000507  3.99492  0.0
C  C43  1  0.58457037  0.63699608  0.23363468  1  0.111359  0.00053  3.743218  0.0  0.092454  0.0004  3.997027  0.0  0.098005  0.000356  4.013347  0.0  0.038803  0.089089  0.000495  3.986132  0.0
C  C44  1  0.41543199  0.36299942  0.76636570  1  0.111218  0.000497  3.743293  0.0  0.092342  0.0004  3.997075  0.0  0.097893  0.000356  4.013396  0.0  0.038766  0.088981  0.000495  3.98619  0.0
C  C45  1  0.97909342  0.65028040  0.30808345  1  0.122171  0.000169  3.65372  0.0  0.091241  2.9e-05  3.908553  0.0  0.101311  6.6e-05  3.916455  0.0  0.08098  0.084248  2.9e-05  3.903488  0.0
C  C46  1  0.02090670  0.34971760  0.69191707  1  0.122211  0.000106  3.65374  0.0  0.09126  3.2e-05  3.908585  0.0  0.101327  6.4e-05  3.916488  0.0  0.081032  0.084268  2.9e-05  3.90352  0.0
C  C47  1  0.25599430  0.73307379  0.54221657  1  -0.063757  -2.1e-05  3.818964  0.0  -0.078542  -3.9e-05  4.07652  0.0  -0.08088  -2.7e-05  4.101262  0.0  -0.096141  -0.0769  -5.9e-05  4.059548  0.0
C  C48  1  0.74400009  0.26692920  0.45778641  1  -0.063708  -4.3e-05  3.819112  0.0  -0.078498  -3.7e-05  4.076667  0.0  -0.080835  -2.7e-05  4.101402  0.0  -0.096139  -0.07686  -5.9e-05  4.059706  0.0
C  C49  1  0.68155753  0.68242378  0.29080898  1  -0.160228  -0.000215  3.72491  0.0  -0.176921  -7.5e-05  3.967604  0.0  -0.182464  -8.2e-05  3.986262  0.0  -0.083792  -0.173956  -4.7e-05  3.955784  0.0
C  C50  1  0.31844432  0.31757296  0.70919133  1  -0.160246  -0.000212  3.725009  0.0  -0.176946  -7.6e-05  3.967699  0.0  -0.18249  -8.2e-05  3.98636  0.0  -0.083785  -0.173978  -4.7e-05  3.955877  0.0
C  C51  1  0.16228776  0.68737314  0.47942811  1  -0.15985  -7e-06  3.748924  0.0  -0.181408  2.4e-05  4.003191  0.0  -0.186238  3.7e-05  4.025825  0.0  -0.093965  -0.177834  -1.2e-05  3.987747  0.0
C  C52  1  0.83770665  0.31262987  0.52057207  1  -0.159938  1.2e-05  3.749156  0.0  -0.18153  2.5e-05  4.003395  0.0  -0.186357  3.4e-05  4.026032  0.0  -0.093967  -0.177964  -1.2e-05  3.987959  0.0
C  C53  1  0.29043604  0.85559339  0.01951953  1  0.505939  0.011044  3.779374  0.009  0.501111  0.003884  4.047363  0.004  0.531919  0.004351  4.051737  0.004  0.116176  0.480179  0.003462  4.043462  0.004
C  C54  1  0.70956674  0.14440713  0.98047625  1  0.506023  0.011057  3.779359  0.009  0.501149  0.003885  4.047419  0.004  0.531959  0.004352  4.05179  0.004  0.116209  0.480238  0.003462  4.043486  0.004
C  C55  1  0.54797289  0.77836557  0.82370346  1  0.508369  0.010949  3.776503  0.009  0.507002  0.003877  4.036271  0.004  0.537472  0.004346  4.040917  0.004  0.115922  0.486463  0.003471  4.032089  0.004
C  C56  1  0.45202795  0.22163369  0.17629484  1  0.508277  0.010949  3.776642  0.009  0.506885  0.003876  4.036441  0.004  0.537353  0.004348  4.041091  0.004  0.115852  0.486342  0.00347  4.032266  0.004
C  C57  1  0.39809351  0.89472634  0.90131041  1  -0.471251  -0.007088  3.732634  -0.01  -0.497354  -0.002685  3.990066  -0.005  -0.525573  -0.001118  4.011727  -0.003  -0.167405  -0.478374  -0.004206  3.975065  -0.007
C  C58  1  0.60190754  0.10527543  0.09868653  1  -0.471139  -0.007085  3.732672  -0.01  -0.497223  -0.002684  3.990097  -0.005  -0.525441  -0.001118  4.01176  -0.003  -0.167361  -0.47825  -0.004206  3.975088  -0.007
C  C59  1  0.14590322  0.99641175  0.09813813  1  -0.399963  -0.011181  3.664424  -0.013  -0.478601  -0.006393  3.893077  -0.008  -0.485338  -0.004135  3.897309  -0.005  -0.24295  -0.473596  -0.008313  3.890052  -0.009
C  C60  1  0.85410198  0.00358872  0.90186081  1  -0.400018  -0.011197  3.664266  -0.013  -0.478638  -0.006392  3.892968  -0.008  -0.485375  -0.004135  3.897197  -0.005  -0.242949  -0.473635  -0.008313  3.88994  -0.009
C  C61  1  0.64491157  0.83947450  0.69599224  1  -0.400771  -0.01095  3.679788  -0.012  -0.480156  -0.006303  3.912156  -0.007  -0.486477  -0.004076  3.915425  -0.005  -0.24513  -0.475432  -0.008182  3.909596  -0.009
C  C62  1  0.35509101  0.16052351  0.30400491  1  -0.400774  -0.010942  3.679976  -0.012  -0.480174  -0.006303  3.9123  -0.007  -0.486497  -0.004076  3.915568  -0.005  -0.24511  -0.475452  -0.008181  3.909743  -0.009
N  N63  1  0.90770428  0.76568314  0.38823929  1  -0.329638  -9.6e-05  3.134561  0.0  -0.287789  -7.9e-05  3.401692  0.0  -0.30174  -4e-06  3.417699  0.0  -0.303408  -0.278127  -0.000131  3.390499  0.0
N  N64  1  0.09229184  0.23431859  0.61176440  1  -0.329609  -5.5e-05  3.134457  0.0  -0.287785  -8.1e-05  3.40156  0.0  -0.301735  -3e-06  3.417567  0.0  -0.303413  -0.278121  -0.000131  3.390363  0.0
N  N65  1  0.65997030  0.51772459  0.14847825  1  -0.317857  0.002628  3.178557  0.001  -0.285277  0.002587  3.461931  0.001  -0.299408  0.00269  3.476049  0.001  -0.321858  -0.276367  0.002464  3.453143  0.001
N  N66  1  0.34003451  0.48227090  0.85152062  1  -0.317715  0.002633  3.178517  0.001  -0.285127  0.002588  3.461891  0.001  -0.299257  0.00269  3.476001  0.001  -0.321807  -0.276218  0.002463  3.4531  0.001
O  O67  1  0.61371697  0.62011256  0.85158790  1  -0.542053  -0.075379  2.100371  -0.104  -0.514368  -0.049037  2.374429  -0.074  -0.554727  -0.036032  2.367564  -0.06  -0.309523  -0.48698  -0.057911  2.378943  -0.083
O  O68  1  0.38628508  0.37988669  0.14841105  1  -0.542058  -0.075378  2.100411  -0.104  -0.514327  -0.049036  2.374434  -0.074  -0.554689  -0.036032  2.36758  -0.06  -0.309498  -0.486929  -0.057911  2.37893  -0.083
O  O69  1  0.30422432  0.70802340  0.06938832  1  -0.538869  -0.075995  2.074849  -0.105  -0.509008  -0.049258  2.349124  -0.075  -0.54938  -0.036072  2.342475  -0.06  -0.306677  -0.481253  -0.058613  2.353201  -0.083
O  O70  1  0.69577551  0.29197838  0.93060704  1  -0.538907  -0.076  2.074759  -0.105  -0.50906  -0.049258  2.349096  -0.075  -0.549438  -0.036074  2.342456  -0.06  -0.30672  -0.481312  -0.058614  2.353161  -0.083
