# generated using pymatgen
data_CsBH8C6OF6
_symmetry_space_group_name_H-M   'P 1'
_cell_length_a   8.93349237
_cell_length_b   9.19696653
_cell_length_c   12.60551236
_cell_angle_alpha   90.00002712
_cell_angle_beta   93.85886661
_cell_angle_gamma   90.00004184
_symmetry_Int_Tables_number   1
_chemical_formula_structural   CsBH8C6OF6
_chemical_formula_sum   'Cs4 B4 H32 C24 O4 F24'
_cell_volume   1033.33383864
_cell_formula_units_Z   4
loop_
 _symmetry_equiv_pos_site_id
 _symmetry_equiv_pos_as_xyz
  1  'x, y, z'
loop_
 _atom_site_type_symbol
 _atom_site_label
 _atom_site_symmetry_multiplicity
 _atom_site_fract_x
 _atom_site_fract_y
 _atom_site_fract_z
 _atom_site_occupancy
 _atom_site_hle17_bader_spin_density
 _atom_site_hle17_ddec_charge
 _atom_site_hle17_ddec_spin_density
 _atom_site_hle17_ddec_sum_bond_order
 _atom_site_hle17_magmom
 _atom_site_hse06_10hf_bader_spin_density
 _atom_site_hse06_10hf_ddec_charge
 _atom_site_hse06_10hf_ddec_spin_density
 _atom_site_hse06_10hf_ddec_sum_bond_order
 _atom_site_hse06_10hf_magmom
 _atom_site_hse06_bader_spin_density
 _atom_site_hse06_ddec_charge
 _atom_site_hse06_ddec_spin_density
 _atom_site_hse06_ddec_sum_bond_order
 _atom_site_hse06_magmom
 _atom_site_pbe_bader_spin_density
 _atom_site_pbe_cm5_charge
 _atom_site_pbe_ddec_charge
 _atom_site_pbe_ddec_spin_density
 _atom_site_pbe_ddec_sum_bond_order
 _atom_site_pbe_magmom
Cs  Cs0  1  0.17206438  0.16581575  0.44199898  1  0  0.962857  0  0.565927  0  0  0.89376  0  0.798857  0  0  0.91079  0  0.771907  0  0  0.891354  0.877647  0  0.821073  0
Cs  Cs1  1  0.67206536  0.33418356  0.94199843  1  0  0.962816  0  0.565951  0  0  0.893758  0  0.798847  0  0  0.910783  0  0.771906  0  0  0.89137  0.877652  0  0.821064  0
Cs  Cs2  1  0.82793448  0.83418423  0.55800228  1  0  0.962555  0  0.566181  0  0  0.893758  0  0.798861  0  0  0.910792  0  0.771903  0  0  0.891359  0.877646  0  0.821076  0
Cs  Cs3  1  0.32793462  0.66581532  0.05800209  1  0  0.962834  0  0.565936  0  0  0.893766  0  0.798846  0  0  0.910793  0  0.771901  0  0  0.891373  0.877655  0  0.821064  0
B  B4  1  0.77587586  0.26343297  0.56403951  1  0  0.14962  0  3.39614  0  0  0.042987  0  3.663856  0  0  0.047099  0  3.669616  0  0  -0.255063  0.039519  0  3.662067  0
B  B5  1  0.27587718  0.23656725  0.06404018  1  0  0.149654  0  3.396063  0  0  0.043068  0  3.663816  0  0  0.047184  0  3.669575  0  0  -0.255038  0.039598  0  3.66203  0
B  B6  1  0.22412411  0.73656700  0.43596021  1  0  0.14958  0  3.396225  0  0  0.043015  0  3.663896  0  0  0.047129  0  3.669653  0  0  -0.255055  0.039533  0  3.662135  0
B  B7  1  0.72412392  0.76343163  0.93596038  1  0  0.149632  0  3.396108  0  0  0.043083  0  3.663879  0  0  0.047201  0  3.669634  0  0  -0.255058  0.039615  0  3.662097  0
H  H8  1  0.83070472  0.11580707  0.32243901  1  0  0.03926  0  0.934109  0  0  0.051966  0  1.00411  0  0  0.05234  0  1.003689  0  0  0.095677  0.051805  0  1.004169  0
H  H9  1  0.33070538  0.38419337  0.82243864  1  0  0.039246  0  0.934119  0  0  0.051949  0  1.004127  0  0  0.052323  0  1.003706  0  0  0.095664  0.051785  0  1.004182  0
H  H10  1  0.16929526  0.88419182  0.67756151  1  0  0.039288  0  0.934086  0  0  0.051984  0  1.004102  0  0  0.052357  0  1.003682  0  0  0.095688  0.051821  0  1.004161  0
H  H11  1  0.66929460  0.61580661  0.17756188  1  0  0.039289  0  0.934091  0  0  0.051989  0  1.004098  0  0  0.052364  0  1.003676  0  0  0.095687  0.051824  0  1.004156  0
H  H12  1  0.65021563  0.15846673  0.36427820  1  0  0.047119  0  0.929433  0  0  0.057156  0  1.000892  0  0  0.058942  0  0.998188  0  0  0.092197  0.055918  0  1.002676  0
H  H13  1  0.15021513  0.34153360  0.86427776  1  0  0.047122  0  0.929402  0  0  0.057158  0  1.000861  0  0  0.058943  0  0.99816  0  0  0.092216  0.055905  0  1.002665  0
H  H14  1  0.34978547  0.84153433  0.63572237  1  0  0.047056  0  0.929499  0  0  0.057155  0  1.0009  0  0  0.058939  0  0.998198  0  0  0.092201  0.055915  0  1.002683  0
H  H15  1  0.84978485  0.65846637  0.13572275  1  0  0.04714  0  0.929407  0  0  0.057184  0  1.000845  0  0  0.058971  0  0.998143  0  0  0.092213  0.055928  0  1.002657  0
H  H16  1  0.90847672  0.37522851  0.34149464  1  0  0.052181  0  0.950058  0  0  0.067141  0  1.019375  0  0  0.068367  0  1.018759  0  0  0.082235  0.066247  0  1.019732  0
H  H17  1  0.40847717  0.12477308  0.84149417  1  0  0.052172  0  0.950079  0  0  0.067136  0  1.01939  0  0  0.068361  0  1.018775  0  0  0.082237  0.06624  0  1.019749  0
H  H18  1  0.09152325  0.62477255  0.65850508  1  0  0.052182  0  0.950002  0  0  0.067125  0  1.019336  0  0  0.06835  0  1.018722  0  0  0.082226  0.06623  0  1.019696  0
H  H19  1  0.59152392  0.87522798  0.15850560  1  0  0.052166  0  0.950069  0  0  0.067126  0  1.019396  0  0  0.068353  0  1.01878  0  0  0.082227  0.06623  0  1.019756  0
H  H20  1  0.74448781  0.35785204  0.25658141  1  0  0.06805  0  0.946609  0  0  0.081891  0  1.014578  0  0  0.083649  0  1.013427  0  0  0.089645  0.080247  0  1.01601  0
H  H21  1  0.24448716  0.14214829  0.75658169  1  0  0.06805  0  0.946587  0  0  0.081892  0  1.014552  0  0  0.083647  0  1.013403  0  0  0.089637  0.080244  0  1.015984  0
H  H22  1  0.25551328  0.64214794  0.74341836  1  0  0.068056  0  0.94658  0  0  0.081884  0  1.014553  0  0  0.083639  0  1.013405  0  0  0.089636  0.080236  0  1.015987  0
H  H23  1  0.75551282  0.85785277  0.24341883  1  0  0.068047  0  0.946575  0  0  0.081892  0  1.014541  0  0  0.083649  0  1.013392  0  0  0.089647  0.080245  0  1.015974  0
H  H24  1  0.58696345  0.42764570  0.40438027  1  0  0.062853  0  0.939276  0  0  0.079898  0  1.003636  0  0  0.08119  0  1.002958  0  0  0.084232  0.07918  0  1.003431  0
H  H25  1  0.08696274  0.07235462  0.90437973  1  0  0.062853  0  0.939237  0  0  0.079895  0  1.003603  0  0  0.081186  0  1.002924  0  0  0.084232  0.079176  0  1.003407  0
H  H26  1  0.41303764  0.57235537  0.59561950  1  0  0.062775  0  0.939345  0  0  0.079884  0  1.003632  0  0  0.081174  0  1.002955  0  0  0.084232  0.079164  0  1.003433  0
H  H27  1  0.91303723  0.92764536  0.09561999  1  0  0.06285  0  0.93929  0  0  0.07989  0  1.003646  0  0  0.081182  0  1.002965  0  0  0.084221  0.079167  0  1.003449  0
H  H28  1  0.72042001  0.56309148  0.38353136  1  0  0.046031  0  0.957572  0  0  0.059431  0  1.029734  0  0  0.060597  0  1.029463  0  0  0.076561  0.05846  0  1.03041  0
H  H29  1  0.22041958  0.93690929  0.88353096  1  0  0.046065  0  0.957519  0  0  0.059407  0  1.029766  0  0  0.06057  0  1.029502  0  0  0.076565  0.058448  0  1.030433  0
H  H30  1  0.27958109  0.43690958  0.61646921  1  0  0.046069  0  0.957512  0  0  0.059397  0  1.029773  0  0  0.060568  0  1.029497  0  0  0.076559  0.058431  0  1.030438  0
H  H31  1  0.77958151  0.06309068  0.11646881  1  0  0.046056  0  0.957537  0  0  0.059389  0  1.029782  0  0  0.060551  0  1.029518  0  0  0.076556  0.058427  0  1.030453  0
H  H32  1  0.88423033  0.47828211  0.53622874  1  0  0.070429  0  0.982931  0  0  0.080853  0  1.058549  0  0  0.082423  0  1.058614  0  0  0.080526  0.079676  0  1.05902  0
H  H33  1  0.38423036  0.02171818  0.03622849  1  0  0.070408  0  0.982961  0  0  0.080848  0  1.058545  0  0  0.082418  0  1.058609  0  0  0.08053  0.079669  0  1.059016  0
H  H34  1  0.11576965  0.52171896  0.46377177  1  0  0.070439  0  0.982923  0  0  0.080836  0  1.058542  0  0  0.082406  0  1.058607  0  0  0.080521  0.079661  0  1.059008  0
H  H35  1  0.61576962  0.97828179  0.96377202  1  0  0.070415  0  0.982951  0  0  0.08086  0  1.058535  0  0  0.082428  0  1.0586  0  0  0.080532  0.07968  0  1.05901  0
H  H36  1  0.70187110  0.49740032  0.58162095  1  0  0.079128  0  0.971193  0  0  0.08948  0  1.041991  0  0  0.091604  0  1.041329  0  0  0.081564  0.087466  0  1.044284  0
H  H37  1  0.20186998  0.00259878  0.08161985  1  0  0.079138  0  0.971165  0  0  0.089473  0  1.041979  0  0  0.091594  0  1.04132  0  0  0.08157  0.087455  0  1.044275  0
H  H38  1  0.29813000  0.50259857  0.41837883  1  0  0.079137  0  0.971108  0  0  0.089434  0  1.041967  0  0  0.091555  0  1.041309  0  0  0.081563  0.087421  0  1.044255  0
H  H39  1  0.79812999  0.99740010  0.91837988  1  0  0.07915  0  0.971179  0  0  0.089489  0  1.041992  0  0  0.091612  0  1.04133  0  0  0.08157  0.087469  0  1.044291  0
C  C40  1  0.76985923  0.18918343  0.37369344  1  0  0.119844  0  3.655088  0  0  0.063188  0  3.935014  0  0  0.070365  0  3.9415  0  0  -0.083551  0.058536  0  3.929678  0
C  C41  1  0.26985871  0.31081808  0.87369299  1  0  0.119855  0  3.655098  0  0  0.063204  0  3.935011  0  0  0.070383  0  3.941492  0  0  -0.083551  0.058568  0  3.929673  0
C  C42  1  0.23014187  0.81081872  0.62630713  1  0  0.119843  0  3.655152  0  0  0.063155  0  3.935066  0  0  0.070334  0  3.94155  0  0  -0.083558  0.058516  0  3.929724  0
C  C43  1  0.73014126  0.68918298  0.12630673  1  0  0.119755  0  3.655099  0  0  0.063106  0  3.935025  0  0  0.070281  0  3.941509  0  0  -0.083565  0.058471  0  3.929683  0
C  C44  1  0.78832221  0.34692022  0.33982596  1  0  -0.1486  0  3.705866  0  0  -0.187449  0  3.969483  0  0  -0.189374  0  3.983315  0  0  -0.172437  -0.185869  0  3.959508  0
C  C45  1  0.28832270  0.15308020  0.83982708  1  0  -0.148634  0  3.70592  0  0  -0.187457  0  3.969504  0  0  -0.189379  0  3.983334  0  0  -0.172432  -0.185878  0  3.959532  0
C  C46  1  0.21167888  0.65307976  0.66017302  1  0  -0.148593  0  3.705822  0  0  -0.187431  0  3.969442  0  0  -0.189355  0  3.983274  0  0  -0.172425  -0.185851  0  3.959471  0
C  C47  1  0.71167728  0.84691977  0.16017343  1  0  -0.148562  0  3.705855  0  0  -0.187411  0  3.969473  0  0  -0.189335  0  3.983305  0  0  -0.172436  -0.185839  0  3.959506  0
C  C48  1  0.70802858  0.45088058  0.41183723  1  0  -0.061667  0  3.695211  0  0  -0.101857  0  3.959242  0  0  -0.102344  0  3.974696  0  0  -0.169112  -0.101147  0  3.947873  0
C  C49  1  0.20803009  0.04911983  0.91183678  1  0  -0.061592  0  3.695092  0  0  -0.101841  0  3.959257  0  0  -0.102317  0  3.974689  0  0  -0.169133  -0.101146  0  3.947894  0
C  C50  1  0.29197140  0.54912049  0.58816249  1  0  -0.06162  0  3.695327  0  0  -0.101831  0  3.959305  0  0  -0.102316  0  3.97475  0  0  -0.169142  -0.101127  0  3.947934  0
C  C51  1  0.79197213  0.95088123  0.08816383  1  0  -0.061607  0  3.695123  0  0  -0.101824  0  3.959274  0  0  -0.102297  0  3.974695  0  0  -0.169096  -0.101122  0  3.947911  0
C  C52  1  0.76923742  0.43360429  0.52808194  1  0  -0.371918  0  3.758012  0  0  -0.384584  0  4.003829  0  0  -0.391443  0  4.020669  0  0  -0.189675  -0.380254  0  3.994345  0
C  C53  1  0.26923861  0.06639591  0.02808176  1  0  -0.37194  0  3.758051  0  0  -0.384552  0  4.00378  0  0  -0.391409  0  4.020624  0  0  -0.189663  -0.380209  0  3.99428  0
C  C54  1  0.23076144  0.56639677  0.47191853  1  0  -0.371909  0  3.758081  0  0  -0.384481  0  4.003725  0  0  -0.391337  0  4.02057  0  0  -0.189634  -0.380145  0  3.994238  0
C  C55  1  0.73076248  0.93360406  0.97191722  1  0  -0.371935  0  3.758022  0  0  -0.384565  0  4.003738  0  0  -0.391438  0  4.020619  0  0  -0.189678  -0.380201  0  3.994194  0
C  C56  1  0.60990474  0.21274447  0.60165268  1  0  0.579136  0  3.500593  0  0  0.525406  0  3.84662  0  0  0.553352  0  3.821093  0  0  0.290354  0.505032  0  3.865374  0
C  C57  1  0.10990498  0.28725566  0.10165332  1  0  0.579193  0  3.500513  0  0  0.525446  0  3.846576  0  0  0.553393  0  3.821045  0  0  0.290361  0.505068  0  3.865348  0
C  C58  1  0.39009411  0.78725659  0.39834620  1  0  0.578762  0  3.501235  0  0  0.525427  0  3.846555  0  0  0.553371  0  3.821029  0  0  0.290385  0.505046  0  3.865334  0
C  C59  1  0.89009499  0.71274432  0.89834640  1  0  0.579109  0  3.500581  0  0  0.525378  0  3.846613  0  0  0.553322  0  3.821086  0  0  0.290332  0.504981  0  3.865407  0
C  C60  1  0.89916798  0.24173894  0.66534730  1  0  0.579983  0  3.529467  0  0  0.5263  0  3.873942  0  0  0.554166  0  3.848846  0  0  0.290029  0.506719  0  3.891157  0
C  C61  1  0.39916819  0.25826144  0.16534635  1  0  0.580169  0  3.529089  0  0  0.526265  0  3.87391  0  0  0.554131  0  3.848811  0  0  0.290004  0.506693  0  3.891112  0
C  C62  1  0.10083200  0.75826103  0.33465401  1  0  0.580229  0  3.529047  0  0  0.526261  0  3.873961  0  0  0.554125  0  3.848865  0  0  0.289994  0.506678  0  3.891182  0
C  C63  1  0.60083179  0.74173854  0.83465417  1  0  0.580088  0  3.529222  0  0  0.526043  0  3.874267  0  0  0.553887  0  3.8492  0  0  0.289945  0.506459  0  3.891491  0
O  O64  1  0.82746161  0.16278347  0.48143759  1  0  -0.5537  0  2.335137  0  0  -0.477898  0  2.590491  0  0  -0.496456  0  2.591517  0  0  -0.365003  -0.463374  0  2.589568  0
O  O65  1  0.32746112  0.33721597  0.98143795  1  0  -0.553777  0  2.335225  0  0  -0.477915  0  2.59051  0  0  -0.496475  0  2.59154  0  0  -0.36501  -0.463394  0  2.589584  0
O  O66  1  0.17253948  0.83721650  0.51856218  1  0  -0.553705  0  2.335261  0  0  -0.477892  0  2.590546  0  0  -0.496453  0  2.591574  0  0  -0.364989  -0.463367  0  2.589625  0
O  O67  1  0.67253886  0.66278291  0.01856177  1  0  -0.553759  0  2.335209  0  0  -0.477892  0  2.590475  0  0  -0.49645  0  2.591501  0  0  -0.365016  -0.463369  0  2.589542  0
F  F68  1  0.49332268  0.23872689  0.52453758  1  0  -0.290605  0  1.172748  0  0  -0.244121  0  1.34994  0  0  -0.255862  0  1.334  0  0  -0.158813  -0.23435  0  1.359644  0
F  F69  1  0.99332103  0.26126912  0.02453954  1  0  -0.290644  0  1.172756  0  0  -0.244115  0  1.349931  0  0  -0.255856  0  1.333989  0  0  -0.158798  -0.234344  0  1.359646  0
F  F70  1  0.50667840  0.76127200  0.47546061  1  0  -0.290294  0  1.172759  0  0  -0.24411  0  1.349881  0  0  -0.25585  0  1.333941  0  0  -0.158808  -0.234334  0  1.359592  0
F  F71  1  0.00667782  0.73872759  0.97546093  1  0  -0.290598  0  1.172736  0  0  -0.244103  0  1.349926  0  0  -0.255842  0  1.333986  0  0  -0.158797  -0.234324  0  1.359643  0
F  F72  1  0.59535370  0.06598957  0.62465816  1  0  -0.286865  0  1.18235  0  0  -0.252492  0  1.364892  0  0  -0.26217  0  1.346561  0  0  -0.155521  -0.244685  0  1.376911  0
F  F73  1  0.09535292  0.43401166  0.12465643  1  0  -0.286872  0  1.182204  0  0  -0.252518  0  1.364831  0  0  -0.262197  0  1.3465  0  0  -0.155517  -0.244709  0  1.376857  0
F  F74  1  0.40464628  0.93401149  0.37534236  1  0  -0.286931  0  1.182481  0  0  -0.252513  0  1.364868  0  0  -0.26219  0  1.346539  0  0  -0.155534  -0.244701  0  1.376892  0
F  F75  1  0.90464594  0.56598832  0.87534324  1  0  -0.286866  0  1.182229  0  0  -0.252499  0  1.364838  0  0  -0.262178  0  1.34651  0  0  -0.155521  -0.244684  0  1.376869  0
F  F76  1  0.56449764  0.28350586  0.69152081  1  0  -0.287884  0  1.172289  0  0  -0.245342  0  1.348309  0  0  -0.256907  0  1.333041  0  0  -0.136865  -0.236868  0  1.359025  0
F  F77  1  0.06449896  0.21649538  0.19152307  1  0  -0.287933  0  1.172275  0  0  -0.245382  0  1.348311  0  0  -0.256947  0  1.333039  0  0  -0.136895  -0.236907  0  1.359034  0
F  F78  1  0.43550119  0.71649520  0.30847727  1  0  -0.287959  0  1.172494  0  0  -0.245364  0  1.348305  0  0  -0.256927  0  1.333035  0  0  -0.13689  -0.236884  0  1.359026  0
F  F79  1  0.93550102  0.78350459  0.80847824  1  0  -0.287871  0  1.172324  0  0  -0.245339  0  1.348354  0  0  -0.256903  0  1.333085  0  0  -0.136851  -0.236855  0  1.35908  0
F  F80  1  0.04277604  0.28606194  0.64230089  1  0  -0.285734  0  1.184433  0  0  -0.235074  0  1.356566  0  0  -0.247448  0  1.342144  0  0  -0.153245  -0.225881  0  1.366395  0
F  F81  1  0.54277769  0.21393600  0.14229901  1  0  -0.28579  0  1.184283  0  0  -0.235084  0  1.356491  0  0  -0.247456  0  1.342067  0  0  -0.153259  -0.225895  0  1.366319  0
F  F82  1  0.95722283  0.71393804  0.35770196  1  0  -0.285784  0  1.18431  0  0  -0.235102  0  1.356527  0  0  -0.247476  0  1.342104  0  0  -0.153256  -0.225903  0  1.366354  0
F  F83  1  0.45722229  0.78606289  0.85770150  1  0  -0.285762  0  1.184363  0  0  -0.235018  0  1.356611  0  0  -0.247387  0  1.342194  0  0  -0.153212  -0.225824  0  1.36644  0
F  F84  1  0.92009009  0.09859502  0.70041718  1  0  -0.29311  0  1.159042  0  0  -0.252511  0  1.334455  0  0  -0.263625  0  1.318546  0  0  -0.156302  -0.244556  0  1.345471  0
F  F85  1  0.42009264  0.40140540  0.20041559  1  0  -0.293173  0  1.158952  0  0  -0.252492  0  1.334431  0  0  -0.263605  0  1.318519  0  0  -0.156291  -0.244544  0  1.345447  0
F  F86  1  0.07990877  0.90140386  0.29958328  1  0  -0.293168  0  1.158959  0  0  -0.252488  0  1.334455  0  0  -0.263602  0  1.318545  0  0  -0.156278  -0.24453  0  1.345473  0
F  F87  1  0.57990732  0.59859567  0.79958334  1  0  -0.293171  0  1.158974  0  0  -0.252445  0  1.334488  0  0  -0.263543  0  1.318576  0  0  -0.156274  -0.244489  0  1.345504  0
F  F88  1  0.87088003  0.31866867  0.75566578  1  0  -0.276272  0  1.216056  0  0  -0.238131  0  1.401047  0  0  -0.249261  0  1.383989  0  0  -0.158803  -0.229473  0  1.411983  0
F  F89  1  0.37088131  0.18133283  0.25566644  1  0  -0.27635  0  1.215954  0  0  -0.238153  0  1.401017  0  0  -0.249284  0  1.383958  0  0  -0.158804  -0.229501  0  1.41195  0
F  F90  1  0.12911883  0.68133130  0.24433548  1  0  -0.276295  0  1.215922  0  0  -0.238111  0  1.401011  0  0  -0.24924  0  1.383953  0  0  -0.158785  -0.229448  0  1.411947  0
F  F91  1  0.62911868  0.81866823  0.74433567  1  0  -0.276279  0  1.216039  0  0  -0.238074  0  1.401123  0  0  -0.249199  0  1.384071  0  0  -0.158789  -0.229419  0  1.412064  0
