# generated using pymatgen
data_CdH16C24(N2O5)2
_symmetry_space_group_name_H-M   'P 1'
_cell_length_a   6.67434226
_cell_length_b   12.70922967
_cell_length_c   15.03320035
_cell_angle_alpha   115.01598141
_cell_angle_beta   98.49230604
_cell_angle_gamma   90.06949090
_symmetry_Int_Tables_number   1
_chemical_formula_structural   CdH16C24(N2O5)2
_chemical_formula_sum   'Cd2 H32 C48 N8 O20'
_cell_volume   1140.01871188
_cell_formula_units_Z   2
loop_
 _symmetry_equiv_pos_site_id
 _symmetry_equiv_pos_as_xyz
  1  'x, y, z'
loop_
 _atom_site_type_symbol
 _atom_site_label
 _atom_site_symmetry_multiplicity
 _atom_site_fract_x
 _atom_site_fract_y
 _atom_site_fract_z
 _atom_site_occupancy
 _atom_site_hle17_bader_spin_density
 _atom_site_hle17_ddec_charge
 _atom_site_hle17_ddec_spin_density
 _atom_site_hle17_ddec_sum_bond_order
 _atom_site_hle17_magmom
 _atom_site_hse06_10hf_bader_spin_density
 _atom_site_hse06_10hf_ddec_charge
 _atom_site_hse06_10hf_ddec_spin_density
 _atom_site_hse06_10hf_ddec_sum_bond_order
 _atom_site_hse06_10hf_magmom
 _atom_site_hse06_bader_spin_density
 _atom_site_hse06_ddec_charge
 _atom_site_hse06_ddec_spin_density
 _atom_site_hse06_ddec_sum_bond_order
 _atom_site_hse06_magmom
 _atom_site_pbe_bader_spin_density
 _atom_site_pbe_cm5_charge
 _atom_site_pbe_ddec_charge
 _atom_site_pbe_ddec_spin_density
 _atom_site_pbe_ddec_sum_bond_order
 _atom_site_pbe_magmom
Cd  Cd0  1  0.25008822  0.87180554  0.00018056  1  0  1.197414  0  1.677977  0  0  1.003634  0  2.141526  0  0  1.058402  0  2.085533  0  0  0.806568  0.964328  0  2.180367  0
Cd  Cd1  1  0.74991051  0.12819328  0.99982100  1  0  1.19742  0  1.678059  0  0  1.003617  0  2.141611  0  0  1.058387  0  2.085613  0  0  0.806568  0.964307  0  2.180441  0
H  H2  1  0.33072329  0.51731998  0.37483969  1  0  0.124209  0  0.95596  0  0  0.12405  0  1.031502  0  0  0.129358  0  1.02758  0  0  0.107371  0.120301  0  1.034429  0
H  H3  1  0.16856685  0.14233153  0.62540758  1  0  0.125045  0  0.955187  0  0  0.124587  0  1.030881  0  0  0.129871  0  1.02696  0  0  0.107641  0.120848  0  1.033806  0
H  H4  1  0.66926035  0.48268049  0.62515894  1  0  0.124242  0  0.955832  0  0  0.124063  0  1.03142  0  0  0.129369  0  1.027498  0  0  0.107392  0.120318  0  1.034347  0
H  H5  1  0.83144097  0.85766909  0.37459115  1  0  0.12507  0  0.955134  0  0  0.124601  0  1.030849  0  0  0.129884  0  1.026927  0  0  0.107642  0.120866  0  1.033765  0
H  H6  1  0.28311598  0.45171938  0.50446709  1  0  0.120488  0  0.942779  0  0  0.126961  0  1.006192  0  0  0.130648  0  1.00264  0  0  0.114654  0.124279  0  1.008721  0
H  H7  1  0.21586731  0.94717065  0.49557521  1  0  0.120498  0  0.941797  0  0  0.126959  0  1.005187  0  0  0.130713  0  1.001498  0  0  0.114754  0.124253  0  1.007797  0
H  H8  1  0.71687566  0.54828549  0.49553290  1  0  0.12042  0  0.94285  0  0  0.126976  0  1.006172  0  0  0.130671  0  1.002628  0  0  0.114634  0.124305  0  1.008692  0
H  H9  1  0.78414355  0.05282912  0.50442538  1  0  0.120491  0  0.941794  0  0  0.126883  0  1.005255  0  0  0.130639  0  1.001564  0  0  0.11473  0.124184  0  1.00786  0
H  H10  1  0.36908112  0.09900127  0.30471674  1  0  0.115242  0  0.958483  0  0  0.119647  0  1.029209  0  0  0.123883  0  1.024828  0  0  0.112353  0.11656  0  1.032379  0
H  H11  1  0.13129566  0.79390718  0.69528841  1  0  0.115315  0  0.959304  0  0  0.119458  0  1.030146  0  0  0.123731  0  1.025705  0  0  0.112359  0.116394  0  1.033221  0
H  H12  1  0.63093357  0.90100462  0.69528958  1  0  0.115314  0  0.958521  0  0  0.119714  0  1.029222  0  0  0.123948  0  1.024844  0  0  0.1124  0.116638  0  1.032379  0
H  H13  1  0.86871698  0.20609522  0.30471322  1  0  0.115303  0  0.959324  0  0  0.119431  0  1.030193  0  0  0.123705  0  1.025747  0  0  0.112353  0.11638  0  1.033254  0
H  H14  1  0.07195810  0.69222567  0.77385655  1  0  0.076441  0  0.956365  0  0  0.086874  0  1.019923  0  0  0.088197  0  1.019043  0  0  0.114244  0.085829  0  1.020713  0
H  H15  1  0.42757540  0.91831486  0.22620160  1  0  0.076366  0  0.955781  0  0  0.08675  0  1.019517  0  0  0.088112  0  1.018527  0  0  0.114044  0.085705  0  1.020345  0
H  H16  1  0.92803627  0.30777487  0.22614537  1  0  0.07642  0  0.956334  0  0  0.086856  0  1.019907  0  0  0.088178  0  1.019029  0  0  0.114251  0.0858  0  1.020697  0
H  H17  1  0.57243025  0.08167619  0.77380090  1  0  0.076385  0  0.95585  0  0  0.086772  0  1.019596  0  0  0.088132  0  1.018612  0  0  0.11403  0.085723  0  1.020424  0
H  H18  1  0.04619578  0.47697169  0.66148723  1  0  0.113538  0  0.95105  0  0  0.120571  0  1.01431  0  0  0.123221  0  1.013601  0  0  0.110927  0.118696  0  1.014967  0
H  H19  1  0.45403180  0.81514243  0.33826807  1  0  0.113351  0  0.951415  0  0  0.12037  0  1.014805  0  0  0.123002  0  1.014119  0  0  0.111175  0.118499  0  1.015453  0
H  H20  1  0.95380616  0.52303063  0.33851177  1  0  0.113527  0  0.951055  0  0  0.120561  0  1.01432  0  0  0.123212  0  1.013612  0  0  0.110914  0.118684  0  1.014974  0
H  H21  1  0.54597333  0.18484514  0.66172983  1  0  0.113333  0  0.951435  0  0  0.12033  0  1.014838  0  0  0.122957  0  1.014156  0  0  0.111154  0.118457  0  1.015484  0
H  H22  1  0.12847425  0.33974834  0.74050600  1  0  0.104114  0  0.946151  0  0  0.113342  0  1.009065  0  0  0.116072  0  1.006734  0  0  0.110378  0.111356  0  1.010785  0
H  H23  1  0.37146138  0.59882783  0.25905366  1  0  0.104724  0  0.945691  0  0  0.114219  0  1.008266  0  0  0.116869  0  1.006079  0  0  0.11076  0.112287  0  1.009886  0
H  H24  1  0.87151848  0.66025305  0.25949148  1  0  0.104117  0  0.946087  0  0  0.113305  0  1.00904  0  0  0.116035  0  1.006709  0  0  0.110352  0.111311  0  1.010768  0
H  H25  1  0.62853611  0.40115968  0.74094245  1  0  0.10476  0  0.945671  0  0  0.114239  0  1.008263  0  0  0.116895  0  1.00607  0  0  0.110738  0.112295  0  1.00989  0
H  H26  1  0.23961695  0.41916295  0.92203338  1  0  0.108307  0  0.948654  0  0  0.11896  0  1.006847  0  0  0.122456  0  1.005555  0  0  0.108068  0.116486  0  1.00788  0
H  H27  1  0.25958549  0.49676985  0.07755509  1  0  0.107866  0  0.949677  0  0  0.118925  0  1.007418  0  0  0.122444  0  1.00608  0  0  0.107765  0.116436  0  1.008486  0
H  H28  1  0.76037684  0.58083323  0.07796430  1  0  0.108283  0  0.948641  0  0  0.118919  0  1.006865  0  0  0.122414  0  1.005574  0  0  0.108041  0.116443  0  1.007906  0
H  H29  1  0.74040330  0.50322195  0.92244073  1  0  0.107951  0  0.949661  0  0  0.119013  0  1.00737  0  0  0.122532  0  1.006033  0  0  0.107804  0.116514  0  1.008445  0
H  H30  1  0.42538416  0.30570231  0.13636736  1  0  0.382038  0  0.898709  0  0  0.353841  0  0.973197  0  0  0.366584  0  0.960165  0  0  0.299052  0.344885  0  0.982213  0
H  H31  1  0.07539665  0.16889243  0.86403163  1  0  0.380998  0  0.900661  0  0  0.353482  0  0.97403  0  0  0.366166  0  0.961039  0  0  0.298769  0.344547  0  0.983038  0
H  H32  1  0.57459172  0.69429636  0.86363019  1  0  0.381936  0  0.898838  0  0  0.35379  0  0.973254  0  0  0.366538  0  0.960216  0  0  0.299034  0.344828  0  0.982288  0
H  H33  1  0.92459905  0.83110898  0.13596469  1  0  0.380966  0  0.90074  0  0  0.353433  0  0.974137  0  0  0.366118  0  0.961144  0  0  0.298741  0.344502  0  0.983143  0
C  C34  1  0.38593250  0.22500709  0.24546204  1  0  -0.206656  0  3.738559  0  0  -0.185916  0  3.978835  0  0  -0.202562  0  4.001745  0  0  -0.033947  -0.175204  0  3.963507  0
C  C35  1  0.11453748  0.97917992  0.75473465  1  0  -0.207785  0  3.739081  0  0  -0.187491  0  3.979945  0  0  -0.204052  0  4.002741  0  0  -0.034543  -0.176836  0  3.964686  0
C  C36  1  0.61406027  0.77499344  0.75453779  1  0  -0.206616  0  3.738503  0  0  -0.185827  0  3.978826  0  0  -0.202473  0  4.001735  0  0  -0.033967  -0.175103  0  3.963494  0
C  C37  1  0.88547207  0.02082245  0.24526547  1  0  -0.20747  0  3.73877  0  0  -0.187215  0  3.979734  0  0  -0.20378  0  4.002532  0  0  -0.034464  -0.176561  0  3.96448  0
C  C38  1  0.37703982  0.34492792  0.26595674  1  0  0.363077  0  3.767482  0  0  0.343768  0  4.028338  0  0  0.362534  0  4.041737  0  0  0.108706  0.331253  0  4.018974  0
C  C39  1  0.12327361  0.07868155  0.73435270  1  0  0.365494  0  3.766778  0  0  0.345985  0  4.027966  0  0  0.364724  0  4.041273  0  0  0.10953  0.33348  0  4.018653  0
C  C40  1  0.62294512  0.65507082  0.73404068  1  0  0.363191  0  3.767273  0  0  0.343811  0  4.028262  0  0  0.362578  0  4.041658  0  0  0.108789  0.331294  0  4.018908  0
C  C41  1  0.87673128  0.92132079  0.26564447  1  0  0.365315  0  3.766724  0  0  0.345759  0  4.028057  0  0  0.364501  0  4.041364  0  0  0.109386  0.333261  0  4.018739  0
C  C42  1  0.34032179  0.42599189  0.36003380  1  0  -0.184623  0  3.695983  0  0  -0.203461  0  3.957921  0  0  -0.21453  0  3.977126  0  0  -0.095883  -0.196318  0  3.94495  0
C  C43  1  0.15926882  0.06577972  0.64019162  1  0  -0.186949  0  3.69663  0  0  -0.204998  0  3.957893  0  0  -0.216163  0  3.977313  0  0  -0.096478  -0.19776  0  3.944768  0
C  C44  1  0.65966467  0.57400772  0.63996202  1  0  -0.184639  0  3.69592  0  0  -0.203471  0  3.957952  0  0  -0.214549  0  3.97719  0  0  -0.095895  -0.196313  0  3.944967  0
C  C45  1  0.84074380  0.93422267  0.35980933  1  0  -0.186904  0  3.69643  0  0  -0.204954  0  3.957702  0  0  -0.216118  0  3.977124  0  0  -0.096418  -0.197719  0  3.94458  0
C  C46  1  0.31435127  0.38968402  0.43248673  1  0  -0.038653  0  3.710824  0  0  -0.069829  0  3.973376  0  0  -0.063104  0  3.98963  0  0  -0.068223  -0.073723  0  3.962037  0
C  C47  1  0.18502225  0.95705734  0.56760738  1  0  -0.03837  0  3.708696  0  0  -0.069301  0  3.971159  0  0  -0.062554  0  3.987341  0  0  -0.067688  -0.07323  0  3.959856  0
C  C48  1  0.68563743  0.61032169  0.56751339  1  0  -0.038672  0  3.710976  0  0  -0.069878  0  3.973534  0  0  -0.063171  0  3.989806  0  0  -0.068143  -0.073755  0  3.962176  0
C  C49  1  0.81499198  0.04294593  0.43239398  1  0  -0.038369  0  3.708579  0  0  -0.069204  0  3.971017  0  0  -0.062458  0  3.9872  0  0  -0.067646  -0.073116  0  3.959699  0
C  C50  1  0.32892449  0.27165678  0.41225784  1  0  0.023093  0  3.739878  0  0  0.012423  0  4.008365  0  0  0.003096  0  4.033126  0  0  0.059246  0.018193  0  3.991653  0
C  C51  1  0.17087024  0.85921068  0.58780471  1  0  0.025176  0  3.737809  0  0  0.013808  0  4.007137  0  0  0.004507  0  4.031859  0  0  0.05971  0.01956  0  3.990424  0
C  C52  1  0.67107958  0.72835078  0.58774448  1  0  0.02318  0  3.739637  0  0  0.012462  0  4.008199  0  0  0.003136  0  4.03296  0  0  0.059269  0.018245  0  3.991473  0
C  C53  1  0.82914250  0.14079259  0.41219724  1  0  0.02512  0  3.737624  0  0  0.013747  0  4.006955  0  0  0.004443  0  4.031681  0  0  0.059657  0.019503  0  3.990247  0
C  C54  1  0.36241661  0.19013040  0.31951207  1  0  -0.058616  0  3.740847  0  0  -0.099196  0  4.004945  0  0  -0.092173  0  4.022589  0  0  -0.072831  -0.103294  0  3.992707  0
C  C55  1  0.13780064  0.87030605  0.68057220  1  0  -0.058925  0  3.740535  0  0  -0.098741  0  4.004451  0  0  -0.091801  0  4.022204  0  0  -0.072514  -0.102778  0  3.992212  0
C  C56  1  0.63758267  0.80987365  0.68049139  1  0  -0.058756  0  3.740807  0  0  -0.099323  0  4.004944  0  0  -0.092298  0  4.022583  0  0  -0.072844  -0.103411  0  3.992686  0
C  C57  1  0.86221501  0.12969637  0.31942894  1  0  -0.058927  0  3.740286  0  0  -0.098741  0  4.004273  0  0  -0.091799  0  4.022034  0  0  -0.072451  -0.102786  0  3.992033  0
C  C58  1  0.41756864  0.13718096  0.14554388  1  0  0.693703  0  3.868095  0  0  0.636751  0  4.165204  0  0  0.673618  0  4.156324  0  0  0.213928  0.611651  0  4.170636  0
C  C59  1  0.08310384  0.99109071  0.85461395  1  0  0.69431  0  3.868339  0  0  0.637388  0  4.165427  0  0  0.674213  0  4.15652  0  0  0.213922  0.612322  0  4.170863  0
C  C60  1  0.58242570  0.86282131  0.85445400  1  0  0.693651  0  3.867902  0  0  0.636615  0  4.165142  0  0  0.673482  0  4.156264  0  0  0.213855  0.611511  0  4.170569  0
C  C61  1  0.91689989  0.00891337  0.14538777  1  0  0.694339  0  3.868335  0  0  0.637443  0  4.165421  0  0  0.674271  0  4.156512  0  0  0.214005  0.612378  0  4.170872  0
C  C62  1  0.10813948  0.62797948  0.80300092  1  0  0.143064  0  3.710564  0  0  0.112423  0  3.961605  0  0  0.119446  0  3.981016  0  0  0.049615  0.107823  0  3.948385  0
C  C63  1  0.39137328  0.82486671  0.19694744  1  0  0.142711  0  3.711229  0  0  0.111929  0  3.962484  0  0  0.118983  0  3.981899  0  0  0.049747  0.107317  0  3.949243  0
C  C64  1  0.89185182  0.37202191  0.19699847  1  0  0.143018  0  3.710506  0  0  0.112367  0  3.961589  0  0  0.11939  0  3.981003  0  0  0.04955  0.107759  0  3.948356  0
C  C65  1  0.60863085  0.17512520  0.80305328  1  0  0.142769  0  3.711011  0  0  0.111946  0  3.962286  0  0  0.119001  0  3.981701  0  0  0.049779  0.107326  0  3.949042  0
C  C66  1  0.09307524  0.50912542  0.74147977  1  0  -0.102569  0  3.690618  0  0  -0.114637  0  3.93963  0  0  -0.121912  0  3.961663  0  0  -0.074535  -0.10994  0  3.924822  0
C  C67  1  0.40674202  0.76739731  0.25829796  1  0  -0.101864  0  3.691366  0  0  -0.114122  0  3.940528  0  0  -0.121385  0  3.962557  0  0  -0.074654  -0.109343  0  3.925548  0
C  C68  1  0.90691922  0.49087772  0.25851910  1  0  -0.102415  0  3.69059  0  0  -0.114496  0  3.939585  0  0  -0.121772  0  3.961623  0  0  -0.074449  -0.109794  0  3.924768  0
C  C69  1  0.59325738  0.23259370  0.74170018  1  0  -0.101857  0  3.691469  0  0  -0.114063  0  3.940633  0  0  -0.121315  0  3.96265  0  0  -0.074639  -0.109301  0  3.925689  0
C  C70  1  0.13937540  0.43329276  0.78532314  1  0  0.020143  0  3.693736  0  0  -0.000871  0  3.94548  0  0  0.002723  0  3.964191  0  0  -0.058912  -0.002932  0  3.932572  0
C  C71  1  0.36031195  0.64766275  0.21435105  1  0  0.019487  0  3.692053  0  0  -0.001502  0  3.943808  0  0  0.002138  0  3.962551  0  0  -0.05921  -0.003585  0  3.930877  0
C  C72  1  0.86061415  0.56670601  0.21467588  1  0  0.020032  0  3.693778  0  0  -0.000924  0  3.945499  0  0  0.002669  0  3.964209  0  0  -0.058967  -0.002989  0  3.932611  0
C  C73  1  0.63968603  0.35232912  0.78564731  1  0  0.019528  0  3.692243  0  0  -0.001453  0  3.943949  0  0  0.002186  0  3.962697  0  0  -0.059153  -0.003545  0  3.931025  0
C  C74  1  0.20054763  0.47832707  0.88792140  1  0  -0.144337  0  3.707135  0  0  -0.164287  0  3.96034  0  0  -0.171098  0  3.981292  0  0  -0.079598  -0.159881  0  3.946244  0
C  C75  1  0.29863993  0.59012992  0.11177509  1  0  -0.143884  0  3.706166  0  0  -0.164503  0  3.959181  0  0  -0.171332  0  3.980095  0  0  -0.079101  -0.160082  0  3.945116  0
C  C76  1  0.79944201  0.52167256  0.11207794  1  0  -0.144285  0  3.706967  0  0  -0.164227  0  3.960175  0  0  -0.171036  0  3.981122  0  0  -0.079557  -0.159818  0  3.946095  0
C  C77  1  0.70135647  0.40986193  0.88822185  1  0  -0.144028  0  3.706337  0  0  -0.164621  0  3.959319  0  0  -0.171455  0  3.98024  0  0  -0.079148  -0.160194  0  3.945261  0
C  C78  1  0.21495288  0.59898960  0.94509577  1  0  0.172394  0  3.764065  0  0  0.168441  0  4.004822  0  0  0.175273  0  4.024896  0  0  0.115852  0.163887  0  3.991138  0
C  C79  1  0.28403154  0.65375052  0.05471935  1  0  0.171752  0  3.762843  0  0  0.168773  0  4.00275  0  0  0.17571  0  4.022733  0  0  0.11606  0.164133  0  3.989123  0
C  C80  1  0.78503648  0.40100743  0.05490262  1  0  0.172302  0  3.764162  0  0  0.168331  0  4.004999  0  0  0.175164  0  4.025072  0  0  0.115824  0.163769  0  3.991315  0
C  C81  1  0.71596680  0.34624569  0.94527859  1  0  0.171817  0  3.762974  0  0  0.168818  0  4.002911  0  0  0.175755  0  4.022896  0  0  0.116079  0.16418  0  3.989281  0
N  N82  1  0.31012985  0.23245808  0.48816009  1  0  0.493703  0  3.927543  0  0  0.518547  0  4.233777  0  0  0.540205  0  4.24385  0  0  0.04145  0.504143  0  4.226913  0
N  N83  1  0.18974769  0.74415690  0.51184098  1  0  0.490519  0  3.928157  0  0  0.515408  0  4.234927  0  0  0.537045  0  4.245068  0  0  0.039924  0.501026  0  4.228004  0
N  N84  1  0.68988487  0.76754868  0.51184521  1  0  0.49387  0  3.927161  0  0  0.518743  0  4.233378  0  0  0.540398  0  4.243451  0  0  0.041553  0.504331  0  4.226512  0
N  N85  1  0.81026329  0.25584461  0.48815891  1  0  0.490481  0  3.928181  0  0  0.515359  0  4.234973  0  0  0.536998  0  4.245112  0  0  0.039837  0.500975  0  4.22806  0
N  N86  1  0.16736241  0.67153731  0.90164131  1  0  -0.37166  0  3.245236  0  0  -0.300788  0  3.504173  0  0  -0.319904  0  3.521108  0  0  -0.329798  -0.287534  0  3.492323  0
N  N87  1  0.33168089  0.76984489  0.09832734  1  0  -0.371267  0  3.245532  0  0  -0.300238  0  3.504  0  0  -0.319435  0  3.520932  0  0  -0.329876  -0.286921  0  3.492135  0
N  N88  1  0.83262878  0.32846234  0.09835879  1  0  -0.371582  0  3.245367  0  0  -0.300706  0  3.504331  0  0  -0.31982  0  3.521266  0  0  -0.329749  -0.287448  0  3.492464  0
N  N89  1  0.66831924  0.23015221  0.90167501  1  0  -0.371364  0  3.245383  0  0  -0.300323  0  3.503882  0  0  -0.319522  0  3.520815  0  0  -0.329996  -0.287023  0  3.492019  0
O  O90  1  0.40855153  0.03091070  0.12913544  1  0  -0.641833  0  2.051315  0  0  -0.574577  0  2.318368  0  0  -0.603316  0  2.305398  0  0  -0.325495  -0.5544  0  2.326632  0
O  O91  1  0.09223047  0.90119813  0.87092261  1  0  -0.641222  0  2.05308  0  0  -0.574078  0  2.320233  0  0  -0.602807  0  2.307295  0  0  -0.325293  -0.553967  0  2.328532  0
O  O92  1  0.59144620  0.96909421  0.87086558  1  0  -0.641833  0  2.051419  0  0  -0.574494  0  2.318457  0  0  -0.603233  0  2.305489  0  0  -0.325425  -0.554315  0  2.326738  0
O  O93  1  0.90777023  0.09880593  0.12907894  1  0  -0.641339  0  2.053095  0  0  -0.574179  0  2.320239  0  0  -0.602911  0  2.307299  0  0  -0.325311  -0.553984  0  2.328452  0
O  O94  1  0.45479823  0.17595252  0.08266892  1  0  -0.64525  0  2.029513  0  0  -0.581399  0  2.276838  0  0  -0.60782  0  2.262241  0  0  -0.319332  -0.563022  0  2.286398  0
O  O95  1  0.04598570  0.09270029  0.91759765  1  0  -0.64659  0  2.030214  0  0  -0.582519  0  2.276932  0  0  -0.60888  0  2.26227  0  0  -0.319801  -0.56416  0  2.286561  0
O  O96  1  0.54519441  0.82404714  0.91732992  1  0  -0.645234  0  2.029288  0  0  -0.58139  0  2.276651  0  0  -0.607814  0  2.262053  0  0  -0.319284  -0.56295  0  2.286195  0
O  O97  1  0.95401034  0.90730374  0.08240095  1  0  -0.646601  0  2.030298  0  0  -0.582536  0  2.277022  0  0  -0.608897  0  2.262357  0  0  -0.31982  -0.564193  0  2.286663  0
O  O98  1  0.39786911  0.38086632  0.19594468  1  0  -0.487042  0  2.094677  0  0  -0.43986  0  2.307595  0  0  -0.462201  0  2.30136  0  0  -0.328579  -0.42389  0  2.31115  0
O  O99  1  0.10265424  0.18459774  0.80447284  1  0  -0.486893  0  2.094705  0  0  -0.440294  0  2.306883  0  0  -0.462618  0  2.300848  0  0  -0.328806  -0.424409  0  2.310501  0
O  O100  1  0.60210522  0.61913235  0.80405211  1  0  -0.487025  0  2.094683  0  0  -0.439851  0  2.307596  0  0  -0.462187  0  2.301345  0  0  -0.328623  -0.423862  0  2.311159  0
O  O101  1  0.89734610  0.81540371  0.19552575  1  0  -0.486894  0  2.094824  0  0  -0.440219  0  2.306983  0  0  -0.462544  0  2.300947  0  0  -0.328773  -0.424358  0  2.310609  0
O  O102  1  0.27482950  0.30503508  0.57056756  1  0  -0.38506  0  1.756378  0  0  -0.365019  0  1.9776  0  0  -0.376454  0  1.974665  0  0  -0.140236  -0.357347  0  1.979593  0
O  O103  1  0.22510864  0.73443996  0.42947343  1  0  -0.38259  0  1.755326  0  0  -0.36266  0  1.976645  0  0  -0.374317  0  1.974108  0  0  -0.139346  -0.354975  0  1.978565  0
O  O104  1  0.72518045  0.69496991  0.42943618  1  0  -0.385166  0  1.756411  0  0  -0.365098  0  1.977569  0  0  -0.376523  0  1.974631  0  0  -0.140292  -0.35743  0  1.97959  0
O  O105  1  0.77491314  0.26556249  0.57052940  1  0  -0.382565  0  1.755249  0  0  -0.362616  0  1.976537  0  0  -0.374283  0  1.974016  0  0  -0.139311  -0.354931  0  1.97846  0
O  O106  1  0.33065332  0.12757824  0.46843896  1  0  -0.38606  0  1.742607  0  0  -0.359146  0  1.952129  0  0  -0.371924  0  1.950381  0  0  -0.142151  -0.350679  0  1.953437  0
O  O107  1  0.16930472  0.65891114  0.53149071  1  0  -0.385861  0  1.744181  0  0  -0.35885  0  1.953895  0  0  -0.371604  0  1.952162  0  0  -0.141816  -0.350357  0  1.955087  0
O  O108  1  0.66937831  0.87243038  0.53156929  1  0  -0.386145  0  1.74227  0  0  -0.35924  0  1.951772  0  0  -0.372028  0  1.950033  0  0  -0.142207  -0.350769  0  1.953081  0
O  O109  1  0.83069704  0.34108857  0.46850935  1  0  -0.385893  0  1.744357  0  0  -0.358844  0  1.954038  0  0  -0.371598  0  1.952307  0  0  -0.141756  -0.350328  0  1.955233  0
