# generated using pymatgen
data_CdH9C10I2N5
_symmetry_space_group_name_H-M   'P 1'
_cell_length_a   8.54279822
_cell_length_b   10.02928973
_cell_length_c   10.55090180
_cell_angle_alpha   108.35783461
_cell_angle_beta   92.75118237
_cell_angle_gamma   105.44460361
_symmetry_Int_Tables_number   1
_chemical_formula_structural   CdH9C10I2N5
_chemical_formula_sum   'Cd2 H18 C20 I4 N10'
_cell_volume   818.35681268
_cell_formula_units_Z   2
loop_
 _symmetry_equiv_pos_site_id
 _symmetry_equiv_pos_as_xyz
  1  'x, y, z'
loop_
 _atom_site_type_symbol
 _atom_site_label
 _atom_site_symmetry_multiplicity
 _atom_site_fract_x
 _atom_site_fract_y
 _atom_site_fract_z
 _atom_site_occupancy
 _atom_site_hle17_bader_spin_density
 _atom_site_hle17_ddec_charge
 _atom_site_hle17_ddec_spin_density
 _atom_site_hle17_ddec_sum_bond_order
 _atom_site_hle17_magmom
 _atom_site_hse06_10hf_bader_charge
 _atom_site_hse06_10hf_bader_spin_density
 _atom_site_hse06_10hf_ddec_charge
 _atom_site_hse06_10hf_ddec_spin_density
 _atom_site_hse06_10hf_ddec_sum_bond_order
 _atom_site_hse06_10hf_magmom
 _atom_site_hse06_bader_spin_density
 _atom_site_hse06_ddec_charge
 _atom_site_hse06_ddec_spin_density
 _atom_site_hse06_ddec_sum_bond_order
 _atom_site_hse06_magmom
 _atom_site_pbe_bader_spin_density
 _atom_site_pbe_cm5_charge
 _atom_site_pbe_ddec_charge
 _atom_site_pbe_ddec_spin_density
 _atom_site_pbe_ddec_sum_bond_order
 _atom_site_pbe_magmom
Cd  Cd0  1  0.42441328  0.97518545  0.18734269  1  0  0.793414  0  2.046401  0  0.950732  0  0.640052  0  2.4978  0  0  0.686773  0  2.46266  0  0  0.510088  0.608269  0  2.520617  0
Cd  Cd1  1  0.57558006  0.02481370  0.81264977  1  0  0.79339  0  2.046474  0  0.950614  0  0.640033  0  2.497874  0  0  0.68674  0  2.462756  0  0  0.510111  0.608255  0  2.520691  0
H  H2  1  0.71697800  0.61312603  0.31105052  1  0  0.325128  0  0.851874  0  0.49498  0  0.310308  0  0.905167  0  0  0.318078  0  0.898687  0  0  0.335961  0.304826  0  0.909872  0
H  H3  1  0.28304078  0.38688708  0.68896531  1  0  0.325104  0  0.852039  0  0.494779  0  0.310266  0  0.905369  0  0  0.318038  0  0.898885  0  0  0.335971  0.304786  0  0.910073  0
H  H4  1  0.48225960  0.32032653  0.17236559  1  0  0.099328  0  0.99259  0  0.086052  0  0.104733  0  1.064255  0  0  0.107803  0  1.062459  0  0  0.084232  0.10245  0  1.065671  0
H  H5  1  0.51775200  0.67967075  0.82764038  1  0  0.099414  0  0.992591  0  0.086314  0  0.104653  0  1.064386  0  0  0.10772  0  1.062597  0  0  0.084212  0.102372  0  1.065795  0
H  H6  1  0.20981617  0.20866815  0.02667940  1  0  0.071878  0  1.005773  0  0.045061  0  0.076989  0  1.082655  0  0  0.079734  0  1.081505  0  0  0.0736  0.074984  0  1.083666  0
H  H7  1  0.79020531  0.79132699  0.97332356  1  0  0.071903  0  1.005642  0  0.045044  0  0.077039  0  1.082511  0  0  0.07977  0  1.081367  0  0  0.073617  0.075034  0  1.083522  0
H  H8  1  0.06628339  0.36238491  0.95449502  1  0  0.082666  0  0.973793  0  0.068095  0  0.093185  0  1.03794  0  0  0.095081  0  1.038309  0  0  0.08948  0.091788  0  1.037855  0
H  H9  1  0.93372679  0.63759605  0.04550782  1  0  0.082685  0  0.973709  0  0.068351  0  0.093201  0  1.037878  0  0  0.095094  0  1.038251  0  0  0.089499  0.091804  0  1.037795  0
H  H10  1  0.19046701  0.63520266  0.02476129  1  0  0.098802  0  0.987127  0  0.065899  0  0.106655  0  1.055833  0  0  0.109915  0  1.053656  0  0  0.089537  0.104309  0  1.057457  0
H  H11  1  0.80953002  0.36478902  0.97524561  1  0  0.098667  0  0.987173  0  0.065785  0  0.106512  0  1.0559  0  0  0.109771  0  1.053723  0  0  0.089458  0.104162  0  1.057537  0
H  H12  1  0.76151539  0.00373558  0.32622935  1  0  0.111036  0  0.946513  0  0.133058  0  0.122511  0  1.01319  0  0  0.124255  0  1.011309  0  0  0.112165  0.121184  0  1.013998  0
H  H13  1  0.23846502  0.99626319  0.67377678  1  0  0.110968  0  0.946442  0  0.132995  0  0.122486  0  1.013104  0  0  0.124227  0  1.011215  0  0  0.112157  0.121153  0  1.01391  0
H  H14  1  0.75453051  0.93052147  0.46023926  1  0  0.115496  0  0.936523  0  0.119665  0  0.122435  0  1.008782  0  0  0.124971  0  1.0063  0  0  0.113474  0.120679  0  1.009818  0
H  H15  1  0.24546397  0.06948132  0.53975889  1  0  0.115432  0  0.93644  0  0.119576  0  0.122336  0  1.008767  0  0  0.124872  0  1.006282  0  0  0.11344  0.120575  0  1.009803  0
H  H16  1  0.02837522  0.01930262  0.21528559  1  0  0.111482  0  0.935219  0  0.152095  0  0.118694  0  1.003513  0  0  0.12179  0  0.99847  0  0  0.132914  0.116151  0  1.006932  0
H  H17  1  0.97160657  0.98069715  0.78470375  1  0  0.111585  0  0.935091  0  0.152289  0  0.11881  0  1.00337  0  0  0.121905  0  0.99832  0  0  0.132982  0.116266  0  1.006788  0
H  H18  1  0.19634407  0.72956914  0.36231717  1  0  0.101414  0  0.939991  0  0.153589  0  0.109564  0  1.001285  0  0  0.11191  0  0.99893  0  0  0.126225  0.107661  0  1.003202  0
H  H19  1  0.80365409  0.27044579  0.63768506  1  0  0.101384  0  0.94  0  0.153912  0  0.109544  0  1.001309  0  0  0.111887  0  0.99896  0  0  0.126209  0.107682  0  1.003173  0
C  C20  1  0.48317274  0.54051901  0.18320600  1  0  0.168516  0  3.778466  0  0.350377  0  0.162473  0  4.017246  0  0  0.166523  0  4.039493  0  0  0.097064  0.15968  0  4.002323  0
C  C21  1  0.51683219  0.45947940  0.81680285  1  0  0.168475  0  3.778687  0  0.35034  0  0.162395  0  4.017474  0  0  0.166461  0  4.039705  0  0  0.097052  0.159604  0  4.002544  0
C  C22  1  0.41799149  0.38794043  0.14159793  1  0  -0.143291  0  3.753014  0  0.064762  0  -0.157992  0  3.994992  0  0  -0.161281  0  4.016143  0  0  -0.097772  -0.155713  0  3.980839  0
C  C23  1  0.58201634  0.61205593  0.85841148  1  0  -0.143252  0  3.753237  0  0.06478  0  -0.157759  0  3.995216  0  0  -0.16105  0  4.016357  0  0  -0.097739  -0.155493  0  3.981087  0
C  C24  1  0.26587406  0.32745075  0.06040994  1  0  -0.067027  0  3.785524  0  -0.051382  0  -0.083562  0  4.039072  0  0  -0.086577  0  4.06313  0  0  -0.106289  -0.081456  0  4.022877  0
C  C25  1  0.73414001  0.67254291  0.93960472  1  0  -0.067223  0  3.786036  0  -0.05088  0  -0.083783  0  4.039553  0  0  -0.086784  0  4.063626  0  0  -0.10631  -0.081677  0  4.023354  0
C  C26  1  0.18423087  0.41537238  0.01960905  1  0  -0.076818  0  3.778706  0  0.003502  0  -0.094225  0  4.034387  0  0  -0.096346  0  4.057647  0  0  -0.10642  -0.092692  0  4.018565  0
C  C27  1  0.81578145  0.58461953  0.98039657  1  0  -0.076868  0  3.779137  0  0.002746  0  -0.094284  0  4.034836  0  0  -0.096404  0  4.058089  0  0  -0.106509  -0.092751  0  4.019016  0
C  C28  1  0.25079750  0.56743828  0.05942763  1  0  -0.149359  0  3.755456  0  -0.044116  0  -0.167063  0  4.003714  0  0  -0.170282  0  4.024282  0  0  -0.102646  -0.164812  0  3.98973  0
C  C29  1  0.74920591  0.43255901  0.94058089  1  0  -0.149069  0  3.755483  0  -0.044349  0  -0.166754  0  4.003691  0  0  -0.169971  0  4.024261  0  0  -0.102507  -0.164505  0  3.989701  0
C  C30  1  0.40177207  0.63024775  0.14382427  1  0  0.144453  0  3.813387  0  0.355755  0  0.143801  0  4.054402  0  0  0.146755  0  4.079652  0  0  0.08148  0.141766  0  4.037392  0
C  C31  1  0.59822749  0.36974841  0.85618477  1  0  0.144325  0  3.813509  0  0.355461  0  0.14368  0  4.054546  0  0  0.146626  0  4.079797  0  0  0.081497  0.141645  0  4.037521  0
C  C32  1  0.63133846  0.77545561  0.27033600  1  0  0.390956  0  3.712799  0  1.072513  0  0.356173  0  3.997248  0  0  0.375544  0  4.006661  0  0  0.22898  0.343536  0  3.989249  0
C  C33  1  0.36866583  0.22454462  0.72966853  1  0  0.390583  0  3.712917  0  1.072221  0  0.355872  0  3.997304  0  0  0.375258  0  4.00669  0  0  0.228844  0.343223  0  3.989298  0
C  C34  1  0.76735831  0.90785422  0.35284091  1  0  -0.119404  0  3.660745  0  0.341388  0  -0.192603  0  3.901976  0  0  -0.182331  0  3.912414  0  0  -0.038571  -0.193206  0  3.896841  0
C  C35  1  0.23263158  0.09215657  0.64716569  1  0  -0.119204  0  3.660416  0  0.341177  0  -0.192493  0  3.901579  0  0  -0.182172  0  3.912021  0  0  -0.038585  -0.193068  0  3.896422  0
C  C36  1  0.04075259  0.94172593  0.26459235  1  0  0.173153  0  3.630987  0  1.043519  0  0.097726  0  3.895326  0  0  0.122236  0  3.909425  0  0  0.160738  0.088372  0  3.88781  0
C  C37  1  0.95924165  0.05828395  0.73539994  1  0  0.173032  0  3.63136  0  1.043896  0  0.097509  0  3.895709  0  0  0.122056  0  3.909852  0  0  0.160577  0.088154  0  3.888194  0
C  C38  1  0.12039171  0.79219588  0.33860819  1  0  0.208207  0  3.702234  0  0.993694  0  0.157021  0  3.993388  0  0  0.169821  0  4.001465  0  0  0.146303  0.149101  0  3.985773  0
C  C39  1  0.87960648  0.20781912  0.66139500  1  0  0.208327  0  3.702221  0  0.993161  0  0.157115  0  3.9934  0  0  0.169921  0  4.001465  0  0  0.146369  0.149168  0  3.985765  0
I  I40  1  0.53075435  0.22623960  0.41370879  1  0  -0.503779  0  0.972766  0  -0.533585  0  -0.45629  0  1.248773  0  0  -0.474168  0  1.229139  0  0  -0.276273  -0.444332  0  1.262086  0
I  I41  1  0.46923664  0.77375181  0.58628072  1  0  -0.503811  0  0.972704  0  -0.533532  0  -0.456317  0  1.248689  0  0  -0.474187  0  1.229058  0  0  -0.276295  -0.444359  0  1.261994  0
I  I42  1  0.24493341  0.90706927  0.93213342  1  0  -0.476779  0  1.112288  0  -0.521722  0  -0.415825  0  1.432229  0  0  -0.436203  0  1.408721  0  0  -0.212966  -0.401799  0  1.448036  0
I  I43  1  0.75506503  0.09291204  0.06784723  1  0  -0.476738  0  1.112268  0  -0.521668  0  -0.415785  0  1.432223  0  0  -0.436159  0  1.408712  0  0  -0.21297  -0.401759  0  1.448031  0
N  N44  1  0.49836696  0.77647812  0.20009677  1  0  -0.453109  0  3.161109  0  -1.241732  0  -0.385059  0  3.437365  0  0  -0.40892  0  3.454008  0  0  -0.356519  -0.368975  0  3.425769  0
N  N45  1  0.50162855  0.22351243  0.79990979  1  0  -0.452907  0  3.161258  0  -1.240928  0  -0.384886  0  3.437492  0  0  -0.408748  0  3.454124  0  0  -0.35649  -0.368841  0  3.426002  0
N  N46  1  0.62750987  0.63691727  0.26277239  1  0  -0.371399  0  3.375139  0  -1.287175  0  -0.316833  0  3.607913  0  0  -0.333643  0  3.617944  0  0  -0.372098  -0.305409  0  3.600813  0
N  N47  1  0.37249084  0.36309051  0.73723386  1  0  -0.371164  0  3.375046  0  -1.286891  0  -0.3166  0  3.607793  0  0  -0.333419  0  3.617818  0  0  -0.372026  -0.305173  0  3.600693  0
N  N48  1  0.92698910  0.88514551  0.33257376  1  0  0.055061  0  3.558651  0  -0.85891  0  0.171944  0  3.748862  0  0  0.132544  0  3.810054  0  0  -0.133522  0.179107  0  3.731648  0
N  N49  1  0.07299992  0.11486627  0.66743210  1  0  0.054982  0  3.558987  0  -0.858792  0  0.172107  0  3.748945  0  0  0.132572  0  3.810286  0  0  -0.133457  0.17926  0  3.731733  0
N  N50  1  0.97533756  0.78847090  0.38038290  1  0  -0.290981  0  2.832535  0  -0.71122  0  -0.29255  0  3.097753  0  0  -0.290468  0  3.113895  0  0  -0.23182  -0.287756  0  3.090789  0
N  N51  1  0.02466319  0.21154471  0.61962813  1  0  -0.290961  0  2.832566  0  -0.711444  0  -0.292609  0  3.097746  0  0  -0.290483  0  3.113906  0  0  -0.231812  -0.287817  0  3.090796  0
N  N52  1  0.16555875  0.88540151  0.26732060  1  0  -0.399049  0  3.191726  0  -1.244872  0  -0.332274  0  3.480343  0  0  -0.353526  0  3.492273  0  0  -0.347336  -0.317708  0  3.469252  0
N  N53  1  0.83443660  0.11460424  0.73267356  1  0  -0.399051  0  3.192013  0  -1.24498  0  -0.332275  0  3.480679  0  0  -0.353531  0  3.492592  0  0  -0.347304  -0.317705  0  3.469587  0
