# generated using pymatgen
data_ZnH2C10NClO4
_symmetry_space_group_name_H-M   'P 1'
_cell_length_a   12.72296264
_cell_length_b   14.01005717
_cell_length_c   14.00986447
_cell_angle_alpha   89.36583645
_cell_angle_beta   87.35799848
_cell_angle_gamma   87.35599838
_symmetry_Int_Tables_number   1
_chemical_formula_structural   ZnH2C10NClO4
_chemical_formula_sum   'Zn2 H4 C20 N2 Cl2 O8'
_cell_volume   2491.84025433
_cell_formula_units_Z   2
loop_
 _symmetry_equiv_pos_site_id
 _symmetry_equiv_pos_as_xyz
  1  'x, y, z'
loop_
 _atom_site_type_symbol
 _atom_site_label
 _atom_site_symmetry_multiplicity
 _atom_site_fract_x
 _atom_site_fract_y
 _atom_site_fract_z
 _atom_site_occupancy
 _atom_site_pbe_bader_charge
 _atom_site_pbe_bader_spin_density
 _atom_site_pbe_cm5_charge
 _atom_site_pbe_ddec_charge
 _atom_site_pbe_ddec_spin_density
 _atom_site_pbe_ddec_sum_bond_order
 _atom_site_pbe_magmom
Zn  Zn0  1  0.39186062  0.49272886  0.49273620  1  1.341742  0  0.682149  0.88459  0  2.415556  0
Zn  Zn1  1  0.60813302  0.50726373  0.50727176  1  1.340828  0  0.682196  0.884652  0  2.41534  0
H  H2  1  0.37961308  0.49354576  0.01561383  1  0.118787  0  0.120305  0.121732  0  0.957797  0
H  H3  1  0.62039204  0.50643907  0.98439287  1  0.118751  0  0.12033  0.121681  0  0.957707  0
H  H4  1  0.62038898  0.98439946  0.50644953  1  0.118747  0  0.120361  0.121782  0  0.957926  0
H  H5  1  0.37962289  0.01560044  0.49354518  1  0.11893  0  0.120416  0.121915  0  0.957843  0
C  C6  1  0.46657001  0.68495920  0.49789559  1  1.667152  0  0.218471  0.668997  0  4.235003  0
C  C7  1  0.14239671  0.47252571  0.47250940  1  0.85953  0  0.236422  0.281065  0  3.941976  0
C  C8  1  0.85759891  0.52749476  0.52748453  1  0.858895  0  0.236411  0.280982  0  3.942824  0
C  C9  1  0.54318186  0.50256145  0.21190377  1  0.143676  0  -0.037972  -0.17415  0  3.933637  0
C  C10  1  0.45679939  0.49744888  0.78808823  1  0.142824  0  -0.038045  -0.174338  0  3.933986  0
C  C11  1  0.45682155  0.78807926  0.49742869  1  0.142653  0  -0.03816  -0.174576  0  3.934667  0
C  C12  1  0.54319023  0.21189562  0.50256206  1  0.143478  0  -0.038033  -0.174214  0  3.934328  0
C  C13  1  0.53344668  0.31504076  0.50210528  1  1.668868  0  0.218458  0.668907  0  4.234942  0
C  C14  1  0.54490608  0.50247287  0.02454852  1  0.097382  0  -0.058702  -0.042241  0  4.046398  0
C  C15  1  0.45511086  0.49751422  0.97546677  1  -0.001192  0  -0.058782  -0.042886  0  4.046418  0
C  C16  1  0.45510994  0.97547605  0.49751545  1  -0.00143  0  -0.058709  -0.042788  0  4.046067  0
C  C17  1  0.54491281  0.02452753  0.50248432  1  0.097304  0  -0.058718  -0.04252  0  4.046151  0
C  C18  1  0.45542091  0.49736785  0.87530206  1  -0.406523  0  -0.034605  -0.014124  0  4.159054  0
C  C19  1  0.53343893  0.50207723  0.31506120  1  1.668877  0  0.218565  0.6692  0  4.235392  0
C  C20  1  0.54457919  0.50263337  0.12470043  1  -0.407485  0  -0.034732  -0.014475  0  4.160186  0
C  C21  1  0.54457821  0.12470331  0.50263920  1  -0.407315  0  -0.034606  -0.014204  0  4.159483  0
C  C22  1  0.45543708  0.87529234  0.49735538  1  -0.406118  0  -0.034639  -0.014056  0  4.158827  0
C  C23  1  0.03138689  0.47076194  0.47073742  1  0.284414  0  0.052346  0.037183  0  4.108984  0
C  C24  1  0.96858560  0.52927045  0.52923622  1  0.35266  0  0.05242  0.037481  0  4.109293  0
C  C25  1  0.46653936  0.49791378  0.68496475  1  1.669013  0  0.218187  0.668656  0  4.234908  0
N  N26  1  0.23349915  0.47377328  0.47375988  1  -1.043903  0  -0.228272  -0.205596  0  3.023492  0
N  N27  1  0.76649765  0.52624436  0.52624687  1  -1.043866  0  -0.228258  -0.205574  0  3.023491  0
Cl  Cl28  1  0.01845840  0.60649349  0.60645085  1  -0.053738  0  0.108817  0.072804  0  1.441645  0
Cl  Cl29  1  0.98152899  0.39354263  0.39353335  1  -0.053806  0  0.108859  0.072994  0  1.442008  0
O  O30  1  0.38229549  0.63966299  0.49364274  1  -1.143716  0  -0.318011  -0.545753  0  2.241453  0
O  O31  1  0.43977054  0.35088367  0.49738784  1  -1.1382  0  -0.315156  -0.549055  0  2.261046  0
O  O32  1  0.43978488  0.49734960  0.35088628  1  -1.138594  0  -0.315096  -0.549032  0  2.261829  0
O  O33  1  0.56020755  0.50263582  0.64911612  1  -1.138488  0  -0.315049  -0.548855  0  2.260845  0
O  O34  1  0.56024806  0.64911202  0.50261726  1  -1.137351  0  -0.315183  -0.549031  0  2.26099  0
O  O35  1  0.61771945  0.36032837  0.50636262  1  -1.144223  0  -0.317964  -0.54566  0  2.241815  0
O  O36  1  0.61771097  0.50632178  0.36032584  1  -1.144134  0  -0.318093  -0.54585  0  2.24201  0
O  O37  1  0.38225758  0.49365410  0.63967372  1  -1.144434  0  -0.317932  -0.54564  0  2.241227  0
