# generated using pymatgen
data_ZnH10(C8N5)2
_symmetry_space_group_name_H-M   'P 1'
_cell_length_a   7.76090562
_cell_length_b   14.81401278
_cell_length_c   15.90964241
_cell_angle_alpha   110.95962225
_cell_angle_beta   90.00035824
_cell_angle_gamma   89.99978006
_symmetry_Int_Tables_number   1
_chemical_formula_structural   ZnH10(C8N5)2
_chemical_formula_sum   'Zn4 H40 C64 N40'
_cell_volume   1708.10527563
_cell_formula_units_Z   4
loop_
 _symmetry_equiv_pos_site_id
 _symmetry_equiv_pos_as_xyz
  1  'x, y, z'
loop_
 _atom_site_type_symbol
 _atom_site_label
 _atom_site_symmetry_multiplicity
 _atom_site_fract_x
 _atom_site_fract_y
 _atom_site_fract_z
 _atom_site_occupancy
 _atom_site_hle17_bader_spin_density
 _atom_site_hle17_ddec_charge
 _atom_site_hle17_ddec_spin_density
 _atom_site_hle17_ddec_sum_bond_order
 _atom_site_hle17_magmom
 _atom_site_hse06_10hf_bader_spin_density
 _atom_site_hse06_10hf_ddec_charge
 _atom_site_hse06_10hf_ddec_spin_density
 _atom_site_hse06_10hf_ddec_sum_bond_order
 _atom_site_hse06_10hf_magmom
 _atom_site_hse06_bader_spin_density
 _atom_site_hse06_ddec_charge
 _atom_site_hse06_ddec_spin_density
 _atom_site_hse06_ddec_sum_bond_order
 _atom_site_hse06_magmom
 _atom_site_pbe_bader_spin_density
 _atom_site_pbe_cm5_charge
 _atom_site_pbe_ddec_charge
 _atom_site_pbe_ddec_spin_density
 _atom_site_pbe_ddec_sum_bond_order
 _atom_site_pbe_magmom
Zn  Zn0  1  0.53692466  0.17436847  0.93671083  1  0  1.052043  0  2.022893  0  0  0.864355  0  2.530426  0  0  0.907364  0  2.476011  0  0  0.755253  0.834845  0  2.56756  0
Zn  Zn1  1  0.03692207  0.32562800  0.56328558  1  0  1.052051  0  2.02289  0  0  0.864358  0  2.530414  0  0  0.907366  0  2.476002  0  0  0.755268  0.834847  0  2.567543  0
Zn  Zn2  1  0.46308894  0.82563622  0.06329114  1  0  1.052159  0  2.022819  0  0  0.864463  0  2.530393  0  0  0.907471  0  2.475978  0  0  0.755295  0.834954  0  2.567525  0
Zn  Zn3  1  0.96306963  0.67437013  0.43671181  1  0  1.052091  0  2.022893  0  0  0.86439  0  2.530459  0  0  0.907403  0  2.476039  0  0  0.755248  0.834881  0  2.567594  0
H  H4  1  0.70583981  0.03622502  0.74820036  1  0  0.082164  0  0.951574  0  0  0.08935  0  1.017152  0  0  0.091727  0  1.015196  0  0  0.11454  0.087657  0  1.018541  0
H  H5  1  0.20583863  0.46377008  0.75180618  1  0  0.082068  0  0.951636  0  0  0.089268  0  1.017211  0  0  0.091646  0  1.015252  0  0  0.114474  0.087573  0  1.0186  0
H  H6  1  0.29415188  0.96377117  0.25180647  1  0  0.082  0  0.95164  0  0  0.089206  0  1.017221  0  0  0.091583  0  1.015264  0  0  0.114476  0.087513  0  1.01861  0
H  H7  1  0.79414921  0.53623087  0.24818895  1  0  0.081937  0  0.951657  0  0  0.089191  0  1.017165  0  0  0.091568  0  1.015209  0  0  0.114454  0.087497  0  1.018554  0
H  H8  1  0.72517421  0.01968096  0.58693014  1  0  0.114198  0  0.948266  0  0  0.123459  0  1.008704  0  0  0.126173  0  1.008969  0  0  0.109695  0.121509  0  1.008692  0
H  H9  1  0.22516208  0.48031064  0.91308102  1  0  0.11421  0  0.948275  0  0  0.12353  0  1.00863  0  0  0.126244  0  1.008899  0  0  0.109736  0.121581  0  1.008616  0
H  H10  1  0.27482522  0.98031524  0.41307669  1  0  0.114191  0  0.948316  0  0  0.123489  0  1.008693  0  0  0.126203  0  1.008959  0  0  0.109702  0.12154  0  1.00868  0
H  H11  1  0.77481673  0.51968530  0.08691505  1  0  0.114071  0  0.948296  0  0  0.123364  0  1.008707  0  0  0.126077  0  1.008975  0  0  0.109634  0.121412  0  1.008699  0
H  H12  1  0.39619662  0.27075642  0.64978371  1  0  0.111376  0  0.958431  0  0  0.117133  0  1.027458  0  0  0.11985  0  1.027269  0  0  0.108378  0.115165  0  1.027771  0
H  H13  1  0.89618996  0.22923467  0.85021272  1  0  0.111415  0  0.958414  0  0  0.117178  0  1.027451  0  0  0.119879  0  1.027278  0  0  0.108349  0.115215  0  1.027746  0
H  H14  1  0.60380667  0.72924468  0.35021776  1  0  0.111407  0  0.958405  0  0  0.117122  0  1.027493  0  0  0.119838  0  1.027305  0  0  0.108396  0.115163  0  1.02778  0
H  H15  1  0.10380302  0.77075401  0.14977917  1  0  0.111393  0  0.958338  0  0  0.117124  0  1.027418  0  0  0.119838  0  1.027232  0  0  0.108401  0.115153  0  1.027737  0
H  H16  1  0.38182043  0.27303790  0.80697195  1  0  0.064339  0  0.975568  0  0  0.073098  0  1.041145  0  0  0.073798  0  1.042637  0  0  0.108077  0.072549  0  1.040206  0
H  H17  1  0.88182466  0.22696335  0.69302890  1  0  0.064275  0  0.975789  0  0  0.073046  0  1.041348  0  0  0.073744  0  1.042839  0  0  0.1081  0.072496  0  1.04041  0
H  H18  1  0.61817513  0.72696251  0.19303119  1  0  0.064282  0  0.975688  0  0  0.073051  0  1.041258  0  0  0.07375  0  1.042751  0  0  0.10807  0.072501  0  1.040321  0
H  H19  1  0.11817605  0.77303403  0.30696699  1  0  0.064311  0  0.975846  0  0  0.073083  0  1.0414  0  0  0.073783  0  1.042891  0  0  0.108108  0.072536  0  1.040455  0
H  H20  1  0.65505899  0.07616725  0.46634525  1  0  0.080983  0  0.959432  0  0  0.084411  0  1.034592  0  0  0.087699  0  1.031343  0  0  0.114735  0.082119  0  1.036881  0
H  H21  1  0.15503855  0.42382885  0.03365612  1  0  0.081083  0  0.959349  0  0  0.084524  0  1.034509  0  0  0.087812  0  1.031261  0  0  0.114752  0.08223  0  1.036796  0
H  H22  1  0.34495461  0.92382815  0.53365819  1  0  0.081012  0  0.959408  0  0  0.084482  0  1.034531  0  0  0.087772  0  1.031281  0  0  0.114743  0.082184  0  1.036817  0
H  H23  1  0.84494799  0.57617277  0.96633734  1  0  0.08106  0  0.959424  0  0  0.084497  0  1.034577  0  0  0.087788  0  1.031322  0  0  0.114771  0.082206  0  1.036863  0
H  H24  1  0.49978720  0.31576461  0.40821498  1  0  0.076711  0  0.931712  0  0  0.085528  0  0.999475  0  0  0.088314  0  0.996198  0  0  0.115046  0.083599  0  1.00181  0
H  H25  1  0.99976597  0.18423174  0.09178123  1  0  0.076732  0  0.931732  0  0  0.085577  0  0.999487  0  0  0.088369  0  0.996199  0  0  0.115041  0.083645  0  1.001826  0
H  H26  1  0.50024058  0.68424014  0.59178953  1  0  0.076724  0  0.931787  0  0  0.085511  0  0.999566  0  0  0.088297  0  0.996289  0  0  0.115008  0.083581  0  1.001902  0
H  H27  1  0.00024892  0.81576421  0.90821484  1  0  0.076708  0  0.931756  0  0  0.08549  0  0.999526  0  0  0.088275  0  0.996248  0  0  0.115034  0.08356  0  1.001862  0
H  H28  1  0.56909582  0.06951938  0.22003390  1  0  0.120834  0  0.947034  0  0  0.126  0  1.013608  0  0  0.129404  0  1.012481  0  0  0.111767  0.123594  0  1.01446  0
H  H29  1  0.06909266  0.43048604  0.27996323  1  0  0.120845  0  0.947011  0  0  0.12602  0  1.013558  0  0  0.129424  0  1.012431  0  0  0.111792  0.123616  0  1.014408  0
H  H30  1  0.43091134  0.93049028  0.77996586  1  0  0.120898  0  0.946922  0  0  0.126075  0  1.013488  0  0  0.129479  0  1.01236  0  0  0.111784  0.123669  0  1.01434  0
H  H31  1  0.93091707  0.56951062  0.72003243  1  0  0.120862  0  0.946999  0  0  0.126027  0  1.013568  0  0  0.129431  0  1.01244  0  0  0.111776  0.123622  0  1.014417  0
H  H32  1  0.58147098  0.05195700  0.05809907  1  0  0.070545  0  0.964548  0  0  0.078869  0  1.032296  0  0  0.080407  0  1.031693  0  0  0.109742  0.077704  0  1.03284  0
H  H33  1  0.08146461  0.44804198  0.44189984  1  0  0.07048  0  0.964595  0  0  0.078825  0  1.032322  0  0  0.080366  0  1.031716  0  0  0.109725  0.077661  0  1.032866  0
H  H34  1  0.41854004  0.94804260  0.94190003  1  0  0.07047  0  0.964656  0  0  0.078833  0  1.032356  0  0  0.080373  0  1.031749  0  0  0.109748  0.077669  0  1.0329  0
H  H35  1  0.91852837  0.55196253  0.55809453  1  0  0.070499  0  0.964622  0  0  0.078848  0  1.032336  0  0  0.08039  0  1.031725  0  0  0.109712  0.077684  0  1.03288  0
H  H36  1  0.49546616  0.34430063  0.11878799  1  0  0.085367  0  0.969961  0  0  0.091012  0  1.037326  0  0  0.093149  0  1.035658  0  0  0.111635  0.089441  0  1.038583  0
H  H37  1  0.99545013  0.15569944  0.38121378  1  0  0.085345  0  0.969943  0  0  0.090997  0  1.037309  0  0  0.093138  0  1.035634  0  0  0.111621  0.089427  0  1.038566  0
H  H38  1  0.50455260  0.65570630  0.88121784  1  0  0.085327  0  0.970011  0  0  0.091068  0  1.037284  0  0  0.09321  0  1.035607  0  0  0.111609  0.089498  0  1.038539  0
H  H39  1  0.00455316  0.84430671  0.61878928  1  0  0.085269  0  0.969906  0  0  0.090988  0  1.037224  0  0  0.09313  0  1.035547  0  0  0.111614  0.089417  0  1.03848  0
H  H40  1  0.47705042  0.37538810  0.28212464  1  0  0.116166  0  0.972056  0  0  0.119816  0  1.042697  0  0  0.123042  0  1.042008  0  0  0.105317  0.117515  0  1.043299  0
H  H41  1  0.97703382  0.12461770  0.21787637  1  0  0.116158  0  0.972148  0  0  0.119802  0  1.042779  0  0  0.123026  0  1.042092  0  0  0.105322  0.117504  0  1.043379  0
H  H42  1  0.52297477  0.62461522  0.71788004  1  0  0.116166  0  0.972092  0  0  0.119818  0  1.042712  0  0  0.123045  0  1.04202  0  0  0.105328  0.117518  0  1.043312  0
H  H43  1  0.02297978  0.87538489  0.78212808  1  0  0.116128  0  0.972278  0  0  0.119785  0  1.04288  0  0  0.123009  0  1.042196  0  0  0.105307  0.117484  0  1.043481  0
C  C44  1  0.63670837  0.08588139  0.72366086  1  0  0.134305  0  3.709491  0  0  0.104169  0  3.963763  0  0  0.111295  0  3.980521  0  0  0.049259  0.099543  0  3.952307  0
C  C45  1  0.13670915  0.41411589  0.77634365  1  0  0.134248  0  3.709311  0  0  0.104062  0  3.963626  0  0  0.111188  0  3.980382  0  0  0.049137  0.099436  0  3.952167  0
C  C46  1  0.36328720  0.91411761  0.27634309  1  0  0.134588  0  3.709194  0  0  0.104384  0  3.963519  0  0  0.111511  0  3.980276  0  0  0.049239  0.099757  0  3.95206  0
C  C47  1  0.86327611  0.58588507  0.22365212  1  0  0.134664  0  3.708967  0  0  0.104482  0  3.96323  0  0  0.111607  0  3.979987  0  0  0.049391  0.099858  0  3.951772  0
C  C48  1  0.64865488  0.07755321  0.63382714  1  0  -0.149039  0  3.677963  0  0  -0.169721  0  3.928115  0  0  -0.176752  0  3.948592  0  0  -0.076912  -0.165214  0  3.914429  0
C  C49  1  0.14863613  0.42243831  0.86617684  1  0  -0.148919  0  3.677819  0  0  -0.169617  0  3.927939  0  0  -0.176655  0  3.948424  0  0  -0.076875  -0.165108  0  3.91425  0
C  C50  1  0.35135357  0.92244439  0.36617825  1  0  -0.149053  0  3.677811  0  0  -0.16973  0  3.927955  0  0  -0.176765  0  3.948436  0  0  -0.076797  -0.165199  0  3.914285  0
C  C51  1  0.85134268  0.57756193  0.13381870  1  0  -0.1489  0  3.67768  0  0  -0.169585  0  3.927805  0  0  -0.176621  0  3.948295  0  0  -0.076818  -0.165074  0  3.914118  0
C  C52  1  0.56205888  0.14427031  0.60472499  1  0  0.089136  0  3.79468  0  0  0.105307  0  4.027909  0  0  0.107921  0  4.048842  0  0  0.00836  0.103725  0  4.013738  0
C  C53  1  0.06203842  0.35572407  0.89527524  1  0  0.089169  0  3.794819  0  0  0.105363  0  4.027973  0  0  0.107984  0  4.048895  0  0  0.008468  0.103779  0  4.013812  0
C  C54  1  0.43794441  0.85572722  0.39527787  1  0  0.089211  0  3.794666  0  0  0.105374  0  4.027901  0  0  0.107991  0  4.048826  0  0  0.008358  0.103731  0  4.01382  0
C  C55  1  0.93793652  0.64427471  0.10471921  1  0  0.089253  0  3.79453  0  0  0.105411  0  4.027774  0  0  0.108025  0  4.048706  0  0  0.008358  0.103818  0  4.013621  0
C  C56  1  0.46482553  0.21678052  0.66866062  1  0  -0.134528  0  3.680439  0  0  -0.155981  0  3.927529  0  0  -0.162567  0  3.949482  0  0  -0.076443  -0.151796  0  3.912888  0
C  C57  1  0.96480921  0.28321345  0.83133944  1  0  -0.13472  0  3.680529  0  0  -0.1562  0  3.927668  0  0  -0.162777  0  3.949625  0  0  -0.076492  -0.152013  0  3.913035  0
C  C58  1  0.53517905  0.78321627  0.33134074  1  0  -0.134545  0  3.680356  0  0  -0.155967  0  3.927473  0  0  -0.162554  0  3.949425  0  0  -0.076457  -0.151764  0  3.912858  0
C  C59  1  0.03517475  0.71677887  0.16865486  1  0  -0.134504  0  3.680203  0  0  -0.155938  0  3.927342  0  0  -0.162525  0  3.949298  0  0  -0.076453  -0.151753  0  3.912706  0
C  C60  1  0.45804466  0.21847746  0.75626474  1  0  0.12388  0  3.719525  0  0  0.098016  0  3.965172  0  0  0.103022  0  3.985966  0  0  0.041722  0.094799  0  3.951034  0
C  C61  1  0.95803625  0.28151935  0.74373368  1  0  0.124135  0  3.719656  0  0  0.098252  0  3.965331  0  0  0.103262  0  3.986116  0  0  0.041692  0.095033  0  3.951192  0
C  C62  1  0.54195606  0.78152362  0.24373609  1  0  0.123944  0  3.719775  0  0  0.098062  0  3.965411  0  0  0.103068  0  3.986208  0  0  0.041731  0.094845  0  3.951274  0
C  C63  1  0.04196317  0.71847663  0.25626366  1  0  0.123913  0  3.71963  0  0  0.09804  0  3.965284  0  0  0.103047  0  3.986078  0  0  0.041707  0.094823  0  3.951147  0
C  C64  1  0.57351316  0.13446082  0.51044053  1  0  0.08748  0  3.643162  0  0  0.051745  0  3.906579  0  0  0.059447  0  3.917855  0  0  0.075881  0.046409  0  3.898815  0
C  C65  1  0.07349255  0.36553139  0.98955904  1  0  0.087242  0  3.643496  0  0  0.051502  0  3.906843  0  0  0.0592  0  3.918129  0  0  0.075713  0.046172  0  3.899072  0
C  C66  1  0.42650301  0.86553598  0.48956146  1  0  0.087382  0  3.643591  0  0  0.051612  0  3.907004  0  0  0.059312  0  3.918282  0  0  0.075813  0.046302  0  3.899247  0
C  C67  1  0.92649270  0.63446444  0.01043196  1  0  0.087141  0  3.643555  0  0  0.051384  0  3.906994  0  0  0.059088  0  3.918271  0  0  0.075653  0.046051  0  3.899231  0
C  C68  1  0.50715745  0.24053084  0.36106610  1  0  0.087847  0  3.645994  0  0  0.053488  0  3.905388  0  0  0.061473  0  3.916592  0  0  0.077142  0.047928  0  3.897721  0
C  C69  1  0.00713312  0.25946539  0.13893423  1  0  0.087901  0  3.646009  0  0  0.05348  0  3.905442  0  0  0.061465  0  3.91665  0  0  0.077185  0.047915  0  3.897778  0
C  C70  1  0.49287548  0.75947317  0.63893754  1  0  0.087743  0  3.646112  0  0  0.053418  0  3.905479  0  0  0.061403  0  3.916684  0  0  0.077086  0.047857  0  3.89781  0
C  C71  1  0.99287146  0.74053053  0.86106057  1  0  0.087722  0  3.646452  0  0  0.053457  0  3.905771  0  0  0.061444  0  3.916979  0  0  0.077112  0.047894  0  3.898103  0
C  C72  1  0.51888748  0.22399020  0.26513725  1  0  0.091146  0  3.794612  0  0  0.105946  0  4.027152  0  0  0.108403  0  4.049104  0  0  0.008127  0.104417  0  4.012408  0
C  C73  1  0.01887329  0.27601028  0.23486132  1  0  0.091099  0  3.794608  0  0  0.105905  0  4.027167  0  0  0.108354  0  4.049136  0  0  0.008138  0.104379  0  4.01242  0
C  C74  1  0.48113771  0.77601377  0.73486450  1  0  0.091164  0  3.794814  0  0  0.105951  0  4.027359  0  0  0.108404  0  4.049318  0  0  0.008144  0.104423  0  4.012616  0
C  C75  1  0.98114031  0.72398500  0.76513705  1  0  0.091258  0  3.794733  0  0  0.105978  0  4.027347  0  0  0.108428  0  4.049315  0  0  0.008195  0.104453  0  4.012594  0
C  C76  1  0.54940446  0.13180373  0.20006905  1  0  -0.137249  0  3.675439  0  0  -0.155616  0  3.919958  0  0  -0.162251  0  3.941599  0  0  -0.075311  -0.15139  0  3.90552  0
C  C77  1  0.04939558  0.36820169  0.29992740  1  0  -0.137204  0  3.67547  0  0  -0.155578  0  3.919985  0  0  -0.162208  0  3.941627  0  0  -0.07533  -0.151351  0  3.905541  0
C  C78  1  0.45060141  0.86820077  0.79992469  1  0  -0.137329  0  3.675415  0  0  -0.15573  0  3.919951  0  0  -0.162362  0  3.94159  0  0  -0.075327  -0.151505  0  3.905515  0
C  C79  1  0.95061416  0.63179938  0.70007280  1  0  -0.137262  0  3.675417  0  0  -0.15564  0  3.91999  0  0  -0.162271  0  3.941633  0  0  -0.075322  -0.151414  0  3.905547  0
C  C80  1  0.55722775  0.12210315  0.11020964  1  0  0.117973  0  3.727355  0  0  0.090414  0  3.973728  0  0  0.095221  0  3.994828  0  0  0.039062  0.087376  0  3.959377  0
C  C81  1  0.05721995  0.37789145  0.38978467  1  0  0.11788  0  3.727779  0  0  0.090312  0  3.97411  0  0  0.095117  0  3.995216  0  0  0.039006  0.087276  0  3.959753  0
C  C82  1  0.44277425  0.87790147  0.88978917  1  0  0.11805  0  3.727438  0  0  0.090477  0  3.973776  0  0  0.095285  0  3.994875  0  0  0.039051  0.087438  0  3.959426  0
C  C83  1  0.94277819  0.62210812  0.61021317  1  0  0.117988  0  3.727514  0  0  0.090448  0  3.97381  0  0  0.095256  0  3.994913  0  0  0.039103  0.087409  0  3.959458  0
C  C84  1  0.50997257  0.28524500  0.14378076  1  0  0.138837  0  3.694148  0  0  0.109027  0  3.940629  0  0  0.115852  0  3.958497  0  0  0.046139  0.104579  0  3.928494  0
C  C85  1  0.00996554  0.21475700  0.35622141  1  0  0.138838  0  3.694064  0  0  0.109023  0  3.940505  0  0  0.115852  0  3.958368  0  0  0.046111  0.104573  0  3.928372  0
C  C86  1  0.49004618  0.71475610  0.85622134  1  0  0.138957  0  3.693805  0  0  0.109057  0  3.940266  0  0  0.115885  0  3.958131  0  0  0.046117  0.104608  0  3.928129  0
C  C87  1  0.99003776  0.78524701  0.64378224  1  0  0.13899  0  3.694038  0  0  0.109101  0  3.940526  0  0  0.115928  0  3.958394  0  0  0.046107  0.104653  0  3.928388  0
C  C88  1  0.50018300  0.30196152  0.23546936  1  0  -0.149554  0  3.676356  0  0  -0.166058  0  3.919866  0  0  -0.173661  0  3.941389  0  0  -0.077963  -0.161112  0  3.905463  0
C  C89  1  0.00017234  0.19803685  0.26453037  1  0  -0.149553  0  3.676436  0  0  -0.16605  0  3.919926  0  0  -0.173652  0  3.941453  0  0  -0.077965  -0.161104  0  3.905523  0
C  C90  1  0.49984091  0.69804309  0.76452881  1  0  -0.149632  0  3.67644  0  0  -0.166123  0  3.919957  0  0  -0.173726  0  3.941485  0  0  -0.078004  -0.161176  0  3.905552  0
C  C91  1  0.99983997  0.80196637  0.73546988  1  0  -0.149704  0  3.676487  0  0  -0.166188  0  3.920049  0  0  -0.173792  0  3.941579  0  0  -0.078022  -0.161242  0  3.905643  0
C  C92  1  0.87869305  0.06193149  0.91666231  1  0  0.559427  0  3.959004  0  0  0.510386  0  4.253081  0  0  0.539606  0  4.259681  0  0  0.338213  0.490415  0  4.248448  0
C  C93  1  0.37869376  0.43806035  0.58333493  1  0  0.559506  0  3.959175  0  0  0.510448  0  4.253272  0  0  0.539694  0  4.259874  0  0  0.338294  0.490474  0  4.24863  0
C  C94  1  0.12130638  0.93806446  0.08333376  1  0  0.559483  0  3.959051  0  0  0.510494  0  4.253131  0  0  0.539721  0  4.259731  0  0  0.338263  0.49052  0  4.248493  0
C  C95  1  0.62129021  0.56194009  0.41666948  1  0  0.559741  0  3.958777  0  0  0.510697  0  4.25285  0  0  0.539923  0  4.259448  0  0  0.338349  0.490726  0  4.248212  0
C  C96  1  0.58909695  0.37700242  0.93686146  1  0  0.532523  0  4.000024  0  0  0.485605  0  4.293943  0  0  0.513903  0  4.303103  0  0  0.319372  0.466343  0  4.287397  0
C  C97  1  0.08906622  0.12299844  0.56314089  1  0  0.531947  0  4.000484  0  0  0.485095  0  4.29448  0  0  0.513377  0  4.303639  0  0  0.319225  0.465832  0  4.287927  0
C  C98  1  0.41091408  0.62300067  0.06313309  1  0  0.532412  0  3.999733  0  0  0.485541  0  4.293699  0  0  0.513824  0  4.302857  0  0  0.319412  0.466277  0  4.287151  0
C  C99  1  0.91089842  0.87700356  0.43686903  1  0  0.532242  0  3.999983  0  0  0.485329  0  4.293944  0  0  0.513616  0  4.303099  0  0  0.319267  0.466066  0  4.287396  0
C  C100  1  0.17301505  0.07621923  0.91826538  1  0  0.563496  0  3.962021  0  0  0.516155  0  4.253356  0  0  0.544234  0  4.261334  0  0  0.336416  0.496968  0  4.247798  0
C  C101  1  0.67301899  0.42377359  0.58173405  1  0  0.56352  0  3.962016  0  0  0.516183  0  4.253334  0  0  0.544283  0  4.261317  0  0  0.336507  0.496998  0  4.247766  0
C  C102  1  0.82698567  0.92377173  0.08173225  1  0  0.563566  0  3.962441  0  0  0.516283  0  4.25374  0  0  0.544366  0  4.261712  0  0  0.336512  0.497097  0  4.248182  0
C  C103  1  0.32696756  0.57623183  0.41826814  1  0  0.563611  0  3.961705  0  0  0.516273  0  4.25303  0  0  0.544353  0  4.261008  0  0  0.336549  0.49709  0  4.247467  0
C  C104  1  0.60004836  0.46330902  0.84248502  1  0  0.447348  0  3.991894  0  0  0.419311  0  4.282257  0  0  0.441583  0  4.294836  0  0  0.27692  0.404118  0  4.273535  0
C  C105  1  0.10004653  0.03669931  0.65753041  1  0  0.447488  0  3.991827  0  0  0.419553  0  4.282186  0  0  0.441806  0  4.294762  0  0  0.277071  0.404359  0  4.273464  0
C  C106  1  0.39992015  0.53669342  0.15751247  1  0  0.447725  0  3.991395  0  0  0.419756  0  4.281741  0  0  0.442007  0  4.294323  0  0  0.27706  0.404564  0  4.273022  0
C  C107  1  0.89994131  0.96330575  0.34248740  1  0  0.447571  0  3.991656  0  0  0.419553  0  4.28202  0  0  0.441813  0  4.2946  0  0  0.276884  0.404359  0  4.273299  0
N  N108  1  0.54408013  0.15543113  0.78459395  1  0  -0.332673  0  3.212743  0  0  -0.258057  0  3.467454  0  0  -0.275182  0  3.485314  0  0  -0.310743  -0.24633  0  3.455076  0
N  N109  1  0.04407807  0.34456333  0.71540876  1  0  -0.332725  0  3.212821  0  0  -0.258099  0  3.467546  0  0  -0.275223  0  3.485406  0  0  -0.310632  -0.246366  0  3.455163  0
N  N110  1  0.45591800  0.84456788  0.21541063  1  0  -0.332839  0  3.212873  0  0  -0.258178  0  3.467589  0  0  -0.275304  0  3.485451  0  0  -0.310744  -0.246448  0  3.455209  0
N  N111  1  0.95591878  0.65542757  0.28458635  1  0  -0.332888  0  3.21255  0  0  -0.258276  0  3.4673  0  0  -0.275401  0  3.485161  0  0  -0.310836  -0.246549  0  3.454924  0
N  N112  1  0.48984984  0.19165207  0.47962559  1  0  -0.188132  0  3.067869  0  0  -0.152983  0  3.352249  0  0  -0.165304  0  3.373086  0  0  -0.195441  -0.144032  0  3.337382  0
N  N113  1  0.98982936  0.30834088  0.02037831  1  0  -0.188083  0  3.068118  0  0  -0.152945  0  3.352474  0  0  -0.165266  0  3.373317  0  0  -0.195352  -0.143994  0  3.337603  0
N  N114  1  0.51016376  0.80834767  0.52037921  1  0  -0.188196  0  3.068219  0  0  -0.153062  0  3.35262  0  0  -0.165383  0  3.373462  0  0  -0.195456  -0.14411  0  3.337744  0
N  N115  1  0.01016621  0.69164852  0.97961380  1  0  -0.188116  0  3.068375  0  0  -0.152971  0  3.352754  0  0  -0.165291  0  3.373594  0  0  -0.195366  -0.144016  0  3.337882  0
N  N116  1  0.50632680  0.16845617  0.38869250  1  0  -0.178034  0  3.079475  0  0  -0.143879  0  3.363578  0  0  -0.155026  0  3.383235  0  0  -0.192115  -0.135715  0  3.349474  0
N  N117  1  0.00629902  0.33154227  0.11131041  1  0  -0.177991  0  3.079428  0  0  -0.143822  0  3.36355  0  0  -0.154969  0  3.38321  0  0  -0.192116  -0.135659  0  3.349445  0
N  N118  1  0.49370484  0.83154857  0.61131137  1  0  -0.177864  0  3.079372  0  0  -0.143693  0  3.363434  0  0  -0.154839  0  3.383093  0  0  -0.191988  -0.135527  0  3.349328  0
N  N119  1  0.99370170  0.66845360  0.88868249  1  0  -0.177811  0  3.079682  0  0  -0.143656  0  3.363732  0  0  -0.154805  0  3.383393  0  0  -0.192035  -0.135493  0  3.349626  0
N  N120  1  0.53793960  0.19706065  0.08180303  1  0  -0.333955  0  3.265915  0  0  -0.256085  0  3.527625  0  0  -0.274153  0  3.545576  0  0  -0.319678  -0.243838  0  3.51525  0
N  N121  1  0.03792240  0.30293975  0.41819306  1  0  -0.333838  0  3.2661  0  0  -0.255977  0  3.527802  0  0  -0.274051  0  3.545758  0  0  -0.319606  -0.243727  0  3.515424  0
N  N122  1  0.46208302  0.80294468  0.91819537  1  0  -0.333986  0  3.26577  0  0  -0.256123  0  3.527533  0  0  -0.274196  0  3.545488  0  0  -0.319601  -0.243873  0  3.515156  0
N  N123  1  0.96207317  0.69706420  0.58180805  1  0  -0.333872  0  3.265994  0  0  -0.256022  0  3.52773  0  0  -0.274097  0  3.54569  0  0  -0.319594  -0.243773  0  3.515354  0
N  N124  1  0.73185185  0.08076675  0.91357227  1  0  -0.621682  0  2.927718  0  0  -0.566682  0  3.245868  0  0  -0.58961  0  3.242609  0  0  -0.390671  -0.551192  0  3.248097  0
N  N125  1  0.23185145  0.41922751  0.58643032  1  0  -0.621831  0  2.927774  0  0  -0.56681  0  3.245878  0  0  -0.589739  0  3.24261  0  0  -0.390754  -0.551329  0  3.248132  0
N  N126  1  0.26815016  0.91923213  0.08642661  1  0  -0.621842  0  2.927619  0  0  -0.566837  0  3.245721  0  0  -0.589765  0  3.242456  0  0  -0.390761  -0.551347  0  3.247957  0
N  N127  1  0.76813510  0.58077363  0.41357305  1  0  -0.62204  0  2.927573  0  0  -0.567042  0  3.245746  0  0  -0.58997  0  3.242475  0  0  -0.39081  -0.551563  0  3.24801  0
N  N128  1  0.54505223  0.31594929  0.96403525  1  0  -0.643163  0  2.934042  0  0  -0.586357  0  3.253158  0  0  -0.608744  0  3.24847  0  0  -0.407398  -0.571222  0  3.256367  0
N  N129  1  0.04502456  0.18404789  0.53596077  1  0  -0.642873  0  2.934386  0  0  -0.586059  0  3.253477  0  0  -0.608446  0  3.248797  0  0  -0.407329  -0.57092  0  3.25668  0
N  N130  1  0.45497039  0.68405672  0.03596147  1  0  -0.643177  0  2.933989  0  0  -0.586388  0  3.25314  0  0  -0.608781  0  3.248458  0  0  -0.407475  -0.571249  0  3.256346  0
N  N131  1  0.95496713  0.81594951  0.46403575  1  0  -0.642962  0  2.934138  0  0  -0.586147  0  3.253249  0  0  -0.608535  0  3.248566  0  0  -0.407359  -0.57101  0  3.256456  0
N  N132  1  0.31049760  0.10941237  0.91863401  1  0  -0.608111  0  2.939412  0  0  -0.552817  0  3.25512  0  0  -0.57586  0  3.252929  0  0  -0.389924  -0.537281  0  3.25665  0
N  N133  1  0.81049533  0.39058768  0.58137378  1  0  -0.608134  0  2.939611  0  0  -0.552847  0  3.255329  0  0  -0.575885  0  3.253127  0  0  -0.389962  -0.537311  0  3.256858  0
N  N134  1  0.68951858  0.89058666  0.08137120  1  0  -0.608207  0  2.940058  0  0  -0.552929  0  3.255758  0  0  -0.575966  0  3.253553  0  0  -0.390036  -0.537397  0  3.257296  0
N  N135  1  0.18950023  0.60941709  0.41863136  1  0  -0.608051  0  2.939584  0  0  -0.552766  0  3.255306  0  0  -0.575801  0  3.253108  0  0  -0.389901  -0.537233  0  3.256837  0
N  N136  1  0.64365075  0.44729739  0.91549342  1  0  -0.466417  0  3.321673  0  0  -0.410736  0  3.585187  0  0  -0.435422  0  3.591978  0  0  -0.309824  -0.393651  0  3.580046  0
N  N137  1  0.14362468  0.05270571  0.58451483  1  0  -0.466123  0  3.321529  0  0  -0.410621  0  3.585122  0  0  -0.435267  0  3.591892  0  0  -0.309819  -0.393535  0  3.579977  0
N  N138  1  0.35633450  0.55270484  0.08449520  1  0  -0.466439  0  3.320958  0  0  -0.410893  0  3.584602  0  0  -0.435504  0  3.591297  0  0  -0.309882  -0.393807  0  3.579462  0
N  N139  1  0.85633094  0.94729854  0.41549895  1  0  -0.46634  0  3.321233  0  0  -0.41068  0  3.584734  0  0  -0.435334  0  3.591515  0  0  -0.309714  -0.39359  0  3.579591  0
N  N140  1  0.03201880  0.03202547  0.92103720  1  0  -0.459683  0  3.338188  0  0  -0.404645  0  3.608297  0  0  -0.429657  0  3.611669  0  0  -0.296247  -0.387311  0  3.605384  0
N  N141  1  0.53201464  0.46796602  0.57896077  1  0  -0.459652  0  3.338086  0  0  -0.404616  0  3.608204  0  0  -0.429678  0  3.61161  0  0  -0.296325  -0.387292  0  3.605324  0
N  N142  1  0.96798321  0.96796611  0.07895624  1  0  -0.459603  0  3.338037  0  0  -0.404665  0  3.608195  0  0  -0.42969  0  3.611578  0  0  -0.296218  -0.387338  0  3.605301  0
N  N143  1  0.46796932  0.53203360  0.42103898  1  0  -0.459857  0  3.337759  0  0  -0.404801  0  3.607848  0  0  -0.429826  0  3.611226  0  0  -0.296376  -0.387469  0  3.604944  0
N  N144  1  0.56880539  0.48430764  0.77936144  1  0  -0.545933  0  2.596536  0  0  -0.522996  0  2.830958  0  0  -0.538722  0  2.840651  0  0  -0.362136  -0.512247  0  2.824373  0
N  N145  1  0.06880967  0.01569993  0.72065114  1  0  -0.546013  0  2.596609  0  0  -0.523091  0  2.831024  0  0  -0.538818  0  2.840725  0  0  -0.362187  -0.512345  0  2.824441  0
N  N146  1  0.43114379  0.51569187  0.22063387  1  0  -0.546149  0  2.596527  0  0  -0.523242  0  2.830952  0  0  -0.538971  0  2.840657  0  0  -0.362193  -0.512497  0  2.824373  0
N  N147  1  0.93116914  0.98431011  0.27936509  1  0  -0.54607  0  2.596423  0  0  -0.523147  0  2.830862  0  0  -0.538877  0  2.840561  0  0  -0.362115  -0.5124  0  2.824281  0
