# generated using pymatgen
data_Cu3H12C18(NO6)2
_symmetry_space_group_name_H-M   'P 1'
_cell_length_a   5.68665077
_cell_length_b   9.60997175
_cell_length_c   10.03384071
_cell_angle_alpha   66.20526687
_cell_angle_beta   80.87250713
_cell_angle_gamma   85.44851533
_symmetry_Int_Tables_number   1
_chemical_formula_structural   Cu3H12C18(NO6)2
_chemical_formula_sum   'Cu3 H12 C18 N2 O12'
_cell_volume   495.30015958
_cell_formula_units_Z   1
loop_
 _symmetry_equiv_pos_site_id
 _symmetry_equiv_pos_as_xyz
  1  'x, y, z'
loop_
 _atom_site_type_symbol
 _atom_site_label
 _atom_site_symmetry_multiplicity
 _atom_site_fract_x
 _atom_site_fract_y
 _atom_site_fract_z
 _atom_site_occupancy
 _atom_site_hle17_ddec_charge
 _atom_site_hle17_ddec_spin_density
 _atom_site_hle17_ddec_sum_bond_order
 _atom_site_hle17_magmom
 _atom_site_hse06_10hf_ddec_charge
 _atom_site_hse06_10hf_ddec_spin_density
 _atom_site_hse06_10hf_ddec_sum_bond_order
 _atom_site_hse06_10hf_magmom
 _atom_site_hse06_ddec_charge
 _atom_site_hse06_ddec_spin_density
 _atom_site_hse06_ddec_sum_bond_order
 _atom_site_hse06_magmom
 _atom_site_pbe_cm5_charge
 _atom_site_pbe_ddec_charge
 _atom_site_pbe_ddec_spin_density
 _atom_site_pbe_ddec_sum_bond_order
 _atom_site_pbe_magmom
Cu  Cu0  1  0.52478807  0.83889391  0.12777458  1  1.068668  -0.626788  1.668525  -0.466  1.089296  -0.785931  2.049707  -0.645  1.173928  -0.886921  1.991062  -0.749  0.7006  1.021632  -0.626489  2.107058  -0.506
Cu  Cu1  1  0.47684421  0.16065664  0.87245727  1  1.064782  0.650959  1.657447  0.499  1.086103  0.789023  2.036353  0.657  1.171699  0.869835  1.977407  0.752  0.698188  1.017093  0.675538  2.095553  0.55
Cu  Cu2  1  0.99929939  0.00123171  0.99937450  1  1.042006  0.681175  1.700732  0.52  1.064961  0.793899  2.074528  0.659  1.151183  0.86677  2.012233  0.747  0.690516  0.995562  0.713457  2.134607  0.578
H  H3  1  0.69638716  0.57037785  0.54327723  1  0.125304  0.000129  0.927317  0.0  0.135071  9.3e-05  0.985475  0.0  0.139345  5.6e-05  0.981768  0.0  0.116854  0.131782  9.9e-05  0.988328  0.0
H  H4  1  0.30417687  0.42977466  0.45640107  1  0.125525  -0.000153  0.926859  0.0  0.135178  -7.6e-05  0.985026  0.0  0.139394  -4.7e-05  0.981413  0.0  0.116849  0.131942  -9.3e-05  0.987749  0.0
H  H5  1  0.13495624  0.56015621  0.85997364  1  0.125798  -1.6e-05  0.959836  0.0  0.132766  -2.1e-05  1.023983  0.0  0.136649  -9e-06  1.020574  0.0  0.115704  0.129795  -1.9e-05  1.026987  0.0
H  H6  1  0.86527846  0.43976608  0.13999994  1  0.125987  4.8e-05  0.959676  0.0  0.132877  3e-05  1.023804  0.0  0.136709  2.5e-05  1.020425  0.0  0.115824  0.129913  2.1e-05  1.026845  0.0
H  H7  1  0.23831478  0.90635509  0.41600432  1  0.117575  0.00028  0.959023  0.0  0.118645  0.000251  1.035947  0.0  0.122578  0.000184  1.031807  0.0  0.109626  0.115893  0.000279  1.038633  0.0
H  H8  1  0.76165975  0.09398726  0.58409371  1  0.118271  8.9e-05  0.95857  0.0  0.119432  6.8e-05  1.035208  0.0  0.123301  2.6e-05  1.031176  0.0  0.110042  0.116732  0.000112  1.037813  0.0
H  H9  1  0.76891806  0.80281798  0.87060784  1  0.426008  5.4e-05  0.858513  0.0  0.403349  7.8e-05  0.915234  0.0  0.413889  6.5e-05  0.899708  0.0  0.296346  0.395568  9.5e-05  0.926738  0.0
H  H10  1  0.23010785  0.19695709  0.12871734  1  0.426663  2e-05  0.856203  0.0  0.404128  -1.2e-05  0.913621  0.0  0.414656  -2e-06  0.898135  0.0  0.297217  0.396353  -3e-06  0.925093  0.0
H  H11  1  0.94951479  0.71279240  0.98824340  1  0.427294  8.4e-05  0.881854  0.0  0.400674  7.5e-05  0.941218  0.0  0.411934  4e-05  0.924752  0.0  0.288378  0.392569  0.000113  0.953068  0.0
H  H12  1  0.05029414  0.28785930  0.01089670  1  0.425783  -4.8e-05  0.884165  0.0  0.399116  -6.9e-05  0.943699  0.0  0.410388  -7.1e-05  0.927207  0.0  0.287696  0.390979  -4.1e-05  0.955608  0.0
H  H13  1  0.35974421  0.89845993  0.89205776  1  0.40274  -0.000425  0.885289  -0.001  0.380636  0.000452  0.958789  0.0  0.392908  0.000325  0.941747  0.0  0.293083  0.371468  0.000571  0.969068  0.001
H  H14  1  0.63679617  0.09986847  0.11066719  1  0.404362  -0.000439  0.886138  -0.002  0.38211  0.000211  0.95749  0.0  0.394284  -2e-06  0.940587  0.0  0.293377  0.373079  0.000363  0.969383  0.0
C  C15  1  0.95903212  0.74564373  0.46475598  1  -0.060028  0.000382  3.737421  0.0  -0.035119  0.000194  3.970338  0.0  -0.049072  0.000294  3.995284  0.0  -0.009928  -0.026113  0.000276  3.953528  0.0
C  C16  1  0.04110187  0.25464315  0.53524244  1  -0.059235  0.012828  3.736516  0.015  -0.034668  0.008465  3.969945  0.01  -0.04869  0.006146  3.994911  0.008  -0.009578  -0.025464  0.008891  3.952936  0.01
C  C17  1  0.88489264  0.81560643  0.31442801  1  0.655583  -0.00032  3.865924  -0.001  0.620222  0.000159  4.155321  0.0  0.66172  5.1e-05  4.147781  0.0  0.217944  0.59069  0.000394  4.159266  0.0
C  C18  1  0.11567583  0.18468390  0.68543477  1  0.656166  -0.004414  3.863695  -0.01  0.62037  0.001123  4.153807  -0.002  0.662094  0.000474  4.146201  -0.002  0.218882  0.590511  0.001633  4.157948  -0.002
C  C19  1  0.83968940  0.61779538  0.57116065  1  -0.034696  -0.000471  3.658018  0.0  -0.072997  0.000351  3.904956  0.0  -0.065968  7.4e-05  3.92135  0.0  -0.059223  -0.077356  0.00052  3.893865  0.001
C  C20  1  0.16068525  0.38237978  0.42863946  1  -0.034879  0.000929  3.657159  0.001  -0.073158  0.000639  3.904177  0.001  -0.066208  0.000287  3.920675  0.0  -0.058769  -0.077376  0.000927  3.892857  0.001
C  C21  1  0.90115408  0.55050991  0.71341606  1  -0.063745  0.009732  3.733655  0.011  -0.038556  0.005609  3.970395  0.007  -0.051482  0.003969  3.995495  0.005  -0.011306  -0.030539  0.006188  3.954543  0.007
C  C22  1  0.09921924  0.44954127  0.28640824  1  -0.062368  -0.008445  3.731708  -0.009  -0.037458  -0.004794  3.968669  -0.006  -0.050401  -0.003349  3.993868  -0.004  -0.010918  -0.029647  -0.005039  3.953043  -0.006
C  C23  1  0.76710661  0.41427672  0.82757228  1  0.656584  -0.002916  3.878735  -0.006  0.612732  0.000382  4.176766  -0.002  0.6507  9.5e-05  4.170399  -0.002  0.214542  0.586847  0.000678  4.179377  -0.002
C  C24  1  0.23356545  0.58550301  0.17188040  1  0.656448  0.002523  3.877616  0.006  0.612839  -0.000461  4.176223  0.002  0.650744  -0.000226  4.170072  0.002  0.214878  0.586838  -0.000561  4.178777  0.002
C  C25  1  0.08514385  0.61061055  0.74956695  1  -0.052015  -0.000678  3.622984  0.0  -0.089808  0.000182  3.865173  0.0  -0.085867  -4.7e-05  3.882785  0.0  -0.056142  -0.093462  0.000164  3.855268  0.0
C  C26  1  0.91500155  0.38942594  0.25039089  1  -0.051524  -6.9e-05  3.62314  0.0  -0.089512  -0.000283  3.865753  -0.001  -0.085582  -0.000306  3.883453  0.0  -0.055872  -0.093162  -0.000574  3.855919  -0.001
C  C27  1  0.20497165  0.73938379  0.64197501  1  0.013111  0.000657  3.847522  0.001  0.038613  0.00013  4.081297  0.0  0.03211  0.000195  4.103743  0.0  0.006789  0.042592  0.00015  4.066763  0.0
C  C28  1  0.79510857  0.26079418  0.35807808  1  0.012997  -0.00022  3.846899  0.0  0.038224  -0.000112  4.081123  0.0  0.03162  -5.2e-05  4.103689  0.0  0.006894  0.042276  -0.000118  4.066504  0.0
C  C29  1  0.38641953  0.80312155  0.68167970  1  0.324825  -0.000246  3.688497  0.0  0.308929  -8.8e-05  3.947377  0.0  0.321617  -9.1e-05  3.966095  0.0  0.218496  0.30032  -3.7e-05  3.935475  0.0
C  C30  1  0.61370698  0.19695050  0.31849719  1  0.324852  0.000141  3.688314  0.0  0.309069  0.000304  3.947218  0.0  0.321825  0.000198  3.966061  0.0  0.218614  0.300413  0.000311  3.935259  0.0
C  C31  1  0.14400140  0.80723602  0.49883661  1  -0.047302  -0.002536  3.626198  -0.003  -0.085323  -0.001307  3.873305  -0.002  -0.08015  -0.001059  3.889979  -0.001  -0.055495  -0.087939  -0.001019  3.860877  -0.001
C  C32  1  0.85606968  0.19304448  0.50130614  1  -0.04726  0.000245  3.625356  0.0  -0.085374  0.000669  3.872584  0.001  -0.080182  0.000352  3.889338  0.0  -0.055552  -0.087982  0.000837  3.860036  0.001
N  N33  1  0.53169282  0.85463916  0.71797300  1  -0.429233  0.00025  2.656478  0.0  -0.392561  0.000146  2.885263  0.0  -0.406569  0.000116  2.895436  0.0  -0.296595  -0.383619  0.000171  2.879083  0.0
N  N34  1  0.46850347  0.14531198  0.28222588  1  -0.428095  0.000418  2.657102  0.0  -0.391503  0.000434  2.885401  0.0  -0.405769  0.000296  2.895784  0.0  -0.295965  -0.38239  0.000561  2.87915  0.0
O  O35  1  0.68401332  0.77476175  0.30297609  1  -0.588665  -0.060476  2.094998  -0.082  -0.566813  -0.042617  2.376872  -0.063  -0.605969  -0.034169  2.364535  -0.053  -0.310855  -0.536852  -0.041587  2.384114  -0.06
O  O36  1  0.31709881  0.22430412  0.69698890  1  -0.589543  0.055766  2.097462  0.079  -0.565764  0.040505  2.378202  0.062  -0.604692  0.031287  2.365574  0.051  -0.310722  -0.536427  0.041434  2.386333  0.061
O  O37  1  0.02840302  0.90834286  0.21216815  1  -0.609881  0.072023  2.130678  0.1  -0.591537  0.049163  2.421901  0.073  -0.632025  0.038042  2.408356  0.059  -0.316304  -0.561816  0.054429  2.430862  0.078
O  O38  1  0.97120273  0.09263848  0.78799769  1  -0.608708  0.069158  2.135744  0.099  -0.592357  0.044805  2.429914  0.07  -0.634393  0.033443  2.416958  0.055  -0.31614  -0.560947  0.050792  2.438201  0.075
O  O39  1  0.63150623  0.35514811  0.77425129  1  -0.595861  0.079816  2.091772  0.112  -0.578456  0.050822  2.382381  0.077  -0.622188  0.038105  2.373747  0.061  -0.322089  -0.546411  0.053429  2.387148  0.078
O  O40  1  0.37052488  0.64424459  0.22474624  1  -0.59433  -0.081606  2.089267  -0.11  -0.579186  -0.050581  2.380875  -0.075  -0.622895  -0.038598  2.372225  -0.06  -0.322147  -0.546427  -0.051845  2.385134  -0.075
O  O41  1  0.79532633  0.36874655  0.96050122  1  -0.616196  -0.001968  1.992428  -0.002  -0.569305  -0.001309  2.218453  -0.001  -0.596172  -0.001278  2.208866  -0.001  -0.315348  -0.550299  -0.001119  2.224214  -0.001
O  O42  1  0.20444126  0.63102862  0.03911720  1  -0.615137  0.002002  1.992858  0.002  -0.568638  0.001323  2.218868  0.001  -0.595659  0.001114  2.209428  0.001  -0.314785  -0.549645  0.001586  2.224732  0.002
O  O43  1  0.81078735  0.78477882  0.96719358  1  -0.884704  0.00145  1.921325  0.002  -0.856984  0.001114  2.12517  0.001  -0.874638  0.000778  2.083407  0.001  -0.599228  -0.840603  0.00145  2.155526  0.002
O  O44  1  0.18968704  0.21629476  0.03151980  1  -0.882639  -0.001745  1.921704  0.0  -0.855051  -0.001812  2.126354  -0.001  -0.873032  -0.002263  2.084796  -0.001  -0.598129  -0.838028  -0.000752  2.156579  0.0
O  O45  1  0.33812204  0.94910009  0.96131113  1  -0.880271  0.084521  2.086198  0.117  -0.894136  0.054777  2.429726  0.081  -0.961479  0.041745  2.398822  0.065  -0.570356  -0.839887  0.062921  2.447917  0.089
O  O46  1  0.65904415  0.04957324  0.04120862  1  -0.891018  0.068296  2.09445  0.096  -0.901078  0.043995  2.437379  0.065  -0.966193  0.034106  2.405647  0.053  -0.575894  -0.848457  0.050908  2.457322  0.073
