# generated using pymatgen
data_TbH19C24N2O7
_symmetry_space_group_name_H-M   'P 1'
_cell_length_a   8.11960918
_cell_length_b   12.76364876
_cell_length_c   14.16137226
_cell_angle_alpha   114.60781555
_cell_angle_beta   94.61042746
_cell_angle_gamma   100.06824372
_symmetry_Int_Tables_number   1
_chemical_formula_structural   TbH19C24N2O7
_chemical_formula_sum   'Tb2 H38 C48 N4 O14'
_cell_volume   1294.40997430
_cell_formula_units_Z   2
loop_
 _symmetry_equiv_pos_site_id
 _symmetry_equiv_pos_as_xyz
  1  'x, y, z'
loop_
 _atom_site_type_symbol
 _atom_site_label
 _atom_site_symmetry_multiplicity
 _atom_site_fract_x
 _atom_site_fract_y
 _atom_site_fract_z
 _atom_site_occupancy
 _atom_site_pbe_bader_charge
 _atom_site_pbe_bader_spin_density
 _atom_site_pbe_cm5_charge
 _atom_site_pbe_ddec_charge
 _atom_site_pbe_ddec_spin_density
 _atom_site_pbe_ddec_sum_bond_order
 _atom_site_pbe_magmom
Tb  Tb0  1  0.27746730  0.55069716  0.50189084  1  2.194619  0  1.531883  2.112149  0  2.179154  0
Tb  Tb1  1  0.72252452  0.44929676  0.49810417  1  2.194939  0  1.531844  2.112078  0  2.178985  0
H  H2  1  0.34857034  0.48004792  0.77967868  1  0.113321  0  0.106048  0.112311  0  1.022207  0
H  H3  1  0.38377619  0.36393470  0.88218209  1  0.069752  0  0.104803  0.112903  0  0.995919  0
H  H4  1  0.84572245  0.21268712  0.80338744  1  0.081945  0  0.098633  0.102232  0  1.024167  0
H  H5  1  0.81138077  0.33429135  0.70512644  1  0.107647  0  0.106248  0.107757  0  1.040243  0
H  H6  1  0.41911842  0.14956131  0.15997498  1  0.082277  0  0.103615  0.105596  0  0.996461  0
H  H7  1  0.27254533  0.07527643  0.97650127  1  0.037996  0  0.098151  0.108368  0  1.026834  0
H  H8  1  0.18540360  0.42350453  0.04957346  1  0.071763  0  0.099913  0.109941  0  1.015285  0
H  H9  1  0.32015367  0.49235393  0.23462403  1  0.105603  0  0.110227  0.110577  0  1.016963  0
H  H10  1  0.28405281  0.86711289  0.66450648  1  0.115575  0  0.113532  0.121577  0  1.006607  0
H  H11  1  0.35343061  0.08255837  0.79552263  1  0.076133  0  0.103051  0.10521  0  1.010635  0
H  H12  1  0.83534057  0.05154398  0.84448027  1  0.087307  0  0.107908  0.116067  0  0.98828  0
H  H13  1  0.76372823  0.83987292  0.70777699  1  0.130403  0  0.106982  0.111515  0  1.039051  0
H  H14  1  0.65316230  0.72898406  0.50650927  1  0.159904  0  0.133779  0.064381  0  1.04455  0
H  H15  1  0.86463430  0.84623203  0.49114222  1  0.068301  0  0.110974  0.125619  0  1.015712  0
H  H16  1  0.82550131  0.97956267  0.49041663  1  0.041915  0  0.102719  0.115601  0  0.988194  0
H  H17  1  0.83484075  0.85777423  0.36955680  1  0.076461  0  0.098731  0.113236  0  1.024812  0
H  H18  1  0.37094043  0.85470495  0.39655340  1  0.101727  0  0.112045  0.128854  0  1.010355  0
H  H19  1  0.49228592  0.82576572  0.29242906  1  0.060666  0  0.103196  0.113487  0  0.99185  0
H  H20  1  0.54221081  0.96882816  0.40214479  1  0.060611  0  0.108466  0.121892  0  0.994866  0
H  H21  1  0.65142880  0.51994310  0.22032482  1  0.113164  0  0.106076  0.112349  0  1.022177  0
H  H22  1  0.61619593  0.63605328  0.11781735  1  0.069592  0  0.10482  0.11291  0  0.99593  0
H  H23  1  0.15424410  0.78730822  0.19660105  1  0.081842  0  0.098705  0.102258  0  1.024192  0
H  H24  1  0.18862047  0.66571406  0.29486425  1  0.107763  0  0.106239  0.10777  0  1.040216  0
H  H25  1  0.58090308  0.85044550  0.84001808  1  0.081745  0  0.103659  0.105603  0  0.996446  0
H  H26  1  0.72744802  0.92472110  0.02348812  1  0.038098  0  0.098085  0.108364  0  1.026864  0
H  H27  1  0.81459757  0.57649183  0.95042934  1  0.071716  0  0.099929  0.109953  0  1.015257  0
H  H28  1  0.67986704  0.50765107  0.76537255  1  0.105346  0  0.110223  0.110575  0  1.016933  0
H  H29  1  0.71595788  0.13290208  0.33549612  1  0.115583  0  0.113542  0.121587  0  1.006592  0
H  H30  1  0.64656016  0.91745690  0.20448744  1  0.076258  0  0.103073  0.105179  0  1.010685  0
H  H31  1  0.16463139  0.94844236  0.15550370  1  0.087378  0  0.107926  0.116114  0  0.988132  0
H  H32  1  0.23626815  0.16011567  0.29220496  1  0.130244  0  0.106971  0.111421  0  1.039122  0
H  H33  1  0.34686329  0.27100471  0.49349204  1  0.160206  0  0.133791  0.06433  0  1.044589  0
H  H34  1  0.13537149  0.15375981  0.50885632  1  0.068281  0  0.110981  0.12561  0  1.015565  0
H  H35  1  0.17451762  0.02044575  0.50960021  1  0.042099  0  0.102723  0.11556  0  0.988304  0
H  H36  1  0.16517184  0.14221928  0.63044204  1  0.076309  0  0.098723  0.113225  0  1.024769  0
H  H37  1  0.62907123  0.14529734  0.60346353  1  0.101598  0  0.112085  0.128926  0  1.010383  0
H  H38  1  0.50771407  0.17423422  0.70757574  1  0.060509  0  0.103226  0.113541  0  0.991931  0
H  H39  1  0.45780260  0.03118214  0.59787315  1  0.060735  0  0.108498  0.121991  0  0.994829  0
C  C40  1  0.05438291  0.47821538  0.67030233  1  1.602418  0  0.234131  0.656863  0  4.159799  0
C  C41  1  0.07704977  0.41460622  0.73710984  1  -0.001136  0  -0.015585  -0.036651  0  3.934679  0
C  C42  1  0.23854172  0.42305027  0.78700063  1  -0.010384  0  -0.080952  -0.072304  0  3.952347  0
C  C43  1  0.25824263  0.35767633  0.84342286  1  -0.084901  0  -0.094798  -0.180588  0  3.994556  0
C  C44  1  0.11659761  0.28047760  0.84852950  1  0.296491  0  0.091276  0.180221  0  4.043649  0
C  C45  1  0.95513809  0.27280267  0.79932551  1  -0.066464  0  -0.101352  -0.185714  0  4.014987  0
C  C46  1  0.93563413  0.34003851  0.74481252  1  -0.043052  0  -0.082984  -0.083099  0  3.980391  0
C  C47  1  0.46372000  0.36543023  0.31871376  1  1.510101  0  0.202574  0.611977  0  4.205613  0
C  C48  1  0.38027660  0.32580908  0.20952702  1  -0.012884  0  -0.028489  -0.072654  0  3.988006  0
C  C49  1  0.36574168  0.20846478  0.13507778  1  0.029998  0  -0.081505  -0.060432  0  4.007959  0
C  C50  1  0.28569668  0.16736531  0.03204359  1  -0.089355  0  -0.113311  -0.212667  0  4.013569  0
C  C51  1  0.22105893  0.24472198  0.99892900  1  0.34079  0  0.103394  0.213013  0  4.044214  0
C  C52  1  0.23769464  0.36341308  0.07329176  1  -0.051618  0  -0.108154  -0.202009  0  3.985728  0
C  C53  1  0.31408875  0.40223756  0.17684119  1  -0.001187  0  -0.077294  -0.052727  0  3.971906  0
C  C54  1  0.97652345  0.71524350  0.59772708  1  1.61076  0  0.237192  0.649401  0  4.167461  0
C  C55  1  0.01897166  0.84263026  0.67704500  1  -0.039961  0  -0.015058  -0.042276  0  3.948873  0
C  C56  1  0.18630566  0.90981186  0.70234307  1  -0.005519  0  -0.076707  -0.075397  0  3.951942  0
C  C57  1  0.22455209  0.02840809  0.77527694  1  -0.089764  0  -0.09264  -0.176649  0  4.008524  0
C  C58  1  0.09740038  0.07995864  0.82503098  1  0.31544  0  0.09283  0.184653  0  4.02984  0
C  C59  1  0.93200316  0.01181917  0.80257676  1  -0.024121  0  -0.089513  -0.165981  0  3.984079  0
C  C60  1  0.89241210  0.89397016  0.72748396  1  -0.090451  0  -0.079502  -0.076989  0  3.964966  0
C  C61  1  0.55452490  0.75288902  0.46621649  1  1.354385  0  0.188843  0.322514  0  4.056109  0
C  C62  1  0.79490838  0.88233643  0.44691453  1  0.274465  0  -0.129439  -0.275914  0  3.915248  0
C  C63  1  0.49799121  0.87363003  0.37816839  1  0.224122  0  -0.12925  -0.271024  0  3.904978  0
C  C64  1  0.94560985  0.52178828  0.32970135  1  1.602374  0  0.234188  0.65693  0  4.159987  0
C  C65  1  0.92294103  0.58538857  0.26288898  1  -0.000855  0  -0.015554  -0.036634  0  3.934983  0
C  C66  1  0.76144565  0.57694901  0.21300392  1  -0.010049  0  -0.081005  -0.072363  0  3.952356  0
C  C67  1  0.74173652  0.64233465  0.15659059  1  -0.08519  0  -0.09467  -0.180474  0  3.994556  0
C  C68  1  0.88338834  0.71952440  0.15147388  1  0.296745  0  0.091204  0.180179  0  4.043637  0
C  C69  1  0.04484220  0.72720116  0.20068389  1  -0.066485  0  -0.101487  -0.1858  0  4.014896  0
C  C70  1  0.06435118  0.65995817  0.25518670  1  -0.043181  0  -0.083004  -0.083131  0  3.980535  0
C  C71  1  0.53628687  0.63456429  0.68128232  1  1.510608  0  0.20256  0.612054  0  4.205738  0
C  C72  1  0.61974708  0.67420036  0.79046786  1  -0.012821  0  -0.02845  -0.072698  0  3.987849  0
C  C73  1  0.63426315  0.79154054  0.86491591  1  0.030268  0  -0.081584  -0.060452  0  4.008008  0
C  C74  1  0.71429715  0.83263394  0.96795143  1  -0.08922  0  -0.113248  -0.212594  0  4.013703  0
C  C75  1  0.77891872  0.75527397  0.00106880  1  0.340873  0  0.103406  0.212836  0  4.044269  0
C  C76  1  0.76230431  0.63657984  0.92670044  1  -0.051632  0  -0.108281  -0.202048  0  3.985865  0
C  C77  1  0.68591838  0.59776412  0.82315407  1  -0.001547  0  -0.077248  -0.052679  0  3.97191  0
C  C78  1  0.02347471  0.28476020  0.40226209  1  1.610372  0  0.237038  0.649343  0  4.167669  0
C  C79  1  0.98102382  0.15737342  0.32295108  1  -0.039367  0  -0.015063  -0.042428  0  3.949134  0
C  C80  1  0.81368539  0.09018381  0.29765820  1  -0.005519  0  -0.07667  -0.075507  0  3.952119  0
C  C81  1  0.77544242  0.97159648  0.22472153  1  -0.089888  0  -0.092595  -0.176347  0  4.00841  0
C  C82  1  0.90259825  0.92004129  0.17497798  1  0.315311  0  0.092832  0.184772  0  4.029492  0
C  C83  1  0.06798766  0.98818193  0.19741808  1  -0.023541  0  -0.089494  -0.166123  0  3.983837  0
C  C84  1  0.10757959  0.10603357  0.27251474  1  -0.090891  0  -0.079531  -0.07681  0  3.965031  0
C  C85  1  0.44549836  0.24711047  0.53379085  1  1.35438  0  0.188815  0.322571  0  4.056262  0
C  C86  1  0.20511580  0.11767199  0.55309200  1  0.274429  0  -0.129549  -0.27594  0  3.915362  0
C  C87  1  0.50201713  0.12637598  0.62184058  1  0.22418  0  -0.129327  -0.27129  0  3.905424  0
N  N88  1  0.13668452  0.20375816  0.89647110  1  -1.21169  0  -0.263687  -0.1848  0  3.67775  0
N  N89  1  0.61367780  0.83567750  0.43437468  1  -1.209228  0  -0.285004  0.019596  0  3.716032  0
N  N90  1  0.86328782  0.79624407  0.10353514  1  -1.212125  0  -0.263686  -0.184857  0  3.677795  0
N  N91  1  0.38633314  0.16432221  0.56563347  1  -1.208882  0  -0.284922  0.019743  0  3.716272  0
O  O92  1  0.18468965  0.51231841  0.63777738  1  -1.198148  0  -0.395312  -0.663922  0  2.343637  0
O  O93  1  0.90594913  0.49057448  0.64860766  1  -1.197679  0  -0.4068  -0.676441  0  2.332212  0
O  O94  1  0.46972808  0.47177939  0.38997168  1  -1.213992  0  -0.445167  -0.769886  0  2.370862  0
O  O95  1  0.53503664  0.29684777  0.34332246  1  -1.183631  0  -0.380464  -0.63864  0  2.220611  0
O  O96  1  0.09710485  0.67205505  0.55773671  1  -1.204015  0  -0.410795  -0.690025  0  2.402584  0
O  O97  1  0.82224678  0.65848625  0.57470376  1  -1.198933  0  -0.378382  -0.653338  0  2.329452  0
O  O98  1  0.39978306  0.70642213  0.45217842  1  -1.174901  0  -0.348977  -0.537331  0  2.351876  0
O  O99  1  0.81530669  0.48767371  0.36220943  1  -1.198207  0  -0.39527  -0.663877  0  2.343942  0
O  O100  1  0.09405679  0.50942094  0.35139011  1  -1.197668  0  -0.406902  -0.676576  0  2.332076  0
O  O101  1  0.53028423  0.52821953  0.61002212  1  -1.214215  0  -0.445148  -0.769804  0  2.371055  0
O  O102  1  0.46497683  0.70314757  0.65667006  1  -1.183635  0  -0.380479  -0.638751  0  2.220622  0
O  O103  1  0.90292195  0.32795417  0.44227522  1  -1.203617  0  -0.410585  -0.689892  0  2.402727  0
O  O104  1  0.17776560  0.34150994  0.42529467  1  -1.198991  0  -0.378468  -0.653377  0  2.329209  0
O  O105  1  0.60022321  0.29357499  0.54782919  1  -1.175308  0  -0.348964  -0.537375  0  2.352101  0
