# generated using pymatgen
data_H32Ru2C32N4ClO4
_symmetry_space_group_name_H-M   'P 1'
_cell_length_a   7.36782310
_cell_length_b   10.66123961
_cell_length_c   10.66186297
_cell_angle_alpha   83.13324397
_cell_angle_beta   69.77847114
_cell_angle_gamma   69.78136605
_symmetry_Int_Tables_number   1
_chemical_formula_structural   H32Ru2C32N4ClO4
_chemical_formula_sum   'H32 Ru2 C32 N4 Cl1 O4'
_cell_volume   737.44564538
_cell_formula_units_Z   1
loop_
 _symmetry_equiv_pos_site_id
 _symmetry_equiv_pos_as_xyz
  1  'x, y, z'
loop_
 _atom_site_type_symbol
 _atom_site_label
 _atom_site_symmetry_multiplicity
 _atom_site_fract_x
 _atom_site_fract_y
 _atom_site_fract_z
 _atom_site_occupancy
 _atom_site_pbe_cm5_charge
 _atom_site_pbe_ddec_charge
 _atom_site_pbe_ddec_spin_density
 _atom_site_pbe_ddec_sum_bond_order
 _atom_site_pbe_magmom
H  H0  1  0.55676639  0.14820829  0.16111566  1  0.099031  0.099917  -1.9e-05  1.04037  0.0
H  H1  1  0.29483029  0.83886126  0.14821262  1  0.099706  0.10042  -1.9e-05  1.040179  0.0
H  H2  1  0.28196559  0.16111275  0.85182138  1  0.099568  0.100588  -1.9e-05  1.040039  0.0
H  H3  1  0.86629091  0.85178494  0.83881059  1  0.099422  0.100238  -1.9e-05  1.039237  0.0
H  H4  1  0.70985355  0.90945895  0.09014849  1  0.096961  0.094985  -2.4e-05  1.024572  0.0
H  H5  1  0.38043754  0.90990732  0.90950030  1  0.097161  0.095449  -2.4e-05  1.024048  0.0
H  H6  1  0.19988587  0.09010842  0.09057051  1  0.097087  0.095247  -2.5e-05  1.024314  0.0
H  H7  1  0.70964196  0.09051882  0.90983491  1  0.097291  0.095835  -2.4e-05  1.024118  0.0
H  H8  1  0.73782235  0.73000944  0.26405293  1  0.09652  0.091702  7.5e-05  1.038633  0.0
H  H9  1  0.53214549  0.73604995  0.73002904  1  0.096856  0.092188  7.4e-05  1.037821  0.0
H  H10  1  0.99812852  0.26402980  0.26996975  1  0.096477  0.091522  7.5e-05  1.038117  0.0
H  H11  1  0.73198368  0.26998509  0.73594092  1  0.09655  0.091194  7.5e-05  1.038162  0.0
H  H12  1  0.63158534  0.78940608  0.49957769  1  0.095011  0.098077  2.6e-05  1.05628  0.0
H  H13  1  0.57909430  0.50047560  0.78943491  1  0.094732  0.097623  2.6e-05  1.055034  0.0
H  H14  1  0.86890321  0.49960082  0.21054904  1  0.094869  0.097756  2.6e-05  1.055316  0.0
H  H15  1  0.92060581  0.21063872  0.50035402  1  0.095008  0.098127  2.6e-05  1.056495  0.0
H  H16  1  0.67622373  0.25116250  0.41424065  1  0.292986  0.288392  0.00153  0.982966  0.002
H  H17  1  0.07264975  0.58569119  0.25121199  1  0.293368  0.288969  0.001532  0.983461  0.002
H  H18  1  0.90938886  0.41429229  0.74884551  1  0.29297  0.28838  0.001534  0.983258  0.002
H  H19  1  0.34169156  0.74875316  0.58574807  1  0.293256  0.289218  0.00153  0.982026  0.002
H  H20  1  0.51253273  0.95512556  0.67154770  1  0.089629  0.127328  -1.3e-05  1.032622  0.0
H  H21  1  0.53238275  0.32844976  0.95520953  1  0.089565  0.127102  -1.3e-05  1.032271  0.0
H  H22  1  0.81602067  0.67153670  0.04474448  1  0.089544  0.126874  -1.3e-05  1.032465  0.0
H  H23  1  0.13927887  0.04476443  0.32835459  1  0.08972  0.127333  -1.3e-05  1.031873  0.0
H  H24  1  0.27027362  0.05370949  0.65601193  1  0.090039  0.132133  5.9e-05  1.016057  0.0
H  H25  1  0.67597340  0.34403007  0.05382342  1  0.090196  0.132122  5.9e-05  1.015473  0.0
H  H26  1  0.07385522  0.65595802  0.94621183  1  0.090053  0.131616  6e-05  1.015223  0.0
H  H27  1  0.97996029  0.94621648  0.34402402  1  0.090051  0.13217  5.9e-05  1.015843  0.0
H  H28  1  0.46175258  0.12758774  0.63229882  1  0.09008  0.131264  0.000113  1.029148  0.0
H  H29  1  0.41060335  0.36772759  0.12766529  1  0.090177  0.131369  0.000114  1.028956  0.0
H  H30  1  0.90611670  0.63228745  0.87228233  1  0.089906  0.130833  0.000114  1.029202  0.0
H  H31  1  0.22161526  0.87232396  0.36771382  1  0.090312  0.131714  0.000114  1.029006  0.0
Ru  Ru32  1  0.09264739  0.50001490  0.50003689  1  0.779713  0.823517  1.398879  3.997018  1.296
Ru  Ru33  1  0.40725239  0.50000088  0.50004498  1  0.780268  0.823474  1.399174  3.998284  1.297
C  C34  1  0.49984550  0.10275219  0.37067854  1  -0.013342  -0.069879  -0.001184  3.928642  0.0
C  C35  1  0.39745723  0.62930459  0.10276444  1  -0.013556  -0.069644  -0.001183  3.928703  0.0
C  C36  1  0.12945424  0.37066338  0.89725409  1  -0.013021  -0.068193  -0.001182  3.929185  0.0
C  C37  1  0.97323432  0.89728952  0.62927816  1  -0.013208  -0.07109  -0.001184  3.93037  0.0
C  C38  1  0.57005369  0.06891189  0.23524290  1  -0.092017  -0.115219  -0.00093  4.008097  -0.001
C  C39  1  0.36101052  0.76475825  0.06891274  1  -0.092445  -0.115722  -0.00093  4.0067  -0.001
C  C40  1  0.19460022  0.23521208  0.93112533  1  -0.092964  -0.117513  -0.000932  4.008487  -0.001
C  C41  1  0.87423126  0.93112545  0.76470127  1  -0.092269  -0.115011  -0.00093  4.007905  -0.001
C  C42  1  0.65601908  0.93517178  0.19568080  1  -0.100056  -0.104728  0.000171  4.050108  0.0
C  C43  1  0.40876385  0.80434680  0.93518896  1  -0.100938  -0.106064  0.000171  4.048631  0.0
C  C44  1  0.14827056  0.19566308  0.06484704  1  -0.100558  -0.105327  0.000171  4.051096  0.0
C  C45  1  0.78690747  0.06483812  0.80428143  1  -0.100933  -0.106755  0.000171  4.050133  0.0
C  C46  1  0.67386863  0.83518749  0.29211948  1  -0.091132  -0.070706  -0.000231  4.021327  0.0
C  C47  1  0.49098086  0.70793663  0.83520138  1  -0.091221  -0.070495  -0.000231  4.017973  0.0
C  C48  1  0.03405716  0.29211927  0.16480825  1  -0.090844  -0.069631  -0.000232  4.019487  0.0
C  C49  1  0.80118625  0.16483574  0.70781613  1  -0.091075  -0.069021  -0.00023  4.01936  0.0
C  C50  1  0.60687899  0.86898511  0.42674937  1  -0.093515  -0.144573  0.000634  3.956945  0.001
C  C51  1  0.52418459  0.57328911  0.86901119  1  -0.093113  -0.144777  0.000634  3.954328  0.001
C  C52  1  0.96644713  0.42676087  0.13097960  1  -0.093299  -0.144659  0.000634  3.954437  0.001
C  C53  1  0.90265318  0.13103510  0.57319150  1  -0.093665  -0.14588  0.000635  3.956959  0.001
C  C54  1  0.51624337  0.00245370  0.46906736  1  -0.003203  0.151191  -0.000962  3.930966  -0.001
C  C55  1  0.48134332  0.53093817  0.00247409  1  -0.002257  0.152567  -0.000963  3.931708  -0.001
C  C56  1  0.01472315  0.46906398  0.99751802  1  -0.002327  0.152235  -0.000964  3.931539  -0.001
C  C57  1  0.98776045  0.99758888  0.53086979  1  -0.002452  0.15341  -0.000963  3.930304  -0.001
C  C58  1  0.41254295  0.24659787  0.41079308  1  0.224746  0.50705  -0.00977  4.11174  -0.006
C  C59  1  0.34088391  0.58921435  0.24661041  1  0.224474  0.506358  -0.009776  4.111975  -0.006
C  C60  1  0.17657933  0.41077446  0.75343159  1  0.224151  0.505458  -0.009795  4.115298  -0.006
C  C61  1  0.06987237  0.75343723  0.58922371  1  0.224554  0.507306  -0.009778  4.111633  -0.006
C  C62  1  0.43624974  0.03649900  0.61516620  1  -0.245371  -0.425668  0.000191  3.949728  0.0
C  C63  1  0.52724222  0.38484358  0.03657508  1  -0.245643  -0.42575  0.000191  3.950228  0.0
C  C64  1  0.94869501  0.61515308  0.96339248  1  -0.245346  -0.424577  0.00019  3.948713  0.0
C  C65  1  0.08792270  0.96344253  0.38480050  1  -0.245956  -0.426772  0.000191  3.950054  0.0
N  N66  1  0.52747105  0.30852099  0.42941787  1  -0.563373  -0.64398  0.018772  3.466488  0.014
N  N67  1  0.16404636  0.57057714  0.30854623  1  -0.563479  -0.644654  0.018758  3.469362  0.014
N  N68  1  0.04300784  0.42942011  0.69151046  1  -0.562936  -0.643478  0.018803  3.468595  0.014
N  N69  1  0.26535303  0.69146411  0.57064220  1  -0.563704  -0.644985  0.018775  3.468032  0.014
Cl  Cl70  1  0.74998704  0.49998403  0.50001766  1  -0.251608  -0.428885  0.05495  1.403685  0.041
O  O71  1  0.21976827  0.30781622  0.42890474  1  -0.300353  -0.452041  0.028303  2.394579  0.031
O  O72  1  0.47237375  0.57119041  0.30786392  1  -0.30049  -0.451703  0.028316  2.392254  0.031
O  O73  1  0.35127524  0.42883852  0.69220158  1  -0.300262  -0.451112  0.028361  2.394671  0.031
O  O74  1  0.95638849  0.69221228  0.57120190  1  -0.300074  -0.451761  0.028281  2.391697  0.031
