# generated using pymatgen
data_CuSiH16C24Br4(N2F3)2
_symmetry_space_group_name_H-M   'P 1'
_cell_length_a   8.07855921
_cell_length_b   13.78651893
_cell_length_c   13.78666240
_cell_angle_alpha   89.79596663
_cell_angle_beta   85.88121900
_cell_angle_gamma   85.88153535
_symmetry_Int_Tables_number   1
_chemical_formula_structural   CuSiH16C24Br4(N2F3)2
_chemical_formula_sum   'Cu1 Si1 H16 C24 Br4 N4 F6'
_cell_volume   1527.56983911
_cell_formula_units_Z   1
loop_
 _symmetry_equiv_pos_site_id
 _symmetry_equiv_pos_as_xyz
  1  'x, y, z'
loop_
 _atom_site_type_symbol
 _atom_site_label
 _atom_site_symmetry_multiplicity
 _atom_site_fract_x
 _atom_site_fract_y
 _atom_site_fract_z
 _atom_site_occupancy
 _atom_site_pbe_bader_charge
 _atom_site_pbe_bader_spin_density
 _atom_site_pbe_cm5_charge
 _atom_site_pbe_ddec_charge
 _atom_site_pbe_ddec_spin_density
 _atom_site_pbe_ddec_sum_bond_order
 _atom_site_pbe_magmom
Cu  Cu0  1  0.49999320  0.49999741  0.49999782  1  1.059178  0.565943  0.786865  0.685614  0.729104  2.301908  0.564
Si  Si1  1  0.99999156  0.49999752  0.49999768  1  3.192264  -0.000183  0.244415  1.726332  -0.000325  3.953045  0.0
H  H2  1  0.26201099  0.50008123  0.34543797  1  0.186862  0.002103  0.121588  0.110813  0.000982  1.038808  0.002
H  H3  1  0.26616891  0.50002585  0.17124808  1  0.08638  0.000821  0.090304  0.104718  0.000422  1.096829  0.001
H  H4  1  0.80330073  0.49994171  0.16420769  1  0.115561  0.000913  0.094828  0.106431  0.000492  1.058433  0.001
H  H5  1  0.77711243  0.49987501  0.34042150  1  0.182366  0.0022  0.12299  0.113742  0.001041  1.029567  0.002
H  H6  1  0.19668216  0.50007202  0.83578802  1  0.115412  0.000913  0.094795  0.106427  0.000492  1.058433  0.001
H  H7  1  0.73382298  0.49996460  0.82874736  1  0.086534  0.000821  0.090279  0.104702  0.000422  1.096764  0.001
H  H8  1  0.73797727  0.49990850  0.65455762  1  0.186984  0.002103  0.121588  0.110838  0.000982  1.038842  0.002
H  H9  1  0.22287612  0.50013290  0.65957545  1  0.18251  0.0022  0.122977  0.113816  0.001041  1.029634  0.002
H  H10  1  0.26200636  0.34543823  0.50008479  1  0.186783  0.002103  0.121596  0.110767  0.000982  1.038789  0.002
H  H11  1  0.26616711  0.17124624  0.50002785  1  0.086337  0.000821  0.090296  0.104697  0.000422  1.096845  0.001
H  H12  1  0.80330235  0.16421178  0.49993822  1  0.115227  0.000913  0.094823  0.106444  0.000492  1.058461  0.001
H  H13  1  0.77710311  0.34042601  0.49987384  1  0.182367  0.0022  0.122989  0.113798  0.001041  1.02955  0.002
H  H14  1  0.19668410  0.83578232  0.50006612  1  0.115097  0.000913  0.094808  0.106463  0.000492  1.058415  0.001
H  H15  1  0.73382453  0.82874639  0.49996613  1  0.086696  0.000821  0.090278  0.104703  0.000422  1.096787  0.001
H  H16  1  0.73797533  0.65455441  0.49991250  1  0.186953  0.002103  0.121607  0.110845  0.000982  1.038796  0.002
H  H17  1  0.22287573  0.65956955  0.50012863  1  0.182344  0.0022  0.122953  0.113784  0.001041  1.029583  0.002
C  C18  1  0.38076851  0.50004848  0.30273913  1  0.490196  -0.001222  0.053872  0.104123  -0.001572  3.894038  -0.001
C  C19  1  0.38525604  0.50003743  0.20182858  1  0.003057  0.006463  -0.087395  -0.157884  0.00433  3.912439  0.005
C  C20  1  0.53709606  0.50002521  0.14405961  1  -0.072144  -0.003581  0.000764  0.108658  -0.003974  3.955668  -0.002
C  C21  1  0.67859886  0.49997115  0.19897695  1  0.025026  0.006461  -0.088978  -0.163424  0.004349  3.923759  0.005
C  C22  1  0.66602822  0.49993250  0.29993641  1  0.414998  -0.000722  0.053516  0.103458  -0.00111  3.890776  0.0
C  C23  1  0.55609605  0.49992781  0.03532369  1  -0.04071  -0.000805  -0.004993  0.009464  -0.00096  3.795413  0.0
C  C24  1  0.44389258  0.50006919  0.96467112  1  0.044073  -0.000795  -0.005087  0.009313  -0.00096  3.795522  0.0
C  C25  1  0.32138898  0.50003239  0.80101860  1  0.025118  0.006462  -0.08901  -0.163521  0.00435  3.923563  0.005
C  C26  1  0.46289470  0.49997470  0.85593584  1  -0.07179  -0.003581  0.000919  0.108893  -0.003974  3.955623  -0.002
C  C27  1  0.61473433  0.49995521  0.79817126  1  0.002732  0.006464  -0.087512  -0.157994  0.004331  3.912392  0.005
C  C28  1  0.61921771  0.49994779  0.69725797  1  0.489582  -0.00122  0.054037  0.104239  -0.001572  3.893869  -0.001
C  C29  1  0.33395493  0.50006886  0.70005571  1  0.414533  -0.000722  0.053383  0.103201  -0.00111  3.890857  0.0
C  C30  1  0.38076312  0.30273857  0.50004694  1  0.490364  -0.001223  0.053911  0.104257  -0.001572  3.893805  -0.001
C  C31  1  0.38525359  0.20182615  0.50003869  1  0.002995  0.006464  -0.087416  -0.157944  0.00433  3.912463  0.005
C  C32  1  0.53709646  0.14405978  0.50002385  1  -0.072044  -0.003581  0.000778  0.108729  -0.003974  3.955683  -0.002
C  C33  1  0.67859975  0.19897974  0.49996903  1  0.025416  0.006461  -0.089011  -0.16354  0.004349  3.923746  0.005
C  C34  1  0.66602477  0.29994056  0.49993083  1  0.414721  -0.000723  0.053456  0.103385  -0.001111  3.890798  0.0
C  C35  1  0.55609574  0.03532301  0.49992713  1  -0.040769  -0.000805  -0.004961  0.009481  -0.00096  3.795436  0.0
C  C36  1  0.44389597  0.96466890  0.50007049  1  0.044121  -0.000795  -0.005122  0.009287  -0.00096  3.795584  0.0
C  C37  1  0.32138664  0.80101508  0.50002951  1  0.025544  0.006461  -0.089104  -0.163697  0.00435  3.923634  0.005
C  C38  1  0.46289507  0.85593359  0.49997449  1  -0.071775  -0.003581  0.000999  0.10905  -0.003974  3.955559  -0.002
C  C39  1  0.61473530  0.79816867  0.49995612  1  0.002672  0.006464  -0.087504  -0.15802  0.00433  3.912355  0.005
C  C40  1  0.61922097  0.69725480  0.49994952  1  0.489544  -0.00122  0.053971  0.104191  -0.001572  3.893786  -0.001
C  C41  1  0.33395560  0.70005281  0.50006651  1  0.414307  -0.000722  0.053494  0.103371  -0.00111  3.890788  0.0
Br  Br42  1  0.78867050  0.49948816  0.99012599  1  -0.032379  0.000954  0.081237  -0.014355  0.000719  1.653146  0.001
Br  Br43  1  0.21132406  0.50051102  0.00987076  1  -0.033186  0.000954  0.081291  -0.014268  0.000719  1.653252  0.001
Br  Br44  1  0.78867265  0.99012632  0.49948719  1  -0.032387  0.000954  0.081239  -0.014353  0.000719  1.653107  0.001
Br  Br45  1  0.21132582  0.00987140  0.50050867  1  -0.033155  0.000954  0.081279  -0.0143  0.000719  1.653198  0.001
N  N46  1  0.51845960  0.49996901  0.35194723  1  -1.209671  0.095659  -0.334035  -0.209099  0.063845  3.582397  0.084
N  N47  1  0.48152893  0.50002872  0.64804831  1  -1.209012  0.095665  -0.333978  -0.208957  0.06385  3.58236  0.084
N  N48  1  0.51845341  0.35194861  0.49996949  1  -1.209531  0.095657  -0.333997  -0.209033  0.063843  3.582296  0.084
N  N49  1  0.48152934  0.64804549  0.50002920  1  -1.208753  0.095663  -0.333996  -0.208994  0.063849  3.582364  0.084
F  F50  1  0.21474900  0.50144166  0.50144538  1  -0.840679  -0.001706  -0.206427  -0.537966  -0.001838  1.326665  -0.001
F  F51  1  0.78523446  0.49855681  0.49855544  1  -0.840778  -0.001705  -0.206528  -0.538093  -0.001838  1.326743  -0.001
F  F52  1  0.99999152  0.58792399  0.41208155  1  -0.83502  0.000161  -0.258209  -0.55071  0.000158  1.054373  0.0
F  F53  1  0.99999086  0.41207687  0.58791962  1  -0.834994  0.000161  -0.258197  -0.550707  0.000158  1.054361  0.0
F  F54  1  0.02483330  0.41195127  0.41195080  1  -0.833062  0.00016  -0.258345  -0.550563  0.000158  1.053639  0.0
F  F55  1  0.97516153  0.58804573  0.58804594  1  -0.833014  0.00016  -0.258321  -0.550612  0.000158  1.053755  0.0
