# generated using pymatgen
data_CuH8C14NO5F4
_symmetry_space_group_name_H-M   'P 1'
_cell_length_a   7.48967256
_cell_length_b   8.52316111
_cell_length_c   11.76033827
_cell_angle_alpha   99.56128039
_cell_angle_beta   101.05756888
_cell_angle_gamma   106.39199975
_symmetry_Int_Tables_number   1
_chemical_formula_structural   CuH8C14NO5F4
_chemical_formula_sum   'Cu2 H16 C28 N2 O10 F8'
_cell_volume   687.23619288
_cell_formula_units_Z   2
loop_
 _symmetry_equiv_pos_site_id
 _symmetry_equiv_pos_as_xyz
  1  'x, y, z'
loop_
 _atom_site_type_symbol
 _atom_site_label
 _atom_site_symmetry_multiplicity
 _atom_site_fract_x
 _atom_site_fract_y
 _atom_site_fract_z
 _atom_site_occupancy
 _atom_site_hle17_ddec_charge
 _atom_site_hle17_ddec_spin_density
 _atom_site_hle17_ddec_sum_bond_order
 _atom_site_hle17_magmom
 _atom_site_hse06_10hf_ddec_charge
 _atom_site_hse06_10hf_ddec_spin_density
 _atom_site_hse06_10hf_ddec_sum_bond_order
 _atom_site_hse06_10hf_magmom
 _atom_site_hse06_ddec_charge
 _atom_site_hse06_ddec_spin_density
 _atom_site_hse06_ddec_sum_bond_order
 _atom_site_hse06_magmom
 _atom_site_pbe_cm5_charge
 _atom_site_pbe_ddec_charge
 _atom_site_pbe_ddec_spin_density
 _atom_site_pbe_ddec_sum_bond_order
 _atom_site_pbe_magmom
Cu  Cu0  1  0.67202605  0.64509247  0.95129396  1  0.961734  0.734989  1.66799  0.519  0.950105  0.815964  2.056437  0.636  1.039348  0.889703  1.988984  0.72  0.724453  0.889178  0.75947  2.110102  0.579
Cu  Cu1  1  0.32797366  0.35490661  0.04870702  1  0.961785  -0.734987  1.667944  -0.519  0.950068  -0.815958  2.056421  -0.636  1.044428  -0.889709  1.979868  -0.72  0.724483  0.889133  -0.759457  2.110138  -0.579
H  H2  1  0.82856659  0.98861923  0.91378116  1  0.098329  0.001281  0.947309  0.003  0.10546  0.000857  1.010943  0.002  0.108445  0.000579  1.006757  0.001  0.118688  0.103321  0.001086  1.013529  0.002
H  H3  1  0.17143549  0.01138235  0.08621701  1  0.098349  -0.001281  0.947237  -0.003  0.105473  -0.000857  1.010887  -0.002  0.10845  -0.000579  1.006749  -0.001  0.118674  0.103331  -0.001086  1.013474  -0.002
H  H4  1  0.44746220  0.53274780  0.70402922  1  0.095058  0.001181  0.929175  0.002  0.105977  0.000863  0.984906  0.002  0.107904  0.00063  0.982879  0.001  0.118966  0.104324  0.001033  0.986602  0.002
H  H5  1  0.55254085  0.46725627  0.29596767  1  0.094995  -0.001178  0.929248  -0.002  0.106  -0.000863  0.984904  -0.002  0.107896  -0.00063  0.982961  -0.001  0.118978  0.104344  -0.001033  0.986599  -0.002
H  H6  1  0.80999039  0.12531267  0.74357516  1  0.124867  0.00054  0.952885  0.001  0.132822  0.000512  1.013082  0.001  0.136246  0.000368  1.011943  0.0  0.107458  0.130167  0.000622  1.01443  0.001
H  H7  1  0.19001127  0.87469142  0.25642325  1  0.124806  -0.000536  0.952911  -0.001  0.132792  -0.000512  1.013077  -0.001  0.136216  -0.000368  1.011933  0.0  0.10745  0.130139  -0.000622  1.014422  -0.001
H  H8  1  0.40952853  0.65163617  0.52469200  1  0.110961  0.000646  0.96383  0.001  0.116073  0.000544  1.031498  0.001  0.11972  0.000385  1.029875  0.0  0.100264  0.113346  0.000665  1.032997  0.001
H  H9  1  0.59047496  0.34836917  0.47530680  1  0.110941  -0.000642  0.963785  -0.001  0.116037  -0.000544  1.031473  -0.001  0.119685  -0.000386  1.029842  0.0  0.100231  0.113307  -0.000665  1.032974  -0.001
H  H10  1  0.58912891  0.88504453  0.43175715  1  0.101867  -0.00019  0.924885  0.0  0.117437  -6.2e-05  0.983318  0.0  0.119877  -6.2e-05  0.981433  0.0  0.096858  0.115569  -5.9e-05  0.984855  0.0
H  H11  1  0.41087091  0.11495831  0.56824172  1  0.101842  0.000186  0.924935  0.0  0.117433  6.2e-05  0.983329  0.0  0.119868  6.2e-05  0.981445  0.0  0.096855  0.115564  5.9e-05  0.984874  0.0
H  H12  1  0.71833072  0.08617429  0.52612151  1  0.085719  -8.7e-05  0.941804  0.0  0.097924  -1.1e-05  1.008103  0.0  0.099502  -1.4e-05  1.007329  0.0  0.090162  0.096709  -7e-06  1.008756  0.0
H  H13  1  0.28166868  0.91382727  0.47387377  1  0.085727  8.8e-05  0.941831  0.0  0.097952  1.1e-05  1.008104  0.0  0.099527  1.4e-05  1.007326  0.0  0.090185  0.096739  7e-06  1.008757  0.0
H  H14  1  0.55975546  0.34101620  0.82673032  1  0.431993  -7.2e-05  0.871912  -0.001  0.402343  0.000402  0.93424  0.0  0.415437  0.000234  0.915556  0.0  0.289458  0.393108  0.000514  0.947362  0.0
H  H15  1  0.44024154  0.65898289  0.17327031  1  0.431983  7.3e-05  0.87193  0.001  0.40233  -0.000401  0.934257  0.0  0.415394  -0.000235  0.91563  0.0  0.289452  0.393095  -0.000514  0.94738  0.0
H  H16  1  0.79308946  0.41438608  0.85881417  1  0.417303  0.000117  0.892949  -0.001  0.38962  0.000662  0.953102  0.001  0.402043  0.000475  0.935475  0.0  0.28524  0.380765  0.000783  0.965608  0.001
H  H17  1  0.20690755  0.58560921  0.14118262  1  0.417305  -0.000117  0.89294  0.001  0.389614  -0.000662  0.953108  -0.001  0.401989  -0.000475  0.935586  0.0  0.285226  0.380759  -0.000783  0.965614  -0.001
C  C18  1  0.85984532  0.52333652  0.12271155  1  0.706027  -0.004212  3.846666  -0.007  0.659485  -0.000591  4.149639  -0.003  0.699373  -0.000915  4.137158  -0.002  0.219947  0.632477  -0.000242  4.156381  -0.003
C  C19  1  0.14015393  0.47665751  0.87728539  1  0.706082  0.004209  3.846636  0.007  0.659431  0.000589  4.14977  0.003  0.699208  0.000912  4.137815  0.002  0.219948  0.632427  0.000242  4.156508  0.003
C  C20  1  0.88313231  0.39724718  0.19549470  1  -0.259851  0.005323  3.750268  0.005  -0.268348  0.003528  4.025411  0.004  -0.279393  0.00217  4.040294  0.002  -0.035514  -0.260904  0.00466  4.014548  0.005
C  C21  1  0.11686874  0.60275191  0.80450731  1  -0.259913  -0.005327  3.750301  -0.005  -0.268358  -0.003527  4.025473  -0.004  -0.279372  -0.00217  4.040272  -0.002  -0.035494  -0.260917  -0.00466  4.014616  -0.005
C  C22  1  0.00692637  0.44692048  0.30957910  1  0.245101  0.003945  3.787294  0.004  0.208089  0.002364  4.089909  0.002  0.220991  0.001635  4.097464  0.002  0.100768  0.199228  0.003222  4.085181  0.003
C  C23  1  0.99307655  0.55307984  0.69042160  1  0.24522  -0.00396  3.78732  -0.004  0.208189  -0.002365  4.089921  -0.002  0.221096  -0.001635  4.097473  -0.002  0.100817  0.199338  -0.003222  4.085192  -0.003
C  C24  1  0.03200791  0.33085583  0.37636630  1  0.076888  -0.00069  3.812241  -0.001  0.039869  -1.6e-05  4.126746  0.0  0.044157  -0.000318  4.134662  0.0  0.0752  0.036525  0.000284  4.12192  0.0
C  C25  1  0.96799682  0.66914575  0.62363562  1  0.076814  0.00071  3.812308  0.001  0.039793  1.6e-05  4.126813  0.0  0.044081  0.000316  4.134736  0.0  0.075161  0.03644  -0.000284  4.121997  0.0
C  C26  1  0.93266695  0.16040399  0.32804585  1  0.236162  0.003927  3.807696  0.004  0.202876  0.002571  4.107964  0.002  0.215234  0.001784  4.11745  0.002  0.104128  0.194439  0.003446  4.101825  0.003
C  C27  1  0.06733497  0.83959384  0.67195698  1  0.236134  -0.003939  3.807808  -0.004  0.202861  -0.002573  4.108055  -0.002  0.215219  -0.001783  4.117538  -0.002  0.104093  0.194427  -0.003446  4.101927  -0.003
C  C28  1  0.81247600  0.10249973  0.21300881  1  -0.242393  0.008954  3.739273  0.01  -0.251768  0.005249  4.011217  0.006  -0.260947  0.003295  4.024905  0.004  -0.02965  -0.245288  0.006932  4.00085  0.007
C  C29  1  0.18751957  0.89749939  0.78699504  1  -0.242502  -0.00895  3.739293  -0.01  -0.251881  -0.005247  4.011287  -0.006  -0.261059  -0.003299  4.024946  -0.004  -0.02961  -0.245407  -0.006932  4.000933  -0.007
C  C30  1  0.79087151  0.22416641  0.15018741  1  0.331884  0.002943  3.726256  0.002  0.290921  0.001897  4.026502  0.002  0.308353  0.001382  4.032224  0.001  0.111857  0.280698  0.002448  4.021515  0.002
C  C31  1  0.20912448  0.77583018  0.84981620  1  0.331933  -0.002934  3.726247  -0.002  0.290925  -0.001899  4.026512  -0.002  0.308392  -0.001379  4.03213  -0.001  0.111777  0.280707  -0.002448  4.021524  -0.002
C  C32  1  0.71319983  0.91577925  0.15970944  1  0.71116  -0.003124  3.863549  -0.006  0.66346  0.000692  4.172425  -0.001  0.703681  0.000248  4.158576  -0.001  0.221844  0.636294  0.001041  4.179851  -0.002
C  C33  1  0.28679439  0.08421987  0.84029424  1  0.711414  0.003128  3.863281  0.006  0.663667  -0.000693  4.172256  0.001  0.703821  -0.000248  4.158753  0.001  0.221977  0.6365  -0.001041  4.179691  0.002
C  C34  1  0.73761296  0.91870178  0.82598776  1  0.134129  -0.007164  3.681926  -0.007  0.105044  -0.000368  3.940466  -0.001  0.115825  -0.001637  3.957729  -0.002  0.043207  0.098488  0.00066  3.928147  0.0
C  C35  1  0.26238724  0.08129856  0.17401258  1  0.134107  0.007172  3.681967  0.007  0.104961  0.000367  3.940566  0.001  0.115628  0.001635  3.958309  0.002  0.043193  0.09841  -0.00066  3.928242  0.0
C  C36  1  0.52305831  0.66386032  0.70869005  1  0.117413  -0.006927  3.726809  -0.007  0.089623  -0.000106  3.987376  -0.001  0.098475  -0.001287  4.008694  -0.002  0.03418  0.084048  0.000796  3.973008  0.0
C  C37  1  0.47694287  0.33614252  0.29130901  1  0.117553  0.006921  3.726833  0.007  0.089655  0.000106  3.987383  0.001  0.098393  0.001284  4.00919  0.002  0.034178  0.084097  -0.000796  3.972974  0.0
C  C38  1  0.72509199  0.99375701  0.72986266  1  -0.154397  0.012626  3.666329  0.013  -0.173737  0.004487  3.912749  0.005  -0.182456  0.00393  3.932238  0.005  -0.083315  -0.168376  0.004839  3.900227  0.006
C  C39  1  0.27490967  0.00624708  0.27013575  1  -0.154285  -0.012634  3.666468  -0.013  -0.173658  -0.004487  3.912922  -0.005  -0.182378  -0.003929  3.932405  -0.005  -0.083271  -0.168295  -0.004839  3.900398  -0.006
C  C40  1  0.50402668  0.73123498  0.60926019  1  -0.181666  0.011659  3.715853  0.012  -0.20211  0.004101  3.969149  0.005  -0.212022  0.003676  3.991617  0.004  -0.09151  -0.195821  0.004344  3.954382  0.005
C  C41  1  0.49597364  0.26876911  0.39073720  1  -0.181714  -0.011667  3.715834  -0.012  -0.202146  -0.004102  3.969176  -0.005  -0.212058  -0.003674  3.991619  -0.004  -0.091492  -0.195855  -0.004344  3.954406  -0.005
C  C42  1  0.60820019  0.89943752  0.61795573  1  0.172351  -0.009797  3.704818  -0.01  0.186439  -0.002753  3.942985  -0.003  0.193696  -0.00296  3.963161  -0.003  0.018141  0.181558  -0.002533  3.929476  -0.003
C  C43  1  0.39180143  0.10056279  0.38204139  1  0.172395  0.009795  3.704782  0.01  0.186476  0.002753  3.942963  0.003  0.193728  0.00296  3.963104  0.003  0.018085  0.181586  0.002533  3.929468  0.003
C  C44  1  0.59196491  0.97470914  0.51151581  1  -0.157824  0.001389  3.66941  0.002  -0.199853  0.000327  3.920284  0.0  -0.202087  0.00026  3.930985  0.0  -0.156992  -0.198011  0.000401  3.912689  0.001
C  C45  1  0.40803540  0.02529495  0.48848157  1  -0.15787  -0.001383  3.669447  -0.002  -0.199888  -0.000327  3.920263  0.0  -0.202106  -0.000261  3.930961  0.0  -0.157009  -0.198048  -0.000401  3.91268  -0.001
N  N46  1  0.63883642  0.75606386  0.81572648  1  -0.328013  0.089259  3.351472  0.109  -0.284267  0.058549  3.656409  0.077  -0.317414  0.049222  3.679054  0.068  -0.356664  -0.263142  0.062834  3.641746  0.079
N  N47  1  0.36116470  0.24393520  0.18427214  1  -0.328132  -0.089265  3.351437  -0.109  -0.284256  -0.058553  3.656309  -0.077  -0.318282  -0.049226  3.679119  -0.068  -0.356646  -0.263133  -0.062843  3.641657  -0.079
O  O48  1  0.68612475  0.51454873  0.07655299  1  -0.61968  0.080843  2.103193  0.104  -0.603421  0.05193  2.411328  0.073  -0.646105  0.040457  2.396452  0.059  -0.318868  -0.572968  0.059217  2.420096  0.08
O  O49  1  0.31387503  0.48545033  0.92344460  1  -0.619723  -0.080834  2.103239  -0.104  -0.603404  -0.051927  2.411385  -0.073  -0.646281  -0.04045  2.396312  -0.059  -0.318869  -0.572948  -0.059217  2.420154  -0.08
O  O50  1  0.00660196  0.62621159  0.10899673  1  -0.588208  -0.002058  1.972088  -0.002  -0.548083  -0.001116  2.198301  -0.001  -0.572804  -0.001287  2.18549  -0.001  -0.296932  -0.530329  -0.001061  2.206239  -0.001
O  O51  1  0.99339685  0.37378116  0.89099831  1  -0.588215  0.00206  1.972073  0.002  -0.548068  0.001117  2.198347  0.001  -0.573053  0.00129  2.185808  0.001  -0.29695  -0.530318  0.00106  2.206288  0.001
O  O52  1  0.75310634  0.86513813  0.06189292  1  -0.607563  0.088075  2.117585  0.115  -0.594865  0.055017  2.426814  0.079  -0.636806  0.041815  2.41212  0.064  -0.31843  -0.564838  0.063731  2.435061  0.088
O  O53  1  0.24688556  0.13485848  0.93811101  1  -0.607619  -0.08808  2.117476  -0.115  -0.594874  -0.055019  2.426714  -0.079  -0.637758  -0.041811  2.411521  -0.064  -0.318402  -0.56484  -0.063735  2.434968  -0.088
O  O54  1  0.60808014  0.83413714  0.21472864  1  -0.573907  -0.001668  1.96954  -0.001  -0.532119  -0.000764  2.187538  0.0  -0.556969  -0.001099  2.176231  -0.001  -0.293838  -0.514623  -0.000453  2.194408  0.0
O  O55  1  0.39191045  0.16586325  0.78527556  1  -0.574019  0.001666  1.969515  0.001  -0.532228  0.000765  2.187568  0.0  -0.55711  0.001097  2.176355  0.001  -0.293965  -0.514724  0.000453  2.19443  0.0
O  O56  1  0.67263580  0.44516829  0.83582433  1  -0.826192  0.070063  1.973824  0.089  -0.796588  0.050047  2.197188  0.069  -0.830584  0.040064  2.160411  0.059  -0.588176  -0.772819  0.055848  2.223114  0.074
O  O57  1  0.32736347  0.55482952  0.16417475  1  -0.826157  -0.070062  1.973759  -0.089  -0.796562  -0.050045  2.197167  -0.069  -0.83138  -0.040058  2.159756  -0.059  -0.588168  -0.772792  -0.055848  2.223109  -0.074
F  F58  1  0.10415454  0.61158242  0.35944066  1  -0.16395  0.00025  1.252756  0.0  -0.105509  0.000196  1.413592  0.0  -0.113803  9.9e-05  1.402615  0.0  -0.072678  -0.099441  0.000337  1.421137  0.001
F  F59  1  0.89585201  0.38841663  0.64055866  1  -0.164002  -0.000249  1.252789  0.0  -0.105546  -0.000197  1.413619  0.0  -0.11384  -9.8e-05  1.402642  0.0  -0.07269  -0.099473  -0.000337  1.421159  -0.001
F  F60  1  0.15245395  0.38269019  0.48681871  1  -0.14045  0.00013  1.260719  0.0  -0.097132  0.000137  1.435008  0.0  -0.105047  4.8e-05  1.426123  0.0  -0.078741  -0.091326  0.000238  1.441213  0.0
F  F61  1  0.84755811  0.61731262  0.51318091  1  -0.140403  -0.000132  1.260704  0.0  -0.097082  -0.000137  1.434989  0.0  -0.104998  -4.8e-05  1.426105  0.0  -0.078705  -0.091274  -0.000238  1.441197  0.0
F  F62  1  0.96020405  0.05098700  0.39470505  1  -0.141654  0.000389  1.261369  0.001  -0.097321  0.000419  1.436426  0.001  -0.106143  0.000252  1.427072  0.0  -0.066961  -0.090909  0.000615  1.4428  0.001
F  F63  1  0.03980385  0.94901584  0.60529829  1  -0.141651  -0.00039  1.261357  -0.001  -0.097321  -0.000419  1.43641  -0.001  -0.106142  -0.000252  1.427056  0.0  -0.066975  -0.090907  -0.000615  1.442786  -0.001
F  F64  1  0.67463380  0.17161362  0.03837491  1  -0.173171  0.00036  1.256961  0.0  -0.10843  0.000358  1.418237  0.0  -0.126492  0.000253  1.417468  0.0  -0.072543  -0.101446  0.000472  1.424408  0.001
F  F65  1  0.32536129  0.82838425  0.96162959  1  -0.173203  -0.000361  1.256972  0.0  -0.108398  -0.000358  1.418206  0.0  -0.126435  -0.000252  1.417314  0.0  -0.072518  -0.101414  -0.000471  1.424375  -0.001
