# generated using pymatgen
data_Ca2P3H21C24O23
_symmetry_space_group_name_H-M   'P 1'
_cell_length_a   6.96335811
_cell_length_b   22.04001924
_cell_length_c   22.96764240
_cell_angle_alpha   89.99984649
_cell_angle_beta   89.99953572
_cell_angle_gamma   90.00013332
_symmetry_Int_Tables_number   1
_chemical_formula_structural   Ca2P3H21C24O23
_chemical_formula_sum   'Ca8 P12 H84 C96 O92'
_cell_volume   3524.90257131
_cell_formula_units_Z   4
loop_
 _symmetry_equiv_pos_site_id
 _symmetry_equiv_pos_as_xyz
  1  'x, y, z'
loop_
 _atom_site_type_symbol
 _atom_site_label
 _atom_site_symmetry_multiplicity
 _atom_site_fract_x
 _atom_site_fract_y
 _atom_site_fract_z
 _atom_site_occupancy
 _atom_site_pbe_bader_charge
 _atom_site_pbe_bader_spin_density
 _atom_site_pbe_cm5_charge
 _atom_site_pbe_ddec_charge
 _atom_site_pbe_ddec_spin_density
 _atom_site_pbe_ddec_sum_bond_order
 _atom_site_pbe_magmom
Ca  Ca0  1  0.94325600  0.50690396  0.47196696  1  1.644083  0  0.95173  1.455293  0  1.476747  0
Ca  Ca1  1  0.05675582  0.00690445  0.52803279  1  1.644136  0  0.951743  1.455274  0  1.47677  0
Ca  Ca2  1  0.05675751  0.50690658  0.97196669  1  1.644118  0  0.951734  1.455273  0  1.476761  0
Ca  Ca3  1  0.94324570  0.00690592  0.02803392  1  1.644107  0  0.951717  1.455266  0  1.476787  0
Ca  Ca4  1  0.55472420  0.98752502  0.45572658  1  1.643202  0  0.944639  1.446712  0  1.487053  0
Ca  Ca5  1  0.44527684  0.48752439  0.54427236  1  1.643229  0  0.944618  1.446707  0  1.486973  0
Ca  Ca6  1  0.44527321  0.98752610  0.95572753  1  1.643169  0  0.944641  1.44668  0  1.48709  0
Ca  Ca7  1  0.55472639  0.48752467  0.04427097  1  1.64318  0  0.944626  1.446722  0  1.487052  0
P  P8  1  0.44167124  0.53250774  0.41722096  1  3.400621  0  0.372594  1.296075  0  5.383436  0
P  P9  1  0.55833646  0.03250799  0.58277741  1  3.400259  0  0.372548  1.295961  0  5.383557  0
P  P10  1  0.55834535  0.53250890  0.91722120  1  3.40032  0  0.372595  1.296133  0  5.38349  0
P  P11  1  0.44166379  0.03251136  0.08277674  1  3.400753  0  0.372561  1.295872  0  5.383616  0
P  P12  1  0.92138095  0.34010193  0.46612463  1  3.355562  0  0.394254  1.271703  0  5.3043  0
P  P13  1  0.07862617  0.84010155  0.53387599  1  3.355755  0  0.394237  1.271674  0  5.304431  0
P  P14  1  0.07862285  0.34010365  0.96612779  1  3.35576  0  0.394249  1.271797  0  5.304294  0
P  P15  1  0.92137134  0.84010210  0.03387544  1  3.355779  0  0.394245  1.271711  0  5.304436  0
P  P16  1  0.05695201  0.95688383  0.40398574  1  3.414567  0  0.357299  1.299841  0  5.384586  0
P  P17  1  0.94305023  0.45688251  0.59601458  1  3.414683  0  0.357275  1.299804  0  5.384621  0
P  P18  1  0.94304798  0.95688482  0.90398590  1  3.414684  0  0.357311  1.299791  0  5.384643  0
P  P19  1  0.05695283  0.45688470  0.09601398  1  3.414572  0  0.357355  1.2999  0  5.384519  0
H  H20  1  0.30637382  0.61297500  0.37980055  1  0.646953  0  0.357814  0.41465  0  0.8419  0
H  H21  1  0.69362874  0.11297615  0.62020023  1  0.646917  0  0.357784  0.414563  0  0.842027  0
H  H22  1  0.69366160  0.61297082  0.87979871  1  0.646849  0  0.35775  0.414534  0  0.842104  0
H  H23  1  0.30636968  0.11297580  0.12019945  1  0.646963  0  0.357819  0.414624  0  0.841935  0
H  H24  1  0.26166312  0.25495174  0.35072755  1  0.662501  0  0.304485  0.356276  0  0.977187  0
H  H25  1  0.73832757  0.75495334  0.64927329  1  0.662543  0  0.30446  0.35626  0  0.977205  0
H  H26  1  0.73832589  0.25495032  0.85072561  1  0.662509  0  0.304441  0.356203  0  0.977228  0
H  H27  1  0.26166480  0.75495159  0.14927175  1  0.662527  0  0.304442  0.356229  0  0.977178  0
H  H28  1  0.01931351  0.62946650  0.53187961  1  0.599186  0  0.320717  0.395336  0  0.905182  0
H  H29  1  0.98068773  0.12946874  0.46812068  1  0.599142  0  0.320696  0.395319  0  0.905204  0
H  H30  1  0.98068536  0.62946664  0.03187935  1  0.599178  0  0.320703  0.395326  0  0.905202  0
H  H31  1  0.01931158  0.12946860  0.96812007  1  0.599137  0  0.320696  0.395312  0  0.905213  0
H  H32  1  0.79936842  0.62620184  0.51316973  1  0.674279  0  0.296073  0.396592  0  0.943323  0
H  H33  1  0.20062993  0.12620346  0.48682971  1  0.674256  0  0.296073  0.396578  0  0.943353  0
H  H34  1  0.20063524  0.62620277  0.01317052  1  0.674245  0  0.296064  0.396593  0  0.943324  0
H  H35  1  0.79936168  0.12620298  0.98683109  1  0.674207  0  0.296035  0.396542  0  0.943374  0
H  H36  1  0.41966495  0.86392250  0.48489620  1  0.657169  0  0.301284  0.397886  0  0.934242  0
H  H37  1  0.58033517  0.36392205  0.51510044  1  0.657173  0  0.301297  0.397888  0  0.934248  0
H  H38  1  0.58033363  0.86392232  0.98489943  1  0.657179  0  0.301291  0.397904  0  0.934218  0
H  H39  1  0.41966936  0.36392132  0.01510418  1  0.657491  0  0.301308  0.397916  0  0.934203  0
H  H40  1  0.64502295  0.86057048  0.50028061  1  0.642092  0  0.306499  0.400771  0  0.921186  0
H  H41  1  0.35497714  0.36056854  0.49971865  1  0.642045  0  0.306474  0.400736  0  0.921239  0
H  H42  1  0.35497704  0.86056925  0.00028276  1  0.642047  0  0.306459  0.400689  0  0.921303  0
H  H43  1  0.64502736  0.36056886  0.99971998  1  0.642099  0  0.30644  0.400681  0  0.921316  0
H  H44  1  0.58525804  0.57379352  0.14593907  1  0.657005  0  0.306137  0.353708  0  0.993688  0
H  H45  1  0.41474566  0.07379518  0.85406267  1  0.656981  0  0.306188  0.353768  0  0.993573  0
H  H46  1  0.41476035  0.57379276  0.64593880  1  0.657002  0  0.306123  0.353668  0  0.993624  0
H  H47  1  0.58525197  0.07379548  0.35406208  1  0.656957  0  0.306083  0.353658  0  0.993718  0
H  H48  1  0.15355836  0.27476593  0.48765073  1  0.623143  0  0.356719  0.417842  0  0.836092  0
H  H49  1  0.84644110  0.77476661  0.51234963  1  0.623162  0  0.356723  0.417871  0  0.836079  0
H  H50  1  0.84643721  0.27476775  0.98765113  1  0.623502  0  0.356668  0.417824  0  0.836111  0
H  H51  1  0.15355076  0.77476751  0.01234966  1  0.623182  0  0.356741  0.417894  0  0.836075  0
H  H52  1  0.86682455  0.29984824  0.19367363  1  0.638312  0  0.349257  0.393238  0  0.840515  0
H  H53  1  0.13316791  0.79983761  0.80632667  1  0.638531  0  0.349234  0.393252  0  0.840551  0
H  H54  1  0.13316755  0.29984093  0.69367535  1  0.638577  0  0.349268  0.393309  0  0.840449  0
H  H55  1  0.86681198  0.79984175  0.30632581  1  0.638569  0  0.349249  0.393336  0  0.840427  0
H  H56  1  0.11342568  0.86262620  0.41708857  1  0.667  0  0.314066  0.404067  0  0.926036  0
H  H57  1  0.88657587  0.36262442  0.58291156  1  0.666991  0  0.314073  0.404053  0  0.926069  0
H  H58  1  0.88657040  0.86262624  0.91708801  1  0.667039  0  0.314106  0.404135  0  0.925961  0
H  H59  1  0.11341679  0.36262620  0.08291387  1  0.667024  0  0.314111  0.404108  0  0.925968  0
H  H60  1  0.26194726  0.23193965  0.25261172  1  0.672595  0  0.30474  0.362978  0  0.980879  0
H  H61  1  0.73804183  0.73194051  0.74738787  1  0.672478  0  0.304745  0.36295  0  0.980907  0
H  H62  1  0.73804851  0.23194004  0.75261239  1  0.672555  0  0.304704  0.362905  0  0.980935  0
H  H63  1  0.26195062  0.73194149  0.24738329  1  0.672467  0  0.304763  0.362929  0  0.980978  0
H  H64  1  0.92048575  0.91883284  0.12805741  1  0.666832  0  0.314308  0.370695  0  0.96382  0
H  H65  1  0.07951047  0.41883466  0.87194301  1  0.666843  0  0.314284  0.370662  0  0.963833  0
H  H66  1  0.07951127  0.91883139  0.62805795  1  0.666841  0  0.314286  0.370657  0  0.96387  0
H  H67  1  0.92049069  0.41883384  0.37194116  1  0.666859  0  0.314262  0.370642  0  0.963925  0
H  H68  1  0.35651098  0.40363035  0.39681513  1  0.119209  0  0.121081  0.119004  0  1.011895  0
H  H69  1  0.64349805  0.90362883  0.60318882  1  0.119406  0  0.121071  0.118971  0  1.011867  0
H  H70  1  0.64349515  0.40362885  0.89681211  1  0.119379  0  0.121056  0.118978  0  1.011867  0
H  H71  1  0.35651244  0.90363078  0.10318487  1  0.119151  0  0.121078  0.118985  0  1.011944  0
H  H72  1  0.45580167  0.38641786  0.21235900  1  0.18508  0  0.120242  0.127953  0  0.993896  0
H  H73  1  0.54419143  0.88642120  0.78764368  1  0.185002  0  0.120214  0.127924  0  0.9939  0
H  H74  1  0.54419345  0.38642083  0.71235797  1  0.185029  0  0.120238  0.127985  0  0.993881  0
H  H75  1  0.45581545  0.88642186  0.28763992  1  0.185111  0  0.120271  0.12797  0  0.993867  0
H  H76  1  0.53430930  0.55933051  0.29581697  1  0.140575  0  0.117187  0.124454  0  0.993425  0
H  H77  1  0.46569429  0.05933262  0.70418003  1  0.140486  0  0.117153  0.1244  0  0.993434  0
H  H78  1  0.46570211  0.55933342  0.79581874  1  0.140494  0  0.117141  0.124414  0  0.993473  0
H  H79  1  0.53430723  0.05933334  0.20417782  1  0.140416  0  0.117149  0.124408  0  0.993519  0
H  H80  1  0.68156928  0.23713775  0.48644713  1  0.125874  0  0.112431  0.117579  0  1.000738  0
H  H81  1  0.31842846  0.73713533  0.51355158  1  0.125823  0  0.112441  0.117558  0  1.000748  0
H  H82  1  0.31841886  0.23713239  0.98645275  1  0.125697  0  0.112472  0.117612  0  1.000771  0
H  H83  1  0.68157027  0.73713389  0.01355162  1  0.12583  0  0.112472  0.117628  0  1.000722  0
H  H84  1  0.60694638  0.16201416  0.31432517  1  0.144897  0  0.111782  0.119525  0  1.030735  0
H  H85  1  0.39304936  0.66200678  0.68566982  1  0.14389  0  0.111814  0.119561  0  1.030654  0
H  H86  1  0.39304579  0.16200840  0.81433365  1  0.143977  0  0.111799  0.119515  0  1.030754  0
H  H87  1  0.60693560  0.66200801  0.18567135  1  0.143858  0  0.111788  0.11943  0  1.030786  0
H  H88  1  0.91488578  0.32834713  0.33576953  1  0.109741  0  0.110919  0.114101  0  1.0384  0
H  H89  1  0.08512125  0.82834457  0.66423113  1  0.109975  0  0.110937  0.114118  0  1.038455  0
H  H90  1  0.08512716  0.32834795  0.83577267  1  0.109849  0  0.110904  0.114085  0  1.038341  0
H  H91  1  0.91486264  0.82834693  0.16423408  1  0.109947  0  0.110939  0.114078  0  1.038486  0
H  H92  1  0.14820672  0.08047404  0.38351753  1  0.14523  0  0.119293  0.104698  0  1.038003  0
H  H93  1  0.85179272  0.58047535  0.61648333  1  0.145257  0  0.119288  0.104723  0  1.037935  0
H  H94  1  0.85179592  0.08047451  0.88351748  1  0.145251  0  0.119278  0.104694  0  1.037982  0
H  H95  1  0.14820783  0.58047488  0.11648207  1  0.145223  0  0.119269  0.104696  0  1.037968  0
H  H96  1  0.03995257  0.10377006  0.20048709  1  0.140816  0  0.117608  0.120835  0  1.002409  0
H  H97  1  0.96003986  0.60376913  0.79951458  1  0.140785  0  0.117563  0.120777  0  1.002392  0
H  H98  1  0.96004220  0.10376880  0.70048591  1  0.140816  0  0.117603  0.120821  0  1.002386  0
H  H99  1  0.03996604  0.60377357  0.29951272  1  0.140622  0  0.117553  0.120784  0  1.002334  0
H  H100  1  0.97075693  0.92768427  0.27887865  1  0.114887  0  0.115954  0.124835  0  0.993575  0
H  H101  1  0.02924079  0.42768421  0.72112001  1  0.114914  0  0.115955  0.124802  0  0.993621  0
H  H102  1  0.02924619  0.92768460  0.77887975  1  0.114896  0  0.115926  0.124807  0  0.993683  0
H  H103  1  0.97076589  0.42768661  0.22112282  1  0.114841  0  0.115912  0.124711  0  0.993775  0
C  C104  1  0.44634497  0.48571522  0.35234104  1  -0.55303  0  -0.017037  -0.212785  0  3.996743  0
C  C105  1  0.55366180  0.98571623  0.64765790  1  -0.553157  0  -0.016988  -0.212716  0  3.996602  0
C  C106  1  0.55367157  0.48571593  0.85234085  1  -0.553074  0  -0.016943  -0.212613  0  3.99648  0
C  C107  1  0.44634238  0.98571870  0.14765678  1  -0.553254  0  -0.016875  -0.212444  0  3.996526  0
C  C108  1  0.39909020  0.42386226  0.35548255  1  0.020651  0  -0.048931  -0.034606  0  3.873054  0
C  C109  1  0.60090893  0.92386149  0.64452047  1  0.020649  0  -0.048959  -0.034559  0  3.872993  0
C  C110  1  0.60091144  0.42385982  0.85548008  1  0.020605  0  -0.048972  -0.034694  0  3.873056  0
C  C111  1  0.39909774  0.92386257  0.14451728  1  0.020755  0  -0.048991  -0.034745  0  3.873166  0
C  C112  1  0.40326688  0.38819085  0.30491928  1  -0.005722  0  -0.014383  -0.052032  0  3.974946  0
C  C113  1  0.59673341  0.88818904  0.69508426  1  -0.005908  0  -0.014318  -0.051981  0  3.975002  0
C  C114  1  0.59673727  0.38818842  0.80491682  1  -0.005877  0  -0.014295  -0.051886  0  3.975026  0
C  C115  1  0.40327021  0.88819148  0.19508063  1  -0.005679  0  -0.014367  -0.052013  0  3.974937  0
C  C116  1  0.34599543  0.32332701  0.30428681  1  1.544345  0  0.241626  0.582458  0  4.107346  0
C  C117  1  0.65399289  0.82332705  0.69571473  1  1.544327  0  0.241728  0.582756  0  4.107023  0
C  C118  1  0.65399820  0.32332733  0.80428594  1  1.544324  0  0.241698  0.582665  0  4.107407  0
C  C119  1  0.34600592  0.82332944  0.19571168  1  1.544031  0  0.241732  0.582708  0  4.106976  0
C  C120  1  0.45596066  0.41387423  0.25173001  1  -0.090455  0  -0.054923  -0.065508  0  3.8899  0
C  C121  1  0.54402834  0.91387586  0.74827173  1  -0.090466  0  -0.054947  -0.065575  0  3.889973  0
C  C122  1  0.54403936  0.41387493  0.75172941  1  -0.090615  0  -0.055036  -0.065749  0  3.890047  0
C  C123  1  0.45596687  0.91387697  0.24826928  1  -0.090703  0  -0.055008  -0.065565  0  3.889928  0
C  C124  1  0.50411011  0.47512601  0.24863639  1  0.03275  0  -0.016682  -0.056819  0  4.001128  0
C  C125  1  0.49588509  0.97512896  0.75136650  1  0.03316  0  -0.016628  -0.056668  0  4.001166  0
C  C126  1  0.49589619  0.47512667  0.74863330  1  0.033187  0  -0.016638  -0.056728  0  4.00114  0
C  C127  1  0.50411050  0.97512875  0.25136306  1  0.033415  0  -0.016657  -0.056717  0  4.001202  0
C  C128  1  0.54921278  0.50048407  0.19043442  1  1.50706  0  0.241941  0.591783  0  4.127792  0
C  C129  1  0.45078319  0.00048815  0.80956534  1  1.506202  0  0.241834  0.591513  0  4.127877  0
C  C130  1  0.45079526  0.50048425  0.69043405  1  1.506785  0  0.24196  0.591734  0  4.127884  0
C  C131  1  0.54921508  0.00048480  0.30956353  1  1.506661  0  0.24188  0.59158  0  4.127816  0
C  C132  1  0.49885062  0.51126475  0.29875381  1  -0.052287  0  -0.061351  -0.062176  0  3.932537  0
C  C133  1  0.50115118  0.01126599  0.70124635  1  -0.052001  0  -0.061334  -0.062195  0  3.932511  0
C  C134  1  0.50115749  0.51126632  0.79875332  1  -0.052299  0  -0.061337  -0.062235  0  3.932485  0
C  C135  1  0.49883857  0.01126849  0.20124467  1  -0.052082  0  -0.061368  -0.06228  0  3.9326  0
C  C136  1  0.81596245  0.28659157  0.41606223  1  -0.561836  0  -0.027722  -0.212851  0  4.035891  0
C  C137  1  0.18403852  0.78659022  0.58393723  1  -0.56186  0  -0.027699  -0.212798  0  4.035866  0
C  C138  1  0.18403510  0.28659065  0.91606600  1  -0.5617  0  -0.027746  -0.21296  0  4.035831  0
C  C139  1  0.81595726  0.78659160  0.08393955  1  -0.561757  0  -0.027704  -0.212938  0  4.035891  0
C  C140  1  0.70843769  0.23891096  0.43970786  1  -0.07804  0  -0.068502  -0.076383  0  3.956437  0
C  C141  1  0.29156724  0.73891202  0.56029172  1  -0.078138  0  -0.068447  -0.076278  0  3.956444  0
C  C142  1  0.29156463  0.23890966  0.93971180  1  -0.077787  0  -0.068533  -0.076392  0  3.956506  0
C  C143  1  0.70842738  0.73891241  0.06029213  1  -0.077923  0  -0.068518  -0.076348  0  3.956291  0
C  C144  1  0.63264842  0.19345231  0.40394248  1  -0.004816  0  -0.013467  -0.034739  0  3.964238  0
C  C145  1  0.36736336  0.69345197  0.59605722  1  -0.004697  0  -0.013477  -0.03472  0  3.964154  0
C  C146  1  0.36735595  0.19345198  0.90394406  1  -0.005035  0  -0.013469  -0.034701  0  3.964101  0
C  C147  1  0.63263284  0.69345140  0.09605869  1  -0.004726  0  -0.013466  -0.034815  0  3.964354  0
C  C148  1  0.51467460  0.14457977  0.43265525  1  1.59828  0  0.229582  0.606781  0  4.185087  0
C  C149  1  0.48532101  0.64457777  0.56734065  1  1.598286  0  0.229521  0.606748  0  4.185201  0
C  C150  1  0.48532146  0.14457725  0.93266046  1  1.598557  0  0.229521  0.606752  0  4.185191  0
C  C151  1  0.51466841  0.64457485  0.06734284  1  1.598378  0  0.229631  0.606811  0  4.185137  0
C  C152  1  0.66239637  0.19644152  0.34383091  1  -0.033009  0  -0.070972  -0.098515  0  3.896865  0
C  C153  1  0.33760106  0.69643917  0.65616660  1  -0.032026  0  -0.07096  -0.098535  0  3.896819  0
C  C154  1  0.33760388  0.19643980  0.84383387  1  -0.032085  0  -0.070947  -0.09848  0  3.896768  0
C  C155  1  0.66238637  0.69644089  0.15616930  1  -0.032019  0  -0.071027  -0.098476  0  3.896933  0
C  C156  1  0.75950233  0.24601686  0.31951914  1  -0.060429  0  -0.018502  -0.043896  0  3.976519  0
C  C157  1  0.24048830  0.74601437  0.68047868  1  -0.060399  0  -0.018564  -0.04392  0  3.976558  0
C  C158  1  0.24049751  0.24601552  0.81952277  1  -0.060577  0  -0.0185  -0.043866  0  3.976554  0
C  C159  1  0.75950317  0.74601480  0.18048027  1  -0.060601  0  -0.018482  -0.043797  0  3.976323  0
C  C160  1  0.77848111  0.24857458  0.25481460  1  1.51751  0  0.224103  0.560131  0  4.148564  0
C  C161  1  0.22152245  0.74856963  0.74518408  1  1.517757  0  0.22407  0.560163  0  4.148678  0
C  C162  1  0.22153483  0.24857141  0.75481872  1  1.517532  0  0.224099  0.560112  0  4.14857  0
C  C163  1  0.77846730  0.74856916  0.24518345  1  1.517506  0  0.224155  0.560238  0  4.14828  0
C  C164  1  0.83777172  0.29083531  0.35557013  1  0.033752  0  -0.070907  -0.061077  0  3.922643  0
C  C165  1  0.16222067  0.79083287  0.64443105  1  0.033492  0  -0.070941  -0.061169  0  3.922619  0
C  C166  1  0.16223323  0.29083392  0.85557178  1  0.033747  0  -0.070887  -0.061027  0  3.922504  0
C  C167  1  0.83777927  0.79083290  0.14443201  1  0.033602  0  -0.070881  -0.060961  0  3.922581  0
C  C168  1  0.05310206  0.00021144  0.33738676  1  -0.487436  0  -0.009998  -0.187741  0  3.963317  0
C  C169  1  0.94690684  0.50021450  0.66261343  1  -0.487042  0  -0.009942  -0.187672  0  3.96322  0
C  C170  1  0.94690552  0.00021288  0.83738735  1  -0.487084  0  -0.009997  -0.187653  0  3.963249  0
C  C171  1  0.05309907  0.50021306  0.16261284  1  -0.487139  0  -0.009923  -0.187631  0  3.963339  0
C  C172  1  0.10233710  0.06168372  0.34185508  1  -0.028784  0  -0.049559  -0.04757  0  3.901449  0
C  C173  1  0.89766508  0.56168722  0.65814583  1  -0.028792  0  -0.049561  -0.047655  0  3.901468  0
C  C174  1  0.89767082  0.06168558  0.84185492  1  -0.028841  0  -0.049544  -0.047602  0  3.901494  0
C  C175  1  0.10233135  0.56168535  0.15814424  1  -0.028759  0  -0.049572  -0.047697  0  3.90152  0
C  C176  1  0.10123785  0.09889564  0.29256482  1  0.031353  0  -0.013381  -0.044901  0  3.980243  0
C  C177  1  0.89875742  0.59889628  0.70743730  1  0.031334  0  -0.013339  -0.044726  0  3.980188  0
C  C178  1  0.89876448  0.09889524  0.79256509  1  0.031628  0  -0.013326  -0.044867  0  3.980202  0
C  C179  1  0.10122935  0.59889805  0.20743528  1  0.031737  0  -0.013335  -0.044846  0  3.98022  0
C  C180  1  0.16988881  0.16245822  0.29721642  1  1.531139  0  0.23963  0.586051  0  4.111162  0
C  C181  1  0.83010837  0.66245973  0.70278380  1  1.531045  0  0.23948  0.585756  0  4.111369  0
C  C182  1  0.83011244  0.16245867  0.79721512  1  1.531143  0  0.239618  0.58607  0  4.111091  0
C  C183  1  0.16987613  0.66246109  0.20278118  1  1.531645  0  0.23961  0.586031  0  4.111323  0
C  C184  1  0.04614724  0.07498510  0.23887286  1  -0.040605  0  -0.057754  -0.07075  0  3.894545  0
C  C185  1  0.95385360  0.57498518  0.76112888  1  -0.04071  0  -0.057724  -0.070683  0  3.894578  0
C  C186  1  0.95385491  0.07498428  0.73887213  1  -0.040955  0  -0.057779  -0.070709  0  3.89454  0
C  C187  1  0.04615024  0.57498781  0.26112831  1  -0.040678  0  -0.057753  -0.07071  0  3.894525  0
C  C188  1  0.99979184  0.01354268  0.23391915  1  -0.085247  0  -0.015608  -0.059124  0  3.991605  0
C  C189  1  0.00021572  0.51354522  0.76608145  1  -0.085139  0  -0.015572  -0.059166  0  3.991682  0
C  C190  1  0.00020855  0.01354253  0.73391946  1  -0.08532  0  -0.015569  -0.059135  0  3.991587  0
C  C191  1  0.99978896  0.51354719  0.26608158  1  -0.085501  0  -0.015559  -0.059058  0  3.991697  0
C  C192  1  0.95884907  0.99032002  0.17458490  1  1.546885  0  0.24457  0.593036  0  4.120818  0
C  C193  1  0.04114768  0.49032149  0.82541403  1  1.546722  0  0.244441  0.592898  0  4.121164  0
C  C194  1  0.04114581  0.99031990  0.67458511  1  1.546909  0  0.2445  0.59291  0  4.121  0
C  C195  1  0.95885956  0.49032252  0.32541470  1  1.5468  0  0.24451  0.592886  0  4.121253  0
C  C196  1  0.00398500  0.97578324  0.28309440  1  -0.033442  0  -0.056755  -0.049122  0  3.897176  0
C  C197  1  0.99602313  0.47578479  0.71690413  1  -0.033758  0  -0.056771  -0.049047  0  3.897036  0
C  C198  1  0.99601836  0.97578381  0.78309574  1  -0.033638  0  -0.056752  -0.049151  0  3.89724  0
C  C199  1  0.00398690  0.47578604  0.21690671  1  -0.033559  0  -0.056749  -0.049008  0  3.89729  0
O  O200  1  0.62482089  0.52499597  0.45172711  1  -1.49011  0  -0.430951  -0.817382  0  2.22261  0
O  O201  1  0.37518819  0.02499345  0.54827128  1  -1.490055  0  -0.430911  -0.817326  0  2.222752  0
O  O202  1  0.37519328  0.52499881  0.95172693  1  -1.490203  0  -0.430953  -0.817338  0  2.222664  0
O  O203  1  0.62480862  0.02499923  0.04826885  1  -1.490041  0  -0.430972  -0.817305  0  2.222652  0
O  O204  1  0.26820266  0.51729847  0.45455719  1  -1.49753  0  -0.45221  -0.862492  0  2.280354  0
O  O205  1  0.73180924  0.01729713  0.54544513  1  -1.497244  0  -0.452181  -0.862461  0  2.280328  0
O  O206  1  0.73181282  0.51729704  0.95455570  1  -1.496958  0  -0.452189  -0.862536  0  2.280314  0
O  O207  1  0.26819190  0.01729902  0.04544445  1  -1.497627  0  -0.452185  -0.862475  0  2.28045  0
O  O208  1  0.43335542  0.60095916  0.39356804  1  -1.372393  0  -0.363134  -0.609707  0  2.161203  0
O  O209  1  0.56664992  0.10096026  0.60642885  1  -1.37235  0  -0.363123  -0.609601  0  2.161338  0
O  O210  1  0.56667667  0.60095806  0.89356651  1  -1.372463  0  -0.363093  -0.609625  0  2.161455  0
O  O211  1  0.43334734  0.10096181  0.10642863  1  -1.372504  0  -0.363167  -0.609662  0  2.161366  0
O  O212  1  0.30201445  0.29981106  0.35534873  1  -1.173847  0  -0.315157  -0.463639  0  2.363006  0
O  O213  1  0.69797801  0.79981218  0.64465243  1  -1.173756  0  -0.315267  -0.463869  0  2.362698  0
O  O214  1  0.69797765  0.29981187  0.85534863  1  -1.173793  0  -0.315198  -0.463706  0  2.362851  0
O  O215  1  0.30202343  0.79981364  0.14464992  1  -1.173763  0  -0.315234  -0.46379  0  2.362854  0
O  O216  1  0.34023006  0.29462610  0.25746185  1  -1.164263  0  -0.279625  -0.489972  0  2.2198  0
O  O217  1  0.65975231  0.79462692  0.74253933  1  -1.16422  0  -0.279586  -0.489981  0  2.219866  0
O  O218  1  0.65976892  0.29462779  0.75746053  1  -1.164266  0  -0.279598  -0.490001  0  2.219843  0
O  O219  1  0.34024648  0.79462704  0.24253629  1  -1.164028  0  -0.279573  -0.48995  0  2.219629  0
O  O220  1  0.93146420  0.60857578  0.50588848  1  -1.287396  0  -0.61645  -0.817224  0  1.94648  0
O  O221  1  0.06853546  0.10857638  0.49411187  1  -1.28735  0  -0.616439  -0.817209  0  1.946488  0
O  O222  1  0.06853665  0.60857707  0.00588741  1  -1.287373  0  -0.616441  -0.817224  0  1.946492  0
O  O223  1  0.93146444  0.10857690  0.99411294  1  -1.287295  0  -0.616395  -0.817158  0  1.946526  0
O  O224  1  0.53836774  0.88801462  0.49113872  1  -1.312277  0  -0.629039  -0.822376  0  1.961004  0
O  O225  1  0.46162825  0.38801319  0.50886222  1  -1.312246  0  -0.629022  -0.822346  0  1.961084  0
O  O226  1  0.46162942  0.88801390  0.99114094  1  -1.31227  0  -0.628997  -0.822299  0  1.961096  0
O  O227  1  0.53837088  0.38801391  0.00886043  1  -1.312602  0  -0.629005  -0.822313  0  1.961093  0
O  O228  1  0.58215258  0.55955436  0.18934886  1  -1.192168  0  -0.320257  -0.48286  0  2.348465  0
O  O229  1  0.41784671  0.05955660  0.81065075  1  -1.191984  0  -0.320215  -0.482752  0  2.348404  0
O  O230  1  0.41786454  0.55955406  0.68934771  1  -1.192133  0  -0.320262  -0.482811  0  2.348469  0
O  O231  1  0.58215916  0.05955463  0.31064842  1  -1.192171  0  -0.320135  -0.482756  0  2.348477  0
O  O232  1  0.55132861  0.46788661  0.14636333  1  -1.175071  0  -0.319161  -0.545018  0  2.224813  0
O  O233  1  0.44866223  0.96788742  0.85363566  1  -1.174795  0  -0.319216  -0.544983  0  2.22467  0
O  O234  1  0.44866601  0.46788497  0.64636427  1  -1.17487  0  -0.319182  -0.544966  0  2.224737  0
O  O235  1  0.55133775  0.96788725  0.35363602  1  -1.174986  0  -0.319228  -0.544972  0  2.224628  0
O  O236  1  0.94076731  0.40240909  0.43835982  1  -1.477633  0  -0.384701  -0.769636  0  2.218982  0
O  O237  1  0.05924601  0.90240816  0.56163978  1  -1.477767  0  -0.384652  -0.76958  0  2.219168  0
O  O238  1  0.05923769  0.40240853  0.93836259  1  -1.477768  0  -0.384618  -0.769607  0  2.219165  0
O  O239  1  0.94075697  0.90240827  0.06163962  1  -1.477772  0  -0.384668  -0.769625  0  2.219133  0
O  O240  1  0.81264959  0.33512677  0.52311669  1  -1.458822  0  -0.347604  -0.737066  0  2.194194  0
O  O241  1  0.18734744  0.83512844  0.47688264  1  -1.458878  0  -0.347629  -0.737102  0  2.194176  0
O  O242  1  0.18734733  0.33512769  0.02311882  1  -1.458862  0  -0.347641  -0.737151  0  2.194156  0
O  O243  1  0.81264683  0.83512661  0.97688312  1  -1.458948  0  -0.347628  -0.737113  0  2.194143  0
O  O244  1  0.14182008  0.31727724  0.47616888  1  -1.349284  0  -0.364375  -0.636149  0  2.244576  0
O  O245  1  0.85818400  0.81727746  0.52383354  1  -1.34927  0  -0.364407  -0.636185  0  2.244488  0
O  O246  1  0.85818041  0.31727953  0.97617143  1  -1.349646  0  -0.364348  -0.636167  0  2.244507  0
O  O247  1  0.14181217  0.81727744  0.02383404  1  -1.34922  0  -0.364412  -0.636183  0  2.244492  0
O  O248  1  0.54412592  0.08915471  0.41633668  1  -1.222649  0  -0.356496  -0.6354  0  2.268205  0
O  O249  1  0.45586066  0.58915401  0.58366111  1  -1.222688  0  -0.356551  -0.635507  0  2.268155  0
O  O250  1  0.45585149  0.08915399  0.91633674  1  -1.222871  0  -0.356527  -0.635437  0  2.268367  0
O  O251  1  0.54414371  0.58915066  0.08366018  1  -1.222817  0  -0.356532  -0.635418  0  2.268265  0
O  O252  1  0.39901443  0.16085507  0.47140075  1  -1.164255  0  -0.298405  -0.530725  0  2.147086  0
O  O253  1  0.60096838  0.66085372  0.52859250  1  -1.16434  0  -0.298342  -0.530703  0  2.147179  0
O  O254  1  0.60096779  0.16085263  0.97141047  1  -1.164402  0  -0.298366  -0.530743  0  2.147116  0
O  O255  1  0.39901933  0.66085434  0.02859454  1  -1.164342  0  -0.298449  -0.530777  0  2.147016  0
O  O256  1  0.85463878  0.30211633  0.23615035  1  -1.130526  0  -0.331042  -0.47834  0  2.253851  0
O  O257  1  0.14536662  0.80210764  0.76385124  1  -1.130857  0  -0.330962  -0.47833  0  2.253994  0
O  O258  1  0.14535651  0.30211174  0.73615248  1  -1.130781  0  -0.331116  -0.478534  0  2.253711  0
O  O259  1  0.85462878  0.80211267  0.26384868  1  -1.130671  0  -0.3311  -0.478569  0  2.253589  0
O  O260  1  0.73292579  0.20748254  0.22187576  1  -1.126076  0  -0.290712  -0.475546  0  2.080277  0
O  O261  1  0.26708465  0.70747390  0.77811780  1  -1.126133  0  -0.290722  -0.475591  0  2.080404  0
O  O262  1  0.26709503  0.20748031  0.72188238  1  -1.125956  0  -0.290665  -0.475451  0  2.080382  0
O  O263  1  0.73290536  0.70747748  0.27812077  1  -1.126127  0  -0.290735  -0.47561  0  2.080264  0
O  O264  1  0.23119942  0.97500044  0.44026393  1  -1.496802  0  -0.464586  -0.868409  0  2.281197  0
O  O265  1  0.76880152  0.47499909  0.55973678  1  -1.496783  0  -0.464559  -0.868363  0  2.281121  0
O  O266  1  0.76879831  0.97500175  0.94026322  1  -1.496857  0  -0.464563  -0.868373  0  2.281175  0
O  O267  1  0.23119689  0.47500140  0.05973401  1  -1.496857  0  -0.464586  -0.868394  0  2.281056  0
O  O268  1  0.87754848  0.97067808  0.43970714  1  -1.495807  0  -0.453255  -0.861101  0  2.243561  0
O  O269  1  0.12245243  0.47067717  0.56029227  1  -1.495775  0  -0.453304  -0.861175  0  2.243613  0
O  O270  1  0.12244780  0.97067847  0.93970845  1  -1.495798  0  -0.453285  -0.861126  0  2.243593  0
O  O271  1  0.87755024  0.47067814  0.06029314  1  -1.495802  0  -0.453271  -0.861136  0  2.243588  0
O  O272  1  0.06768824  0.88855634  0.38283737  1  -1.42935  0  -0.380877  -0.648052  0  2.163002  0
O  O273  1  0.93230919  0.38855540  0.61716052  1  -1.42948  0  -0.380823  -0.647976  0  2.163087  0
O  O274  1  0.93230894  0.88855732  0.88283799  1  -1.429483  0  -0.380912  -0.648088  0  2.16303  0
O  O275  1  0.06769136  0.38855760  0.11716338  1  -1.429388  0  -0.380963  -0.648116  0  2.163042  0
O  O276  1  0.20640788  0.18842334  0.24678931  1  -1.180121  0  -0.31854  -0.466626  0  2.30216  0
O  O277  1  0.79358232  0.68842242  0.75321301  1  -1.179975  0  -0.318476  -0.46655  0  2.30222  0
O  O278  1  0.79359203  0.18842332  0.74678810  1  -1.180159  0  -0.318534  -0.466612  0  2.302195  0
O  O279  1  0.20640678  0.68842471  0.25320726  1  -1.180528  0  -0.318619  -0.466666  0  2.302435  0
O  O280  1  0.19362967  0.18748082  0.34551735  1  -1.1678  0  -0.284902  -0.509724  0  2.22679  0
O  O281  1  0.80636051  0.68747837  0.65448149  1  -1.167776  0  -0.284851  -0.509603  0  2.226892  0
O  O282  1  0.80635754  0.18747854  0.84551742  1  -1.167711  0  -0.284888  -0.509709  0  2.226793  0
O  O283  1  0.19362116  0.68748383  0.15447925  1  -1.167882  0  -0.284855  -0.509667  0  2.226833  0
O  O284  1  0.92506922  0.93122342  0.17113320  1  -1.191636  0  -0.31653  -0.477734  0  2.342324  0
O  O285  1  0.07492997  0.43122536  0.82886762  1  -1.191557  0  -0.316451  -0.477627  0  2.342458  0
O  O286  1  0.07492962  0.93122287  0.67113376  1  -1.191654  0  -0.316534  -0.477697  0  2.342385  0
O  O287  1  0.92507961  0.43122591  0.32886706  1  -1.191529  0  -0.316513  -0.477675  0  2.342393  0
O  O288  1  0.96152435  0.02427737  0.13146940  1  -1.184179  0  -0.316123  -0.55107  0  2.224996  0
O  O289  1  0.03847467  0.52428011  0.86853030  1  -1.184184  0  -0.316072  -0.551059  0  2.224984  0
O  O290  1  0.03846305  0.02427543  0.63146874  1  -1.184189  0  -0.316019  -0.550963  0  2.225074  0
O  O291  1  0.96155034  0.52427978  0.36853096  1  -1.184228  0  -0.315991  -0.550946  0  2.225169  0
