# generated using pymatgen
data_NiH9C9(NO2)2
_symmetry_space_group_name_H-M   'P 1'
_cell_length_a   6.68702613
_cell_length_b   7.72967068
_cell_length_c   22.09004975
_cell_angle_alpha   89.99987908
_cell_angle_beta   90.00057348
_cell_angle_gamma   89.08008501
_symmetry_Int_Tables_number   1
_chemical_formula_structural   NiH9C9(NO2)2
_chemical_formula_sum   'Ni4 H36 C36 N8 O16'
_cell_volume   1141.65458905
_cell_formula_units_Z   4
loop_
 _symmetry_equiv_pos_site_id
 _symmetry_equiv_pos_as_xyz
  1  'x, y, z'
loop_
 _atom_site_type_symbol
 _atom_site_label
 _atom_site_symmetry_multiplicity
 _atom_site_fract_x
 _atom_site_fract_y
 _atom_site_fract_z
 _atom_site_occupancy
 _atom_site_pbe_bader_charge
 _atom_site_pbe_bader_spin_density
 _atom_site_pbe_cm5_charge
 _atom_site_pbe_ddec_charge
 _atom_site_pbe_ddec_spin_density
 _atom_site_pbe_ddec_sum_bond_order
 _atom_site_pbe_magmom
Ni  Ni0  1  0.53866423  0.39855195  0.20847280  1  1.17023  1.563825  0.640375  0.796042  1.771163  2.466996  1.551
Ni  Ni1  1  0.96132875  0.10145961  0.70847604  1  1.170274  1.563824  0.640395  0.796125  1.771155  2.466955  1.551
Ni  Ni2  1  0.46132365  0.60145689  0.79152290  1  1.170227  1.563825  0.640382  0.796083  1.771156  2.466941  1.551
Ni  Ni3  1  0.03867869  0.89853878  0.29151966  1  1.170289  1.563832  0.640363  0.796064  1.771161  2.467109  1.551
H  H4  1  0.84553294  0.97219906  0.19425398  1  0.449014  0.00163  0.294417  0.295118  0.001344  0.960354  0.0
H  H5  1  0.81518551  0.76250204  0.21547035  1  0.483289  -0.000146  0.290002  0.294334  -3e-06  0.999539  0.0
H  H6  1  0.95437476  0.31616980  0.17018382  1  0.135737  0.001392  0.123499  0.101918  0.000354  1.007672  0.001
H  H7  1  0.16992476  0.35234462  0.08185327  1  0.107665  0.000952  0.109008  0.121232  0.000536  1.036704  0.0
H  H8  1  0.02873515  0.72262431  0.13135575  1  0.061212  0.004711  0.101925  0.061251  0.002221  0.994938  0.003
H  H9  1  0.67028388  0.61893430  0.99454131  1  0.093121  0.000678  0.107671  0.113391  0.000324  1.021441  0.0
H  H10  1  0.47719101  0.56753199  0.08847337  1  0.151669  0.001466  0.117182  0.09326  0.000624  1.033968  0.001
H  H11  1  0.09894205  0.02257218  0.10958704  1  0.044035  -0.000155  0.101401  0.118126  -0.000264  0.985429  0.0
H  H12  1  0.32536504  0.90581898  0.11738422  1  0.063207  -3e-05  0.106928  0.131172  -0.000134  0.969055  0.0
H  H13  1  0.65445602  0.52779926  0.69425771  1  0.448945  0.00163  0.294431  0.295105  0.001344  0.960368  0.0
H  H14  1  0.68481770  0.73748959  0.71547402  1  0.483318  -0.000146  0.290026  0.294359  -3e-06  0.999556  0.0
H  H15  1  0.54563044  0.18383805  0.67018168  1  0.135746  0.001392  0.1235  0.101954  0.000354  1.007661  0.001
H  H16  1  0.33008620  0.14765273  0.58185155  1  0.107653  0.000952  0.108991  0.121206  0.000536  1.036676  0.0
H  H17  1  0.47126306  0.77739696  0.63136160  1  0.061625  0.004709  0.101998  0.061357  0.00222  0.994777  0.003
H  H18  1  0.82972861  0.88106201  0.49454892  1  0.092919  0.000678  0.10762  0.113363  0.000324  1.021616  0.0
H  H19  1  0.02280757  0.93246109  0.58848184  1  0.151564  0.001465  0.117205  0.093326  0.000624  1.034018  0.001
H  H20  1  0.40104269  0.47744585  0.60958710  1  0.044167  -0.000155  0.101408  0.118121  -0.000264  0.985506  0.0
H  H21  1  0.17461617  0.59420895  0.61739204  1  0.062957  -3e-05  0.106948  0.131159  -0.000134  0.969086  0.0
H  H22  1  0.15445648  0.02780590  0.80574671  1  0.449005  0.001629  0.294386  0.295049  0.001345  0.960479  0.0
H  H23  1  0.18480545  0.23749902  0.78453079  1  0.483309  -0.000146  0.289966  0.294263  -3e-06  0.999657  0.0
H  H24  1  0.04563239  0.68385446  0.82981822  1  0.136094  0.001393  0.123512  0.101958  0.000354  1.007707  0.001
H  H25  1  0.83007497  0.64767451  0.91814968  1  0.10782  0.000952  0.109026  0.121253  0.000536  1.036681  0.0
H  H26  1  0.97124674  0.27738586  0.86864313  1  0.061192  0.004712  0.102017  0.061357  0.002221  0.994963  0.003
H  H27  1  0.32972057  0.38106410  0.00545620  1  0.09312  0.000678  0.10762  0.113351  0.000324  1.021508  0.0
H  H28  1  0.52281946  0.43246250  0.91152415  1  0.151601  0.001466  0.117153  0.09322  0.000624  1.034016  0.001
H  H29  1  0.90104432  0.97743797  0.89041365  1  0.044108  -0.000155  0.101439  0.118124  -0.000264  0.985535  0.0
H  H30  1  0.67461991  0.09418471  0.88261511  1  0.063155  -3e-05  0.106956  0.131201  -0.000134  0.968963  0.0
H  H31  1  0.34554094  0.47219919  0.30574388  1  0.448915  0.001629  0.29444  0.295114  0.001344  0.960337  0.0
H  H32  1  0.31517474  0.26251276  0.28452667  1  0.483359  -0.000146  0.290039  0.2943  -3e-06  0.999589  0.0
H  H33  1  0.45437427  0.81613707  0.32981946  1  0.135712  0.001392  0.123532  0.101962  0.000354  1.007875  0.001
H  H34  1  0.66992302  0.85231977  0.41814823  1  0.107742  0.000952  0.108987  0.121186  0.000536  1.03671  0.0
H  H35  1  0.52874582  0.22260659  0.36863637  1  0.06139  0.00471  0.101993  0.061342  0.002221  0.994833  0.003
H  H36  1  0.17029836  0.11892851  0.50545539  1  0.093216  0.000678  0.107674  0.113411  0.000324  1.021526  0.0
H  H37  1  0.97720736  0.06753596  0.41152338  1  0.151798  0.001465  0.117216  0.093338  0.000624  1.033833  0.001
H  H38  1  0.59895274  0.52255649  0.39040996  1  0.044214  -0.000155  0.101429  0.118112  -0.000264  0.985518  0.0
H  H39  1  0.82537916  0.40580245  0.38260955  1  0.062998  -3e-05  0.106967  0.131128  -0.000134  0.969029  0.0
C  C40  1  0.22537930  0.68456682  0.20628844  1  1.586147  -0.001463  0.216448  0.57366  -0.002475  4.108728  -0.003
C  C41  1  0.89661928  0.37966414  0.12964283  1  0.480113  -0.006129  0.049344  0.095359  -0.007009  3.91794  -0.004
C  C42  1  0.01654300  0.40112695  0.07888698  1  -0.013554  0.00304  -0.08208  -0.176292  0.001491  3.938896  0.003
C  C43  1  0.93969506  0.48682474  0.02755572  1  -0.111353  -0.009064  0.004382  0.093501  -0.01015  3.988662  -0.005
C  C44  1  0.08137738  0.80174681  0.16944263  1  0.309941  0.010863  -0.002851  0.074694  0.006756  3.881548  0.006
C  C45  1  0.26843189  0.08995989  0.18762149  1  1.558666  -0.001194  0.214438  0.637034  -0.001647  4.105874  -0.001
C  C46  1  0.74126510  0.54856286  0.03164683  1  -0.045603  0.002805  -0.087965  -0.182147  0.00132  3.96355  0.003
C  C47  1  0.63076661  0.52040334  0.08374796  1  0.466787  -0.005348  0.041663  0.083767  -0.0061  3.951155  -0.003
C  C48  1  0.19462637  0.95435089  0.14277462  1  -0.033241  0.007034  -0.158492  -0.338206  0.00403  3.907438  0.005
C  C49  1  0.27461256  0.81544238  0.70629594  1  1.586428  -0.001463  0.216628  0.573742  -0.002476  4.108186  -0.003
C  C50  1  0.60338615  0.12033490  0.62964498  1  0.479853  -0.00613  0.04929  0.095167  -0.007013  3.91811  -0.004
C  C51  1  0.48346337  0.09887044  0.57888893  1  -0.013626  0.003038  -0.082028  -0.176208  0.001489  3.938645  0.003
C  C52  1  0.56030698  0.01317237  0.52755465  1  -0.111677  -0.009072  0.00438  0.093465  -0.010158  3.988835  -0.005
C  C53  1  0.41860879  0.69826006  0.66944703  1  0.309427  0.010862  -0.002941  0.074648  0.006755  3.881287  0.006
C  C54  1  0.23155114  0.41004342  0.68762472  1  1.55893  -0.001193  0.214352  0.636885  -0.001644  4.106069  -0.001
C  C55  1  0.75875584  0.95143370  0.53164920  1  -0.045423  0.002804  -0.087916  -0.182092  0.001319  3.963658  0.003
C  C56  1  0.86923676  0.97958135  0.58375291  1  0.466998  -0.005348  0.041644  0.08368  -0.006101  3.950963  -0.003
C  C57  1  0.30536787  0.54565740  0.64277563  1  -0.033099  0.007038  -0.158564  -0.338269  0.004033  3.907354  0.005
C  C58  1  0.77460863  0.31543685  0.79370999  1  1.586244  -0.001459  0.216555  0.573782  -0.002471  4.108801  -0.002
C  C59  1  0.10339100  0.62034717  0.87035604  1  0.479664  -0.00613  0.04934  0.095231  -0.007012  3.918031  -0.004
C  C60  1  0.98346127  0.59888698  0.92111099  1  -0.013834  0.003039  -0.082116  -0.176319  0.00149  3.939067  0.003
C  C61  1  0.06030470  0.51319180  0.97244225  1  -0.067867  -0.008991  0.00436  0.093408  -0.010151  3.988797  -0.005
C  C62  1  0.91861655  0.19825553  0.83055670  1  0.310041  0.010866  -0.002886  0.074487  0.006759  3.881738  0.006
C  C63  1  0.73156203  0.91004374  0.81238055  1  1.558658  -0.001193  0.214321  0.636758  -0.001645  4.106198  -0.001
C  C64  1  0.25873787  0.45143426  0.96835159  1  -0.045866  0.002806  -0.08788  -0.181997  0.001321  3.963516  0.003
C  C65  1  0.36923490  0.47958991  0.91625137  1  0.466895  -0.005345  0.041652  0.083705  -0.006097  3.951017  -0.003
C  C66  1  0.80536761  0.04564757  0.85722561  1  -0.033301  0.007033  -0.158452  -0.338012  0.004029  3.907657  0.005
C  C67  1  0.72539033  0.18456120  0.29370520  1  1.58656  -0.001459  0.216578  0.573828  -0.002472  4.108429  -0.002
C  C68  1  0.39662155  0.87964020  0.37035570  1  0.479993  -0.006131  0.049328  0.095252  -0.007012  3.918071  -0.004
C  C69  1  0.51654733  0.90110334  0.42111085  1  -0.013882  0.003036  -0.082155  -0.176318  0.001488  3.938958  0.003
C  C70  1  0.43971562  0.98680653  0.47244558  1  -0.067698  -0.008994  0.004413  0.093397  -0.010156  3.988759  -0.005
C  C71  1  0.58138213  0.30174359  0.33055140  1  0.309751  0.010863  -0.003018  0.074455  0.006757  3.881526  0.006
C  C72  1  0.76843990  0.58994988  0.31237732  1  1.558686  -0.001193  0.214268  0.63681  -0.001645  4.106108  -0.001
C  C73  1  0.24126966  0.04855424  0.46835284  1  -0.045643  0.002804  -0.087973  -0.182005  0.001319  3.963151  0.003
C  C74  1  0.13077383  0.02040279  0.41625050  1  0.466304  -0.005348  0.041603  0.08353  -0.006099  3.950739  -0.003
C  C75  1  0.69462757  0.45434364  0.35722189  1  -0.033242  0.007033  -0.158474  -0.33803  0.004029  3.907644  0.005
N  N76  1  0.91573647  0.86038667  0.20815088  1  -1.148969  0.088876  -0.6384  -0.607654  0.049912  3.445312  0.071
N  N77  1  0.70537358  0.43641873  0.13244197  1  -1.202343  0.051132  -0.325238  -0.209747  0.02992  3.55672  0.047
N  N78  1  0.58425594  0.63961283  0.70815341  1  -1.148922  0.088873  -0.638448  -0.607679  0.049911  3.44518  0.071
N  N79  1  0.79462597  0.06358033  0.63244791  1  -1.202039  0.051131  -0.325222  -0.209588  0.02992  3.556371  0.047
N  N80  1  0.08425144  0.13961959  0.79184845  1  -1.148905  0.088865  -0.638412  -0.60757  0.049905  3.445511  0.071
N  N81  1  0.29462628  0.56358876  0.86755690  1  -1.202241  0.051132  -0.325206  -0.209595  0.02992  3.556474  0.047
N  N82  1  0.41573801  0.36038822  0.29184456  1  -1.148966  0.088865  -0.638404  -0.607516  0.049906  3.445387  0.071
N  N83  1  0.20538308  0.93640770  0.36755368  1  -1.201846  0.05113  -0.325193  -0.209539  0.029917  3.556152  0.047
O  O84  1  0.33873293  0.58425911  0.17607640  1  -1.155054  0.06901  -0.306995  -0.544922  0.0384  2.397222  0.063
O  O85  1  0.36582754  0.21215797  0.16361124  1  -1.14856  0.077658  -0.316313  -0.555801  0.043015  2.298233  0.071
O  O86  1  0.22286678  0.69717684  0.26374054  1  -1.163088  0.075967  -0.300029  -0.526427  0.041808  2.346734  0.07
O  O87  1  0.22898795  0.07655338  0.24395540  1  -1.160713  0.062472  -0.300284  -0.542678  0.034582  2.309141  0.058
O  O88  1  0.16124454  0.91574389  0.67608303  1  -1.154927  0.069013  -0.307045  -0.545005  0.0384  2.397101  0.063
O  O89  1  0.13417113  0.28784541  0.66361743  1  -1.148581  0.077653  -0.316257  -0.555702  0.043011  2.298363  0.071
O  O90  1  0.27714772  0.80285258  0.76375304  1  -1.163512  0.07597  -0.300151  -0.526467  0.04181  2.346284  0.07
O  O91  1  0.27098327  0.42347035  0.74395647  1  -1.16086  0.062456  -0.30019  -0.542523  0.034573  2.309328  0.058
O  O92  1  0.66125062  0.41573553  0.82392021  1  -1.155119  0.069005  -0.30706  -0.545017  0.038397  2.397273  0.063
O  O93  1  0.63417100  0.78783400  0.83638718  1  -1.148602  0.077664  -0.316321  -0.555757  0.043017  2.298233  0.071
O  O94  1  0.77713756  0.30283062  0.73626015  1  -1.163157  0.075959  -0.300103  -0.526451  0.041804  2.346743  0.07
O  O95  1  0.77100007  0.92344252  0.75604528  1  -1.160673  0.062475  -0.300279  -0.542614  0.034583  2.309041  0.058
O  O96  1  0.83875682  0.08426359  0.32391675  1  -1.155055  0.069008  -0.307042  -0.545054  0.038399  2.39716  0.063
O  O97  1  0.86583331  0.71215300  0.33638235  1  -1.148385  0.077652  -0.316293  -0.555811  0.043012  2.298198  0.071
O  O98  1  0.72285210  0.19715879  0.23625308  1  -1.163429  0.075956  -0.300107  -0.526418  0.041802  2.346432  0.07
O  O99  1  0.72900609  0.57653979  0.25604240  1  -1.160841  0.062466  -0.30023  -0.542554  0.034579  2.30905  0.058
