# generated using pymatgen
data_ZnH9C16N2ClO4
_symmetry_space_group_name_H-M   'P 1'
_cell_length_a   14.00341335
_cell_length_b   13.95179657
_cell_length_c   15.30957786
_cell_angle_alpha   89.58480372
_cell_angle_beta   90.71816356
_cell_angle_gamma   97.78295857
_symmetry_Int_Tables_number   1
_chemical_formula_structural   ZnH9C16N2ClO4
_chemical_formula_sum   'Zn2 H18 C32 N4 Cl2 O8'
_cell_volume   2963.24212739
_cell_formula_units_Z   2
loop_
 _symmetry_equiv_pos_site_id
 _symmetry_equiv_pos_as_xyz
  1  'x, y, z'
loop_
 _atom_site_type_symbol
 _atom_site_label
 _atom_site_symmetry_multiplicity
 _atom_site_fract_x
 _atom_site_fract_y
 _atom_site_fract_z
 _atom_site_occupancy
 _atom_site_pbe_bader_charge
 _atom_site_pbe_bader_spin_density
 _atom_site_pbe_cm5_charge
 _atom_site_pbe_ddec_charge
 _atom_site_pbe_ddec_spin_density
 _atom_site_pbe_ddec_sum_bond_order
 _atom_site_pbe_magmom
Zn  Zn0  1  0.50012282  0.40013052  0.50178237  1  1.282298  0  0.667858  0.814331  0  2.425019  0
Zn  Zn1  1  0.49999517  0.59997264  0.49986519  1  1.285524  0  0.667765  0.815071  0  2.414898  0
H  H2  1  0.97430366  0.38524424  0.49306472  1  0.132655  0  0.117203  0.118243  0  0.961388  0
H  H3  1  0.63537365  0.26483038  0.56419332  1  0.148302  0  0.132812  0.111671  0  0.968463  0
H  H4  1  0.54948024  0.75749643  0.62734241  1  0.15352  0  0.13058  0.110468  0  0.980728  0
H  H5  1  0.37223292  0.23254047  0.43477408  1  0.142173  0  0.131194  0.111905  0  0.974651  0
H  H6  1  0.55596514  0.93841114  0.63225746  1  0.082581  0  0.116699  0.123036  0  0.986934  0
H  H7  1  0.36521644  0.05186508  0.43018041  1  0.098152  0  0.116711  0.12258  0  0.987448  0
H  H8  1  0.40252449  0.62932331  0.98336993  1  0.464386  0  0.299286  0.297516  0  0.964411  0
H  H9  1  0.36590948  0.67448225  0.07879627  1  0.429651  0  0.308614  0.302992  0  0.939184  0
H  H10  1  0.40379525  0.34648270  0.01419992  1  0.441292  0  0.298914  0.297198  0  0.965363  0
H  H11  1  0.36759281  0.29263836  0.91733187  1  0.437201  0  0.310468  0.305241  0  0.936115  0
H  H12  1  0.02540381  0.60725025  0.50357545  1  0.085058  0  0.119222  0.120994  0  0.958658  0
H  H13  1  0.59494477  0.39317187  0.22755005  1  0.113973  0  0.103665  0.129633  0  1.001569  0
H  H14  1  0.59701670  0.63805603  0.77772940  1  0.096024  0  0.101002  0.123671  0  1.008645  0
H  H15  1  0.40461331  0.61071873  0.22081440  1  0.062157  0  0.101857  0.11654  0  1.004525  0
H  H16  1  0.40774887  0.36819025  0.77680322  1  0.090651  0  0.10457  0.123476  0  0.997376  0
H  H17  1  0.44301010  0.92565012  0.36776394  1  0.084271  0  0.115972  0.12137  0  0.987568  0
H  H18  1  0.63967971  0.08528139  0.56729148  1  0.09103  0  0.117266  0.123675  0  0.984329  0
H  H19  1  0.44319545  0.74548681  0.37428152  1  0.142348  0  0.129671  0.106606  0  0.981518  0
C  C20  1  0.49890515  0.50358919  0.33117778  1  1.567337  0  0.216363  0.598291  0  4.153714  0
C  C21  1  0.57697684  0.21402616  0.53637224  1  0.497031  0  0.066649  0.111374  0  3.9046  0
C  C22  1  0.52769866  0.79885286  0.57151865  1  0.479464  0  0.065933  0.109435  0  3.904225  0
C  C23  1  0.42991431  0.19596401  0.46230074  1  0.498717  0  0.066412  0.111703  0  3.904027  0
C  C24  1  0.53109638  0.89884277  0.57331650  1  -0.036658  0  -0.074837  -0.174235  0  3.945057  0
C  C25  1  0.42692650  0.09606905  0.46014639  1  -0.010895  0  -0.075629  -0.17462  0  3.94553  0
C  C26  1  0.50008251  0.94724990  0.49980712  1  -0.01297  0  0.017459  0.10769  0  3.993053  0
C  C27  1  0.50199988  0.05332093  0.49920178  1  -0.020397  0  0.015983  0.104557  0  3.99262  0
C  C28  1  0.31256843  0.46797873  0.49829254  1  1.637672  0  0.216093  0.664833  0  4.246212  0
C  C29  1  0.68732089  0.52493024  0.50190403  1  1.641091  0  0.215741  0.663694  0  4.245332  0
C  C30  1  0.79141682  0.53546065  0.50052273  1  0.129272  0  -0.04002  -0.177901  0  3.938006  0
C  C31  1  0.50106677  0.50255577  0.67023901  1  1.59954  0  0.216821  0.600338  0  4.148131  0
C  C32  1  0.20845620  0.45741371  0.49671487  1  0.127509  0  -0.042256  -0.181613  0  3.946907  0
C  C33  1  0.97904966  0.53764268  0.50027894  1  0.031228  0  -0.061243  -0.045198  0  4.053662  0
C  C34  1  0.02074212  0.45479999  0.49641546  1  0.110424  0  -0.062188  -0.0456  0  4.055081  0
C  C35  1  0.12096639  0.45518881  0.49617751  1  -0.373844  0  -0.040076  -0.019113  0  4.170878  0
C  C36  1  0.87884395  0.53729259  0.49997210  1  -0.378937  0  -0.038057  -0.017183  0  4.16485  0
C  C37  1  0.55496955  0.44219257  0.09937304  1  -0.013233  0  0.008629  0.115324  0  4.070745  0
C  C38  1  0.55574670  0.57695722  0.90416538  1  0.013114  0  0.006741  0.113072  0  4.072555  0
C  C39  1  0.55369165  0.44029713  0.19024754  1  0.04291  0  -0.11316  -0.208471  0  4.004897  0
C  C40  1  0.55520139  0.57935216  0.81327785  1  0.044991  0  -0.11619  -0.21428  0  4.016149  0
C  C41  1  0.49950149  0.50253147  0.23321115  1  0.009506  0  -0.016874  0.011253  0  4.011492  0
C  C42  1  0.44543391  0.56246542  0.09403596  1  0.344358  0  0.096041  0.274512  0  4.098052  0
C  C43  1  0.50154414  0.50276980  0.76824149  1  -0.060468  0  -0.017684  0.011345  0  4.010004  0
C  C44  1  0.44659405  0.56327416  0.18576327  1  0.03777  0  -0.106872  -0.230359  0  3.953529  0
C  C45  1  0.44874064  0.42687949  0.81366968  1  0.012526  0  -0.10382  -0.227332  0  3.941977  0
C  C46  1  0.44685334  0.42648072  0.90537967  1  0.37584  0  0.096459  0.273869  0  4.096488  0
C  C47  1  0.50205371  0.50187402  0.04920797  1  0.092913  0  -0.032099  -0.100563  0  3.985399  0
C  C48  1  0.50269645  0.50223531  0.95232785  1  -0.001176  0  -0.030813  -0.097296  0  3.982331  0
C  C49  1  0.46664102  0.89148938  0.42698890  1  0.005974  0  -0.076771  -0.176059  0  3.945827  0
C  C50  1  0.57846374  0.11456770  0.53780215  1  -0.054356  0  -0.076044  -0.175561  0  3.94105  0
C  C51  1  0.46655270  0.79190061  0.42970786  1  0.44408  0  0.065638  0.111277  0  3.9071  0
N  N52  1  0.49658359  0.74657445  0.50072190  1  -1.227095  0  -0.312782  -0.187357  0  3.502913  0
N  N53  1  0.50355321  0.25369339  0.49988469  1  -1.225569  0  -0.315316  -0.192904  0  3.509837  0
N  N54  1  0.38725426  0.61751778  0.04743244  1  -1.239096  0  -0.598775  -0.617862  0  3.32388  0
N  N55  1  0.38859940  0.35498435  0.94990710  1  -1.230767  0  -0.59897  -0.618703  0  3.324157  0
Cl  Cl56  1  0.62609428  0.36825024  0.04620837  1  -0.230789  0  -0.039592  -0.112287  0  1.440644  0
Cl  Cl57  1  0.62610074  0.67002507  0.95980965  1  -0.229654  0  -0.04124  -0.113984  0  1.442657  0
O  O58  1  0.52202558  0.42933024  0.37064303  1  -1.16648  0  -0.317404  -0.544121  0  2.311955  0
O  O59  1  0.52413930  0.58375069  0.63187016  1  -1.168535  0  -0.316671  -0.549707  0  2.323203  0
O  O60  1  0.47541272  0.57877005  0.36783853  1  -1.176195  0  -0.317798  -0.552388  0  2.319102  0
O  O61  1  0.47763146  0.42155199  0.63260454  1  -1.162766  0  -0.318902  -0.547021  0  2.307457  0
O  O62  1  0.35251646  0.39386132  0.47967597  1  -1.15611  0  -0.315916  -0.549053  0  2.260571  0
O  O63  1  0.64679687  0.59839244  0.48147818  1  -1.139208  0  -0.314407  -0.537366  0  2.239214  0
O  O64  1  0.35472445  0.55173576  0.51835220  1  -1.140113  0  -0.315702  -0.54278  0  2.256339  0
O  O65  1  0.64589156  0.44109586  0.52363808  1  -1.151202  0  -0.314185  -0.547863  0  2.271219  0
