# generated using pymatgen
data_ZnH16C19N3O5
_symmetry_space_group_name_H-M   'P 1'
_cell_length_a   9.71926024
_cell_length_b   10.98785170
_cell_length_c   18.93834826
_cell_angle_alpha   90.14143486
_cell_angle_beta   90.06804894
_cell_angle_gamma   90.09798532
_symmetry_Int_Tables_number   1
_chemical_formula_structural   ZnH16C19N3O5
_chemical_formula_sum   'Zn2 H32 C38 N6 O10'
_cell_volume   2022.48743481
_cell_formula_units_Z   2
loop_
 _symmetry_equiv_pos_site_id
 _symmetry_equiv_pos_as_xyz
  1  'x, y, z'
loop_
 _atom_site_type_symbol
 _atom_site_label
 _atom_site_symmetry_multiplicity
 _atom_site_fract_x
 _atom_site_fract_y
 _atom_site_fract_z
 _atom_site_occupancy
 _atom_site_pbe_bader_charge
 _atom_site_pbe_bader_spin_density
 _atom_site_pbe_cm5_charge
 _atom_site_pbe_ddec_charge
 _atom_site_pbe_ddec_spin_density
 _atom_site_pbe_ddec_sum_bond_order
 _atom_site_pbe_magmom
Zn  Zn0  1  0.63584815  0.51039615  0.50202638  1  1.269067  0  0.665249  0.811281  0  2.424947  0
Zn  Zn1  1  0.35206300  0.50944385  0.50189648  1  1.290993  0  0.671254  0.805347  0  2.448179  0
H  H2  1  0.70986159  0.43590320  0.28377725  1  0.08557  0  0.099937  0.105662  0  1.024824  0
H  H3  1  0.70307276  0.14739037  0.38373083  1  0.048576  0  0.09398  0.103678  0  0.986818  0
H  H4  1  0.81337174  0.13350152  0.45877816  1  0.063262  0  0.093844  0.104369  0  0.987221  0
H  H5  1  0.70259721  0.91919714  0.36982675  1  0.028519  0  0.093854  0.100084  0  0.986728  0
H  H6  1  0.81374728  0.90665715  0.44475087  1  0.005326  0  0.089236  0.092907  0  1.030757  0
H  H7  1  0.12512590  0.42710856  0.59985313  1  0.162757  0  0.135914  0.119199  0  0.977353  0
H  H8  1  0.86533760  0.42608692  0.60044706  1  0.131227  0  0.13452  0.11533  0  0.978117  0
H  H9  1  0.85654610  0.57130205  0.34038973  1  0.070081  0  0.107815  0.133354  0  0.987013  0
H  H10  1  0.86290813  0.71530138  0.38416067  1  0.110626  0  0.11078  0.135963  0  0.993164  0
H  H11  1  0.11256212  0.55608395  0.33996769  1  0.134574  0  0.108621  0.101701  0  1.005584  0
H  H12  1  0.72149652  0.38306948  0.15533429  1  0.090851  0  0.104097  0.109917  0  1.009488  0
H  H13  1  0.69447942  0.31519069  0.83036090  1  0.086673  0  0.106785  0.107529  0  1.003734  0
H  H14  1  0.68427131  0.38582668  0.70475953  1  0.078061  0  0.10429  0.107514  0  0.998099  0
H  H15  1  0.32275314  0.51500048  0.87294995  1  0.070058  0  0.102268  0.102512  0  1.017408  0
H  H16  1  0.32686415  0.88599309  0.57515695  1  0.054139  0  0.101763  0.104018  0  1.021993  0
H  H17  1  0.07158987  0.17264541  0.59905435  1  0.015573  0  0.079082  0.1007  0  1.01521  0
H  H18  1  0.15901287  0.19290359  0.51701938  1  0.060703  0  0.082188  0.115461  0  1.02476  0
H  H19  1  0.11265078  0.04434253  0.54585948  1  -0.001836  0  0.083876  0.113207  0  1.012857  0
H  H20  1  0.27762993  0.06598729  0.64829654  1  0.024281  0  0.090023  0.084112  0  0.978383  0
H  H21  1  0.32223181  0.21369143  0.61957941  1  0.036803  0  0.090711  0.091704  0  0.991844  0
H  H22  1  0.17915414  0.92218876  0.41584809  1  0.02991  0  0.091017  0.125018  0  0.991736  0
H  H23  1  0.01282838  0.86102831  0.43002795  1  0.012346  0  0.07781  0.095475  0  1.059931  0
H  H24  1  0.15680095  0.80598100  0.47912280  1  0.034265  0  0.082936  0.115189  0  1.033473  0
H  H25  1  0.26202840  0.72066159  0.36963036  1  0.035157  0  0.096767  0.101585  0  0.983464  0
H  H26  1  0.12606788  0.77774659  0.31769751  1  0.013272  0  0.092704  0.084025  0  0.969092  0
H  H27  1  0.26725595  0.34672248  0.09590643  1  0.641594  0  0.303411  0.31817  0  1.022011  0
H  H28  1  0.17703399  0.39138640  0.24258150  1  0.623498  0  0.328811  0.361538  0  0.902169  0
H  H29  1  0.41170358  0.74323077  0.68355132  1  0.040717  0  0.088059  0.123121  0  1.009831  0
H  H30  1  0.25574082  0.80715064  0.71493991  1  0.016349  0  0.086395  0.112681  0  1.002421  0
H  H31  1  0.39547878  0.78362496  0.77409013  1  0.038994  0  0.084536  0.109843  0  1.003041  0
H  H32  1  0.23000196  0.58234932  0.69834305  1  0.079955  0  0.091595  0.093941  0  1.007049  0
H  H33  1  0.20922685  0.62329019  0.78831284  1  0.018834  0  0.091071  0.085805  0  0.977234  0
C  C34  1  0.49727289  0.74413142  0.49843115  1  1.564038  0  0.216417  0.599895  0  4.173598  0
C  C35  1  0.48977336  0.43364816  0.28927868  1  -0.009166  0  -0.019973  -0.114726  0  3.93132  0
C  C36  1  0.50443037  0.36735355  0.93191606  1  0.927148  0  0.241593  0.2485  0  3.996674  0
C  C37  1  0.50321377  0.34960685  0.06807494  1  0.943971  0  0.237242  0.261835  0  3.995538  0
C  C38  1  0.61230964  0.37479683  0.81226736  1  -0.03573  0  -0.084297  -0.111992  0  3.983006  0
C  C39  1  0.60653335  0.41449360  0.74272684  1  -0.001993  0  -0.084154  -0.09141  0  3.990369  0
C  C40  1  0.49892877  0.48882529  0.71887657  1  -0.031813  0  -0.003735  -0.058334  0  3.882285  0
C  C41  1  0.39582963  0.52899920  0.76610772  1  0.018624  0  0.003225  0.117414  0  3.906378  0
C  C42  1  0.40191819  0.48699497  0.83549465  1  -0.033989  0  -0.084069  -0.172895  0  3.943866  0
C  C43  1  0.50723782  0.40937967  0.85889477  1  -0.028118  0  -0.011353  0.015138  0  4.045243  0
C  C44  1  0.59879211  0.95168136  0.47261792  1  -0.010739  0  -0.011169  0.052328  0  3.909234  0
C  C45  1  0.49251081  0.46986217  0.36578528  1  1.592348  0  0.214298  0.601969  0  4.164866  0
C  C46  1  0.50059449  0.87890853  0.50542639  1  0.005141  0  -0.018925  -0.077421  0  4.008298  0
C  C47  1  0.40296033  0.94066862  0.54712818  1  -0.058977  0  -0.087169  -0.163529  0  3.959684  0
C  C48  1  0.39931062  0.06763713  0.55461725  1  -0.029151  0  -0.002605  0.099575  0  3.92346  0
C  C49  1  0.49841819  0.13953492  0.51886913  1  -0.00998  0  -0.011978  -0.121654  0  3.942776  0
C  C50  1  0.59780786  0.07785252  0.47989818  1  0.019706  0  -0.01086  0.053711  0  3.915362  0
C  C51  1  0.72197079  0.09573628  0.43240195  1  -0.032017  0  -0.152544  -0.192735  0  3.870969  0
C  C52  1  0.72214867  0.95241386  0.42374193  1  0.009839  0  -0.154016  -0.196921  0  3.891926  0
C  C53  1  0.06516353  0.56205182  0.45107298  1  0.637755  0  0.150693  0.168901  0  3.816704  0
C  C54  1  0.06627343  0.46615721  0.55648041  1  0.490254  0  0.064813  0.041056  0  3.874477  0
C  C55  1  0.92291633  0.46559788  0.55683629  1  0.44682  0  0.064572  0.042157  0  3.877615  0
C  C56  1  0.49646282  0.27525858  0.51719984  1  1.546382  0  0.217655  0.606731  0  4.172035  0
C  C57  1  0.92160692  0.56198774  0.45185276  1  0.482136  0  0.148099  0.205956  0  3.87362  0
C  C58  1  0.90931521  0.62441221  0.38143630  1  -0.012148  0  -0.14067  -0.269701  0  3.797595  0
C  C59  1  0.07378845  0.62196169  0.37896783  1  -0.065357  0  -0.067344  -0.03941  0  3.781038  0
C  C60  1  0.49341907  0.51398470  0.64095193  1  1.597269  0  0.214946  0.594006  0  4.185218  0
C  C61  1  0.61644692  0.42118470  0.25315898  1  0.067536  0  -0.1002  -0.112902  0  4.049836  0
C  C62  1  0.62318909  0.39141921  0.18244195  1  -0.056687  0  -0.101442  -0.126427  0  4.046805  0
C  C63  1  0.50069702  0.37234037  0.14347995  1  -0.075606  0  -0.027145  -0.104396  0  4.063136  0
C  C64  1  0.37363048  0.38141907  0.17897816  1  0.603675  0  0.078113  0.170469  0  4.054064  0
C  C65  1  0.36792171  0.41112481  0.25179055  1  0.471648  0  0.082175  0.197276  0  4.026469  0
C  C66  1  0.28928003  0.12334803  0.60102759  1  0.003204  0  -0.162249  -0.142939  0  3.976463  0
C  C67  1  0.14972367  0.13400488  0.56351537  1  -0.065076  0  -0.247468  -0.352513  0  3.970922  0
C  C68  1  0.15161389  0.74211014  0.37042975  1  0.043773  0  -0.159939  -0.113587  0  3.953445  0
C  C69  1  0.12262215  0.83779473  0.42705186  1  -0.067985  0  -0.250973  -0.363414  0  3.975831  0
C  C70  1  0.28433740  0.61746935  0.74502336  1  -0.033643  0  -0.162645  -0.150121  0  3.973587  0
C  C71  1  0.34032406  0.74512444  0.72847847  1  -0.070922  0  -0.2416  -0.345295  0  3.9482  0
N  N72  1  0.38173785  0.34264800  0.03295665  1  -0.63581  0  -0.159982  -0.15279  0  3.346025  0
N  N73  1  0.38114476  0.35326027  0.96370652  1  -0.564745  0  -0.16079  -0.148634  0  3.194352  0
N  N74  1  0.62343015  0.33388057  0.96461335  1  -0.479764  0  -0.146631  -0.139034  0  3.193382  0
N  N75  1  0.62342553  0.32622880  0.03361316  1  -0.54385  0  -0.149946  -0.139049  0  3.1892  0
N  N76  1  0.14076033  0.51420165  0.50247837  1  -1.228317  0  -0.287952  -0.172824  0  3.459663  0
N  N77  1  0.84714937  0.51350993  0.50332673  1  -1.215892  0  -0.287545  -0.177845  0  3.465869  0
O  O78  1  0.60847523  0.69078210  0.48032134  1  -1.15609  0  -0.318897  -0.54445  0  2.296638  0
O  O79  1  0.38309034  0.69126796  0.51136774  1  -1.169975  0  -0.313643  -0.544071  0  2.358462  0
O  O80  1  0.60847450  0.46117416  0.39702727  1  -1.16297  0  -0.316921  -0.550935  0  2.314004  0
O  O81  1  0.38138520  0.50735662  0.39382179  1  -1.158524  0  -0.309289  -0.532123  0  2.331834  0
O  O82  1  0.61052372  0.32985759  0.52760002  1  -1.162553  0  -0.318344  -0.547973  0  2.301606  0
O  O83  1  0.38209292  0.32548401  0.50214806  1  -1.15792  0  -0.30893  -0.53425  0  2.328998  0
O  O84  1  0.60511850  0.54283463  0.61026219  1  -1.16796  0  -0.320815  -0.558029  0  2.29084  0
O  O85  1  0.37706870  0.49787413  0.61136049  1  -1.163488  0  -0.310479  -0.548288  0  2.335482  0
O  O86  1  0.24914342  0.36303309  0.14815548  1  -1.162448  0  -0.3531  -0.448436  0  2.338747  0
O  O87  1  0.24001207  0.41475943  0.28101010  1  -1.112635  0  -0.337254  -0.407805  0  2.315654  0
