# generated using pymatgen
data_CdH20C26N6O5
_symmetry_space_group_name_H-M   'P 1'
_cell_length_a   9.08074317
_cell_length_b   10.08800659
_cell_length_c   14.71095702
_cell_angle_alpha   104.69999471
_cell_angle_beta   99.88344452
_cell_angle_gamma   108.35321642
_symmetry_Int_Tables_number   1
_chemical_formula_structural   CdH20C26N6O5
_chemical_formula_sum   'Cd2 H40 C52 N12 O10'
_cell_volume   1189.85828129
_cell_formula_units_Z   2
loop_
 _symmetry_equiv_pos_site_id
 _symmetry_equiv_pos_as_xyz
  1  'x, y, z'
loop_
 _atom_site_type_symbol
 _atom_site_label
 _atom_site_symmetry_multiplicity
 _atom_site_fract_x
 _atom_site_fract_y
 _atom_site_fract_z
 _atom_site_occupancy
 _atom_site_pbe_bader_spin_density
 _atom_site_pbe_cm5_charge
 _atom_site_pbe_ddec_charge
 _atom_site_pbe_ddec_spin_density
 _atom_site_pbe_ddec_sum_bond_order
 _atom_site_pbe_magmom
Cd  Cd0  1  0.01881051  0.18735016  0.27749838  1  0  0.772373  0.92537  0  2.157606  0
Cd  Cd1  1  0.98120733  0.81265068  0.72251432  1  0  0.77232  0.925289  0  2.157743  0
H  H2  1  0.38429230  0.72628135  0.54115705  1  0  0.327889  0.310891  0  0.930542  0
H  H3  1  0.61571487  0.27372097  0.45884185  1  0  0.32792  0.310923  0  0.930487  0
H  H4  1  0.06182903  0.14730176  0.90757575  1  0  0.308216  0.295818  0  0.991055  0
H  H5  1  0.93816523  0.85269581  0.09242848  1  0  0.308217  0.295772  0  0.990996  0
H  H6  1  0.61560479  0.15424207  0.04871381  1  0  0.098945  0.101589  0  1.052022  0
H  H7  1  0.38439625  0.84577095  0.95129031  1  0  0.098957  0.101634  0  1.051913  0
H  H8  1  0.37024364  0.20510038  0.27319757  1  0  0.102878  0.119163  0  1.037514  0
H  H9  1  0.62977132  0.79492310  0.72681383  1  0  0.102851  0.119021  0  1.037637  0
H  H10  1  0.38127068  0.13790523  0.92257172  1  0  0.104296  0.123638  0  1.014113  0
H  H11  1  0.61871994  0.86208553  0.07742419  1  0  0.104238  0.123583  0  1.014309  0
H  H12  1  0.90078211  0.19827197  0.03277398  1  0  0.133907  0.08925  0  1.0537  0
H  H13  1  0.09923604  0.80172667  0.96723634  1  0  0.133958  0.089291  0  1.053654  0
H  H14  1  0.94363964  0.66559111  0.16709413  1  0  0.098044  0.094071  0  1.039294  0
H  H15  1  0.05636494  0.33441020  0.83291384  1  0  0.098115  0.094239  0  1.039198  0
H  H16  1  0.29394519  0.92691832  0.44440449  1  0  0.110128  0.128482  0  0.998959  0
H  H17  1  0.70605191  0.07309009  0.55559300  1  0  0.110102  0.12842  0  0.998935  0
H  H18  1  0.96991909  0.43283302  0.18181527  1  0  0.10758  0.121834  0  1.018621  0
H  H19  1  0.03006920  0.56716655  0.81819206  1  0  0.107595  0.121914  0  1.018419  0
H  H20  1  0.33469426  0.45371989  0.48647904  1  0  0.13781  0.093964  0  1.007808  0
H  H21  1  0.66530874  0.54628017  0.51352380  1  0  0.137788  0.093898  0  1.007959  0
H  H22  1  0.81709765  0.20268461  0.38920706  1  0  0.274669  0.357433  0  1.001792  0
H  H23  1  0.18288775  0.79730713  0.61079390  1  0  0.274727  0.357461  0  1.001723  0
H  H24  1  0.99135631  0.23885701  0.47079058  1  0  0.272175  0.323023  0  1.050989  0
H  H25  1  0.00864127  0.76114053  0.52920515  1  0  0.272206  0.323131  0  1.050869  0
H  H26  1  0.78314416  0.48181979  0.35913029  1  0  0.108991  0.079739  0  1.020928  0
H  H27  1  0.21685373  0.51816342  0.64085289  1  0  0.108997  0.07981  0  1.020888  0
H  H28  1  0.88771415  0.92778348  0.48855416  1  0  0.114755  0.085477  0  1.024222  0
H  H29  1  0.11227753  0.07220406  0.51144132  1  0  0.114789  0.085498  0  1.024178  0
H  H30  1  0.68784759  0.93253544  0.35542495  1  0  0.106758  0.119664  0  1.030918  0
H  H31  1  0.31214888  0.06746209  0.64457271  1  0  0.106748  0.119688  0  1.030929  0
H  H32  1  0.56412558  0.46126237  0.22496278  1  0  0.099378  0.105808  0  1.060495  0
H  H33  1  0.43589059  0.53874321  0.77501857  1  0  0.099386  0.105719  0  1.060507  0
H  H34  1  0.47474658  0.90841280  0.26759139  1  0  0.106241  0.115747  0  1.021004  0
H  H35  1  0.52524481  0.09157699  0.73240852  1  0  0.106234  0.115732  0  1.020948  0
H  H36  1  0.43911450  0.47342210  0.09893158  1  0  0.102027  0.106412  0  1.040419  0
H  H37  1  0.56087697  0.52657405  0.90106055  1  0  0.10205  0.106452  0  1.040404  0
H  H38  1  0.22771551  0.47520429  0.97006895  1  0  0.106804  0.073477  0  1.007059  0
H  H39  1  0.77226349  0.52479139  0.02992451  1  0  0.106835  0.073494  0  1.007086  0
H  H40  1  0.26640954  0.89251066  0.13044033  1  0  0.106321  0.071784  0  1.017581  0
H  H41  1  0.73358875  0.10748267  0.86956090  1  0  0.106323  0.071747  0  1.017477  0
C  C42  1  0.65182626  0.19023356  0.23841536  1  0  0.206354  0.583935  0  4.199331  0
C  C43  1  0.34818219  0.80977530  0.76158272  1  0  0.206322  0.583764  0  4.199327  0
C  C44  1  0.50632455  0.18115369  0.16684462  1  0  -0.034203  -0.066674  0  4.010658  0
C  C45  1  0.49368498  0.81886723  0.83315763  1  0  -0.034161  -0.066505  0  4.010638  0
C  C46  1  0.50811580  0.16232903  0.06847330  1  0  -0.091711  -0.098318  0  3.994506  0
C  C47  1  0.49187638  0.83766290  0.93152364  1  0  -0.091696  -0.098371  0  3.994279  0
C  C48  1  0.37241453  0.19304994  0.19779668  1  0  -0.089013  -0.176974  0  3.971982  0
C  C49  1  0.62760204  0.80697794  0.80221495  1  0  -0.089023  -0.176885  0  3.971992  0
C  C50  1  0.37904695  0.15466676  0.99829238  1  0  -0.09535  -0.164774  0  3.981224  0
C  C51  1  0.62094338  0.84531099  0.00170405  1  0  -0.095294  -0.164759  0  3.981208  0
C  C52  1  0.24275643  0.18754812  0.12839808  1  0  0.077475  0.121444  0  4.081179  0
C  C53  1  0.75725635  0.81247855  0.87161499  1  0  0.077409  0.121418  0  4.081342  0
C  C54  1  0.24655481  0.16870974  0.02994523  1  0  0.094501  0.140832  0  4.027832  0
C  C55  1  0.75344969  0.83128828  0.97006083  1  0  0.09455  0.140863  0  4.027932  0
C  C56  1  0.01710181  0.18790476  0.04981372  1  0  0.162184  0.194503  0  3.930457  0
C  C57  1  0.98291481  0.81210797  0.95019947  1  0  0.162226  0.194511  0  3.930028  0
C  C58  1  0.09453750  0.94258753  0.29035031  1  0  0.194113  0.562396  0  4.21326  0
C  C59  1  0.90546725  0.05740818  0.70964859  1  0  0.19412  0.56231  0  4.213063  0
C  C60  1  0.11821544  0.80765737  0.30369784  1  0  -0.023771  -0.042965  0  4.000837  0
C  C61  1  0.88178294  0.19233925  0.69630462  1  0  -0.023708  -0.042783  0  4.000612  0
C  C62  1  0.02750462  0.66872310  0.23076842  1  0  -0.090207  -0.097761  0  4.006584  0
C  C63  1  0.97249265  0.33127353  0.76923664  1  0  -0.090305  -0.098032  0  4.006563  0
C  C64  1  0.22612755  0.81945658  0.38840200  1  0  -0.084826  -0.174303  0  3.947535  0
C  C65  1  0.77388132  0.18055341  0.61159768  1  0  -0.084802  -0.174285  0  3.947442  0
C  C66  1  0.04143273  0.53883472  0.23851821  1  0  -0.088906  -0.150863  0  3.972356  0
C  C67  1  0.95856608  0.46116306  0.76148721  1  0  -0.088963  -0.150983  0  3.972283  0
C  C68  1  0.23829769  0.68862961  0.39721856  1  0  0.094246  0.143501  0  4.003524  0
C  C69  1  0.76170830  0.31138471  0.60278629  1  0  0.094306  0.143573  0  4.003604  0
C  C70  1  0.14809031  0.54939862  0.32341449  1  0  0.087459  0.146201  0  4.037577  0
C  C71  1  0.85192282  0.45061380  0.67659012  1  0  0.087481  0.146211  0  4.037564  0
C  C72  1  0.28684978  0.50861038  0.44129066  1  0  0.161068  0.193238  0  3.959614  0
C  C73  1  0.71314641  0.49138940  0.55871141  1  0  0.161021  0.193246  0  3.959767  0
C  C74  1  0.75693165  0.57925158  0.35617503  1  0  0.037556  0.079181  0  4.008971  0
C  C75  1  0.24306116  0.42073598  0.64381921  1  0  0.037432  0.078895  0  4.009054  0
C  C76  1  0.81591423  0.82714309  0.42737339  1  0  0.046026  0.107583  0  3.944945  0
C  C77  1  0.18407409  0.17284750  0.57261817  1  0  0.046049  0.107797  0  3.944634  0
C  C78  1  0.69883277  0.82761293  0.35328194  1  0  -0.081918  -0.163707  0  3.921583  0
C  C79  1  0.30116509  0.17238236  0.64670869  1  0  -0.081999  -0.163964  0  3.921399  0
C  C80  1  0.63438640  0.56867388  0.28025132  1  0  -0.086528  -0.170261  0  3.932729  0
C  C81  1  0.36561181  0.43131928  0.71974103  1  0  -0.086496  -0.170016  0  3.932613  0
C  C82  1  0.60336540  0.69549145  0.27706126  1  0  0.009405  0.104597  0  3.97425  0
C  C83  1  0.39662943  0.30450162  0.72293344  1  0  0.009404  0.104601  0  3.974241  0
C  C84  1  0.47686875  0.69086153  0.19697471  1  0  0.008083  0.09867  0  3.973769  0
C  C85  1  0.52312458  0.30913360  0.80301746  1  0  0.008093  0.098644  0  3.973921  0
C  C86  1  0.42529835  0.80940172  0.20328984  1  0  -0.079644  -0.170124  0  3.930761  0
C  C87  1  0.57468890  0.19058895  0.79670841  1  0  -0.079646  -0.170118  0  3.930794  0
C  C88  1  0.40365731  0.56866769  0.11057121  1  0  -0.085556  -0.174555  0  3.934054  0
C  C89  1  0.59633522  0.43132522  0.88941982  1  0  -0.085547  -0.174564  0  3.933976  0
C  C90  1  0.28481087  0.56973644  0.03743212  1  0  0.040086  0.095272  0  4.002315  0
C  C91  1  0.71518087  0.43025431  0.96256118  1  0  0.040008  0.095224  0  4.00232  0
C  C92  1  0.30589563  0.79979847  0.12579331  1  0  0.039681  0.09318  0  3.996751  0
C  C93  1  0.69409888  0.20019679  0.87420308  1  0  0.039685  0.093243  0  3.996824  0
N  N94  1  0.18169533  0.43957244  0.35364707  1  0  -0.350155  -0.369008  0  3.430773  0
N  N95  1  0.81830671  0.56043724  0.64635047  1  0  -0.350171  -0.369001  0  3.4306  0
N  N96  1  0.32599147  0.65749532  0.47063981  1  0  -0.373538  -0.268293  0  3.582842  0
N  N97  1  0.67400398  0.34250550  0.52936168  1  0  -0.373549  -0.268301  0  3.58283  0
N  N98  1  0.09688406  0.19864932  0.13766604  1  0  -0.35917  -0.367386  0  3.461277  0
N  N99  1  0.90313319  0.80137429  0.86234766  1  0  -0.35921  -0.367486  0  3.460999  0
N  N100  1  0.10200960  0.17023768  0.98278562  1  0  -0.373428  -0.270338  0  3.59074  0
N  N101  1  0.89799512  0.82977013  0.01722141  1  0  -0.373472  -0.270234  0  3.590669  0
N  N102  1  0.84655967  0.70589728  0.42952076  1  0  -0.31468  -0.256089  0  3.425389  0
N  N103  1  0.15342867  0.29409336  0.57047353  1  0  -0.314569  -0.256012  0  3.425183  0
N  N104  1  0.23472187  0.68275307  0.04364949  1  0  -0.322296  -0.273357  0  3.340401  0
N  N105  1  0.76527450  0.31724117  0.95634625  1  0  -0.322264  -0.273328  0  3.340535  0
O  O106  1  0.76934027  0.17964350  0.20438584  1  0  -0.334729  -0.56209  0  2.256504  0
O  O107  1  0.23066077  0.82035429  0.79561574  1  0  -0.334718  -0.562043  0  2.256426  0
O  O108  1  0.64978809  0.20894876  0.32746629  1  0  -0.334946  -0.593949  0  2.196304  0
O  O109  1  0.35022111  0.79105909  0.67253443  1  0  -0.334921  -0.593855  0  2.196267  0
O  O110  1  0.18401032  0.06941512  0.35131136  1  0  -0.331149  -0.556745  0  2.165318  0
O  O111  1  0.81599245  0.93057517  0.64869119  1  0  -0.331156  -0.556711  0  2.165157  0
O  O112  1  0.98048236  0.92520772  0.21751882  1  0  -0.337392  -0.582275  0  2.226857  0
O  O113  1  0.01952457  0.07480004  0.78248164  1  0  -0.337452  -0.582278  0  2.22675  0
O  O114  1  0.91069261  0.17238259  0.40616034  1  0  -0.595301  -0.756405  0  2.210736  0
O  O115  1  0.08928883  0.82760140  0.59384027  1  0  -0.595342  -0.756458  0  2.21071  0
