# generated using pymatgen
data_Ag2H5C4NO4
_symmetry_space_group_name_H-M   'P 1'
_cell_length_a   6.88800402
_cell_length_b   9.45967670
_cell_length_c   19.54154487
_cell_angle_alpha   90.00001391
_cell_angle_beta   89.99989876
_cell_angle_gamma   89.99998619
_symmetry_Int_Tables_number   1
_chemical_formula_structural   Ag2H5C4NO4
_chemical_formula_sum   'Ag16 H40 C32 N8 O32'
_cell_volume   1273.29366966
_cell_formula_units_Z   8
loop_
 _symmetry_equiv_pos_site_id
 _symmetry_equiv_pos_as_xyz
  1  'x, y, z'
loop_
 _atom_site_type_symbol
 _atom_site_label
 _atom_site_symmetry_multiplicity
 _atom_site_fract_x
 _atom_site_fract_y
 _atom_site_fract_z
 _atom_site_occupancy
 _atom_site_hle17_bader_spin_density
 _atom_site_hle17_ddec_charge
 _atom_site_hle17_ddec_spin_density
 _atom_site_hle17_ddec_sum_bond_order
 _atom_site_hle17_magmom
 _atom_site_hse06_10hf_bader_spin_density
 _atom_site_hse06_10hf_ddec_charge
 _atom_site_hse06_10hf_ddec_spin_density
 _atom_site_hse06_10hf_ddec_sum_bond_order
 _atom_site_hse06_10hf_magmom
 _atom_site_hse06_bader_spin_density
 _atom_site_hse06_ddec_charge
 _atom_site_hse06_ddec_spin_density
 _atom_site_hse06_ddec_sum_bond_order
 _atom_site_hse06_magmom
 _atom_site_pbe_bader_spin_density
 _atom_site_pbe_cm5_charge
 _atom_site_pbe_ddec_charge
 _atom_site_pbe_ddec_spin_density
 _atom_site_pbe_ddec_sum_bond_order
 _atom_site_pbe_magmom
Ag  Ag0  1  0.13507135  0.55949279  0.42724206  1  0  0.616518  0  1.391359  0  0  0.503612  0  1.841293  0  0  0.538867  0  1.78183  0  0  0.426188  0.47919  0  1.882036  0
Ag  Ag1  1  0.63506759  0.55949160  0.07275764  1  0  0.616511  0  1.39128  0  0  0.503622  0  1.841211  0  0  0.538878  0  1.781758  0  0  0.426188  0.479196  0  1.88195  0
Ag  Ag2  1  0.13507150  0.94050699  0.92724247  1  0  0.616531  0  1.391325  0  0  0.503636  0  1.841251  0  0  0.538888  0  1.781793  0  0  0.426193  0.479212  0  1.881984  0
Ag  Ag3  1  0.36493193  0.05949259  0.42724247  1  0  0.616543  0  1.391305  0  0  0.503629  0  1.841246  0  0  0.538888  0  1.781782  0  0  0.426197  0.479204  0  1.881981  0
Ag  Ag4  1  0.86492831  0.44050772  0.57275744  1  0  0.616523  0  1.391287  0  0  0.503632  0  1.841213  0  0  0.538888  0  1.781748  0  0  0.426194  0.479208  0  1.881955  0
Ag  Ag5  1  0.36492772  0.44050680  0.92724236  1  0  0.616527  0  1.391331  0  0  0.503628  0  1.841257  0  0  0.538887  0  1.781796  0  0  0.426198  0.479204  0  1.882001  0
Ag  Ag6  1  0.86492962  0.05949246  0.07275754  1  0  0.616526  0  1.391294  0  0  0.503616  0  1.841251  0  0  0.53887  0  1.781791  0  0  0.426182  0.479192  0  1.881996  0
Ag  Ag7  1  0.63507064  0.94050792  0.57275754  1  0  0.616522  0  1.391321  0  0  0.503612  0  1.841269  0  0  0.538865  0  1.781811  0  0  0.426183  0.479187  0  1.882016  0
Ag  Ag8  1  0.94690815  0.42171944  0.13947847  1  0  0.567904  0  1.357611  0  0  0.433465  0  1.806348  0  0  0.470795  0  1.748022  0  0  0.41357  0.406433  0  1.848291  0
Ag  Ag9  1  0.44690644  0.42171954  0.36052153  1  0  0.56793  0  1.357597  0  0  0.433483  0  1.806331  0  0  0.470816  0  1.747999  0  0  0.413567  0.406447  0  1.848276  0
Ag  Ag10  1  0.94690696  0.07828182  0.63947883  1  0  0.567938  0  1.357629  0  0  0.433499  0  1.806361  0  0  0.47083  0  1.748032  0  0  0.413577  0.406466  0  1.848298  0
Ag  Ag11  1  0.55309442  0.92171753  0.13947862  1  0  0.567952  0  1.357596  0  0  0.43351  0  1.806344  0  0  0.470843  0  1.748016  0  0  0.413591  0.406473  0  1.848278  0
Ag  Ag12  1  0.05309297  0.57828213  0.86052154  1  0  0.567933  0  1.357578  0  0  0.433489  0  1.806294  0  0  0.47082  0  1.747964  0  0  0.413567  0.406451  0  1.848236  0
Ag  Ag13  1  0.55309032  0.57828309  0.63947796  1  0  0.567976  0  1.357626  0  0  0.433509  0  1.806383  0  0  0.470842  0  1.748056  0  0  0.413588  0.406478  0  1.848332  0
Ag  Ag14  1  0.05309271  0.92171763  0.36052169  1  0  0.567942  0  1.35759  0  0  0.433487  0  1.806326  0  0  0.470819  0  1.747996  0  0  0.413573  0.406449  0  1.848268  0
Ag  Ag15  1  0.44690670  0.07828087  0.86052088  1  0  0.567939  0  1.357599  0  0  0.433486  0  1.80633  0  0  0.470811  0  1.748  0  0  0.413568  0.40645  0  1.848272  0
H  H16  1  0.26733387  0.58644183  0.15021377  1  0  0.251757  0  0.918652  0  0  0.241685  0  0.978282  0  0  0.247623  0  0.974535  0  0  0.290115  0.2375  0  0.98103  0
H  H17  1  0.76733308  0.58644184  0.34978534  1  0  0.251773  0  0.918698  0  0  0.241678  0  0.978345  0  0  0.247615  0  0.974599  0  0  0.290108  0.237495  0  0.98108  0
H  H18  1  0.26733257  0.91355673  0.65021417  1  0  0.251766  0  0.918701  0  0  0.24168  0  0.978342  0  0  0.247617  0  0.974599  0  0  0.290107  0.237494  0  0.981092  0
H  H19  1  0.23266643  0.08644060  0.15021375  1  0  0.251763  0  0.918607  0  0  0.24172  0  0.978214  0  0  0.247659  0  0.974465  0  0  0.290136  0.237538  0  0.980954  0
H  H20  1  0.73266725  0.41355762  0.84978522  1  0  0.251784  0  0.918684  0  0  0.24169  0  0.97833  0  0  0.247627  0  0.974584  0  0  0.290115  0.237507  0  0.981065  0
H  H21  1  0.23266223  0.41355867  0.65021364  1  0  0.251858  0  0.918639  0  0  0.241805  0  0.97819  0  0  0.247746  0  0.974443  0  0  0.290155  0.237622  0  0.980938  0
H  H22  1  0.73266709  0.08644272  0.34978584  1  0  0.251769  0  0.918687  0  0  0.241666  0  0.978341  0  0  0.247603  0  0.974598  0  0  0.2901  0.237484  0  0.981078  0
H  H23  1  0.76733323  0.91355674  0.84978524  1  0  0.251787  0  0.918683  0  0  0.241703  0  0.978312  0  0  0.247635  0  0.974564  0  0  0.290113  0.237521  0  0.981049  0
H  H24  1  0.18776781  0.79733807  0.21452448  1  0  0.101022  0  0.94237  0  0  0.115707  0  1.010718  0  0  0.117833  0  1.008469  0  0  0.107198  0.113678  0  1.013277  0
H  H25  1  0.68776734  0.79733910  0.28547573  1  0  0.101046  0  0.942296  0  0  0.115724  0  1.010664  0  0  0.117852  0  1.008416  0  0  0.107197  0.113698  0  1.013219  0
H  H26  1  0.18776658  0.70266160  0.71452486  1  0  0.10104  0  0.942296  0  0  0.115726  0  1.010676  0  0  0.117854  0  1.008427  0  0  0.107206  0.113697  0  1.013243  0
H  H27  1  0.31223210  0.29733788  0.21452441  1  0  0.101016  0  0.94236  0  0  0.115707  0  1.01071  0  0  0.117833  0  1.008461  0  0  0.107199  0.113678  0  1.013277  0
H  H28  1  0.81223331  0.20266033  0.78547604  1  0  0.101047  0  0.942312  0  0  0.115722  0  1.010684  0  0  0.117851  0  1.008436  0  0  0.107186  0.113691  0  1.013246  0
H  H29  1  0.31222797  0.20266458  0.71452377  1  0  0.101023  0  0.942332  0  0  0.115721  0  1.010684  0  0  0.117846  0  1.008434  0  0  0.107229  0.113693  0  1.013242  0
H  H30  1  0.81223309  0.29733891  0.28547617  1  0  0.101051  0  0.942294  0  0  0.11573  0  1.010668  0  0  0.117858  0  1.00842  0  0  0.107191  0.113699  0  1.013229  0
H  H31  1  0.68776611  0.70266051  0.78547611  1  0  0.101043  0  0.942276  0  0  0.115722  0  1.01066  0  0  0.11785  0  1.008412  0  0  0.107191  0.113692  0  1.013222  0
H  H32  1  0.94328132  0.74628657  0.21008856  1  0  0.102183  0  0.944479  0  0  0.119556  0  1.004432  0  0  0.120328  0  1.00501  0  0  0.111283  0.118808  0  1.004421  0
H  H33  1  0.44327996  0.74628770  0.28991199  1  0  0.102172  0  0.944466  0  0  0.119539  0  1.004447  0  0  0.120312  0  1.005026  0  0  0.111275  0.118791  0  1.004443  0
H  H34  1  0.94327862  0.75371401  0.71008844  1  0  0.102153  0  0.944475  0  0  0.119538  0  1.004449  0  0  0.120309  0  1.005027  0  0  0.111278  0.118791  0  1.004437  0
H  H35  1  0.55671949  0.24628538  0.21008763  1  0  0.102173  0  0.944486  0  0  0.119549  0  1.004448  0  0  0.120321  0  1.005026  0  0  0.111287  0.1188  0  1.004439  0
H  H36  1  0.05672124  0.25371182  0.78991247  1  0  0.102171  0  0.94447  0  0  0.11954  0  1.004446  0  0  0.120313  0  1.005025  0  0  0.111268  0.11879  0  1.004444  0
H  H37  1  0.55671534  0.25371493  0.71008751  1  0  0.102149  0  0.944526  0  0  0.119533  0  1.004485  0  0  0.120306  0  1.005064  0  0  0.111256  0.118784  0  1.004474  0
H  H38  1  0.05672249  0.24628755  0.28991208  1  0  0.102152  0  0.9445  0  0  0.119525  0  1.004478  0  0  0.120298  0  1.005056  0  0  0.111269  0.118774  0  1.004478  0
H  H39  1  0.44327727  0.75371197  0.78991238  1  0  0.102158  0  0.944467  0  0  0.119534  0  1.004452  0  0  0.120307  0  1.005031  0  0  0.11128  0.118783  0  1.004449  0
H  H40  1  0.21557007  0.80811747  0.09177624  1  0  0.091422  0  0.939959  0  0  0.102853  0  1.015726  0  0  0.105918  0  1.011683  0  0  0.100277  0.100004  0  1.019621  0
H  H41  1  0.71557044  0.80811751  0.40822395  1  0  0.091438  0  0.939929  0  0  0.102858  0  1.015721  0  0  0.105924  0  1.011676  0  0  0.100272  0.10001  0  1.019614  0
H  H42  1  0.21556739  0.69188213  0.59177663  1  0  0.091448  0  0.939948  0  0  0.102864  0  1.015741  0  0  0.105928  0  1.011699  0  0  0.100272  0.100012  0  1.019644  0
H  H43  1  0.28443190  0.30811624  0.09177619  1  0  0.091436  0  0.939954  0  0  0.102856  0  1.015752  0  0  0.105921  0  1.011708  0  0  0.100273  0.100006  0  1.019652  0
H  H44  1  0.78443250  0.19188304  0.90822376  1  0  0.091456  0  0.939917  0  0  0.102873  0  1.015723  0  0  0.105938  0  1.011679  0  0  0.100283  0.100024  0  1.019622  0
H  H45  1  0.28443067  0.19188406  0.59177606  1  0  0.091441  0  0.939959  0  0  0.102862  0  1.01575  0  0  0.105927  0  1.011707  0  0  0.100273  0.100013  0  1.019646  0
H  H46  1  0.78443227  0.30811733  0.40822389  1  0  0.091415  0  0.939938  0  0  0.102829  0  1.015751  0  0  0.105894  0  1.011705  0  0  0.100268  0.099979  0  1.019649  0
H  H47  1  0.71556921  0.69188216  0.90822381  1  0  0.091439  0  0.939944  0  0  0.10286  0  1.015727  0  0  0.105925  0  1.011683  0  0  0.100272  0.100012  0  1.019618  0
H  H48  1  0.96687337  0.76103123  0.08436257  1  0  0.0831  0  0.954952  0  0  0.091139  0  1.038623  0  0  0.093762  0  1.034461  0  0  0.101418  0.089215  0  1.04168  0
H  H49  1  0.46687284  0.76103136  0.41563797  1  0  0.08314  0  0.954988  0  0  0.091202  0  1.038603  0  0  0.093824  0  1.034443  0  0  0.101433  0.089277  0  1.041669  0
H  H50  1  0.96687213  0.73896929  0.58436244  1  0  0.083166  0  0.954978  0  0  0.091223  0  1.03859  0  0  0.093845  0  1.034429  0  0  0.101439  0.089302  0  1.041645  0
H  H51  1  0.53312807  0.26103109  0.08436268  1  0  0.083121  0  0.95502  0  0  0.091165  0  1.038679  0  0  0.093788  0  1.034516  0  0  0.101429  0.089245  0  1.041744  0
H  H52  1  0.03312919  0.23896823  0.91563744  1  0  0.083187  0  0.954974  0  0  0.091226  0  1.038631  0  0  0.09385  0  1.034468  0  0  0.101445  0.089307  0  1.041696  0
H  H53  1  0.53312682  0.23896915  0.58436306  1  0  0.0831  0  0.954952  0  0  0.091142  0  1.038625  0  0  0.093765  0  1.034463  0  0  0.10141  0.089217  0  1.041686  0
H  H54  1  0.03313044  0.26103228  0.41563756  1  0  0.083168  0  0.954973  0  0  0.091222  0  1.038593  0  0  0.093843  0  1.034433  0  0  0.101433  0.0893  0  1.041656  0
H  H55  1  0.46687160  0.73896730  0.91563784  1  0  0.083164  0  0.954962  0  0  0.091211  0  1.038591  0  0  0.093833  0  1.034431  0  0  0.101429  0.08929  0  1.041651  0
C  C56  1  0.12419920  0.61458660  0.27420145  1  0  0.673589  0  3.862987  0  0  0.621826  0  4.154982  0  0  0.656264  0  4.151206  0  0  0.202634  0.59785  0  4.156961  0
C  C57  1  0.62419758  0.61458760  0.22579877  1  0  0.673603  0  3.862998  0  0  0.62186  0  4.15498  0  0  0.656301  0  4.151202  0  0  0.202661  0.597874  0  4.156969  0
C  C58  1  0.12419646  0.88541205  0.77420134  1  0  0.673542  0  3.863036  0  0  0.621863  0  4.154937  0  0  0.656301  0  4.15116  0  0  0.202664  0.597879  0  4.156923  0
C  C59  1  0.37580338  0.11458746  0.27420134  1  0  0.673586  0  3.862967  0  0  0.621853  0  4.154929  0  0  0.656293  0  4.151151  0  0  0.202655  0.597864  0  4.156924  0
C  C60  1  0.87580191  0.38541180  0.72579856  1  0  0.673594  0  3.862954  0  0  0.621872  0  4.154903  0  0  0.656312  0  4.151125  0  0  0.202649  0.597891  0  4.156888  0
C  C61  1  0.37579918  0.38541397  0.77420123  1  0  0.673671  0  3.862864  0  0  0.621916  0  4.154865  0  0  0.656357  0  4.151085  0  0  0.202668  0.597929  0  4.156857  0
C  C62  1  0.87580320  0.11458740  0.22579867  1  0  0.673583  0  3.863025  0  0  0.621846  0  4.154999  0  0  0.656285  0  4.151222  0  0  0.202641  0.59786  0  4.156992  0
C  C63  1  0.62419629  0.88541199  0.72579867  1  0  0.673497  0  3.863069  0  0  0.621812  0  4.154976  0  0  0.656251  0  4.151202  0  0  0.202645  0.597837  0  4.156953  0
C  C64  1  0.09152805  0.70395962  0.21070444  1  0  -0.139792  0  3.648781  0  0  -0.193516  0  3.891526  0  0  -0.195794  0  3.903145  0  0  -0.080279  -0.191372  0  3.883282  0
C  C65  1  0.59152756  0.70396065  0.28929531  1  0  -0.139797  0  3.64877  0  0  -0.193541  0  3.891487  0  0  -0.195829  0  3.903115  0  0  -0.080284  -0.191395  0  3.883247  0
C  C66  1  0.09152679  0.79604006  0.71070483  1  0  -0.139706  0  3.648686  0  0  -0.193505  0  3.891452  0  0  -0.195784  0  3.903068  0  0  -0.080296  -0.19136  0  3.883213  0
C  C67  1  0.40847191  0.20395942  0.21070431  1  0  -0.139753  0  3.648719  0  0  -0.193511  0  3.891497  0  0  -0.195789  0  3.903115  0  0  -0.08028  -0.191364  0  3.883257  0
C  C68  1  0.90847306  0.29603878  0.78929557  1  0  -0.139774  0  3.648741  0  0  -0.193541  0  3.891491  0  0  -0.195831  0  3.903123  0  0  -0.080249  -0.191396  0  3.883249  0
C  C69  1  0.40846920  0.29604197  0.71070419  1  0  -0.139676  0  3.648722  0  0  -0.193484  0  3.89151  0  0  -0.195763  0  3.903139  0  0  -0.080299  -0.191331  0  3.883256  0
C  C70  1  0.90847432  0.20396045  0.28929569  1  0  -0.139757  0  3.64874  0  0  -0.193535  0  3.891504  0  0  -0.195822  0  3.903129  0  0  -0.080266  -0.191389  0  3.883263  0
C  C71  1  0.59152630  0.79603898  0.78929570  1  0  -0.139688  0  3.648645  0  0  -0.193508  0  3.891455  0  0  -0.195804  0  3.903076  0  0  -0.080266  -0.191361  0  3.883212  0
C  C72  1  0.16266090  0.64265303  0.02114263  1  0  0.68124  0  3.854918  0  0  0.631345  0  4.140557  0  0  0.666588  0  4.136294  0  0  0.204377  0.606986  0  4.142522  0
C  C73  1  0.66265946  0.64265627  0.47885859  1  0  0.681189  0  3.854965  0  0  0.63131  0  4.14059  0  0  0.666547  0  4.136332  0  0  0.204297  0.606956  0  4.142551  0
C  C74  1  0.16266107  0.85734654  0.52114303  1  0  0.681356  0  3.854748  0  0  0.631362  0  4.140532  0  0  0.666617  0  4.136252  0  0  0.204374  0.607007  0  4.142495  0
C  C75  1  0.33734293  0.14265601  0.02114102  1  0  0.681191  0  3.855044  0  0  0.631333  0  4.140604  0  0  0.666558  0  4.136358  0  0  0.20429  0.606974  0  4.142578  0
C  C76  1  0.83734167  0.35734431  0.97885789  1  0  0.681205  0  3.854991  0  0  0.631365  0  4.140554  0  0  0.66659  0  4.136306  0  0  0.20436  0.60701  0  4.142526  0
C  C77  1  0.33734310  0.35734530  0.52114142  1  0  0.681268  0  3.854824  0  0  0.631385  0  4.140444  0  0  0.666621  0  4.136183  0  0  0.204301  0.607025  0  4.142416  0
C  C78  1  0.83734440  0.14265503  0.47885851  1  0  0.6812  0  3.85496  0  0  0.631332  0  4.140561  0  0  0.666562  0  4.13631  0  0  0.204287  0.606981  0  4.142524  0
C  C79  1  0.66265673  0.85734344  0.97885899  1  0  0.681169  0  3.854959  0  0  0.631317  0  4.140514  0  0  0.666542  0  4.136268  0  0  0.204287  0.606955  0  4.142487  0
C  C80  1  0.11436371  0.71720423  0.08772388  1  0  -0.128677  0  3.65728  0  0  -0.182397  0  3.905763  0  0  -0.184259  0  3.915034  0  0  -0.076814  -0.180604  0  3.89898  0
C  C81  1  0.61436261  0.71720532  0.41227688  1  0  -0.128714  0  3.657307  0  0  -0.182485  0  3.905831  0  0  -0.184345  0  3.9151  0  0  -0.076817  -0.180699  0  3.899073  0
C  C82  1  0.11436245  0.78279539  0.58772376  1  0  -0.128788  0  3.657309  0  0  -0.182518  0  3.905865  0  0  -0.184383  0  3.915132  0  0  -0.076829  -0.180721  0  3.899082  0
C  C83  1  0.38563831  0.21720403  0.08772325  1  0  -0.128679  0  3.657353  0  0  -0.182446  0  3.90588  0  0  -0.184303  0  3.915155  0  0  -0.076801  -0.180633  0  3.899052  0
C  C84  1  0.88563886  0.28279523  0.91227664  1  0  -0.128789  0  3.657424  0  0  -0.182571  0  3.90592  0  0  -0.184427  0  3.915188  0  0  -0.076844  -0.18076  0  3.899089  0
C  C85  1  0.38563706  0.28279731  0.58772313  1  0  -0.12863  0  3.657238  0  0  -0.182391  0  3.905694  0  0  -0.184249  0  3.914971  0  0  -0.076804  -0.180589  0  3.898888  0
C  C86  1  0.88564012  0.21720512  0.41227676  1  0  -0.128731  0  3.657353  0  0  -0.182509  0  3.905875  0  0  -0.184368  0  3.915148  0  0  -0.076829  -0.180697  0  3.89904  0
C  C87  1  0.61436280  0.78279543  0.91227675  1  0  -0.128719  0  3.657338  0  0  -0.182485  0  3.905836  0  0  -0.18435  0  3.915099  0  0  -0.076802  -0.180694  0  3.899051  0
N  N88  1  0.12794371  0.62407844  0.14769047  1  0  -0.361698  0  3.328497  0  0  -0.278  0  3.577602  0  0  -0.29891  0  3.592219  0  0  -0.493486  -0.26297  0  3.566587  0
N  N89  1  0.62794290  0.62407950  0.35230975  1  0  -0.361796  0  3.32858  0  0  -0.278012  0  3.57761  0  0  -0.298916  0  3.592221  0  0  -0.493472  -0.262981  0  3.566585  0
N  N90  1  0.12794242  0.87592121  0.64769036  1  0  -0.361804  0  3.328551  0  0  -0.278049  0  3.577635  0  0  -0.298961  0  3.592251  0  0  -0.493486  -0.263016  0  3.566617  0
N  N91  1  0.37205805  0.12407824  0.14768985  1  0  -0.361751  0  3.328389  0  0  -0.278067  0  3.577507  0  0  -0.298979  0  3.592123  0  0  -0.493519  -0.263035  0  3.56649  0
N  N92  1  0.87205741  0.37591996  0.85230954  1  0  -0.36178  0  3.328567  0  0  -0.277997  0  3.577597  0  0  -0.298899  0  3.592207  0  0  -0.49347  -0.262965  0  3.566577  0
N  N93  1  0.37205386  0.37592313  0.64768974  1  0  -0.362025  0  3.328685  0  0  -0.278252  0  3.577765  0  0  -0.29917  0  3.592386  0  0  -0.493517  -0.263222  0  3.566754  0
N  N94  1  0.87205870  0.12407930  0.35231016  1  0  -0.361785  0  3.328557  0  0  -0.277975  0  3.577574  0  0  -0.29888  0  3.592187  0  0  -0.493453  -0.262944  0  3.566553  0
N  N95  1  0.62794162  0.87592016  0.85231016  1  0  -0.361825  0  3.328596  0  0  -0.278046  0  3.577653  0  0  -0.298918  0  3.59223  0  0  -0.493477  -0.263016  0  3.566632  0
O  O96  1  0.06957074  0.67199767  0.33126093  1  0  -0.645507  0  2.154285  0  0  -0.54351  0  2.432455  0  0  -0.579953  0  2.420188  0  0  -0.337592  -0.517905  0  2.440315  0
O  O97  1  0.56956650  0.67199759  0.16873985  1  0  -0.645515  0  2.154263  0  0  -0.543518  0  2.432403  0  0  -0.579965  0  2.420137  0  0  -0.337614  -0.517911  0  2.440265  0
O  O98  1  0.06956512  0.82800313  0.83126082  1  0  -0.645513  0  2.154291  0  0  -0.543531  0  2.432384  0  0  -0.579972  0  2.420115  0  0  -0.337635  -0.517921  0  2.44024  0
O  O99  1  0.43043298  0.17199641  0.33126028  1  0  -0.645525  0  2.154289  0  0  -0.543538  0  2.432447  0  0  -0.579987  0  2.420185  0  0  -0.337626  -0.517928  0  2.440308  0
O  O100  1  0.93043473  0.32800284  0.66873908  1  0  -0.645559  0  2.154278  0  0  -0.543571  0  2.432404  0  0  -0.580013  0  2.420133  0  0  -0.337643  -0.517966  0  2.440267  0
O  O101  1  0.43042881  0.32800398  0.83126016  1  0  -0.64554  0  2.154257  0  0  -0.543527  0  2.432403  0  0  -0.579971  0  2.420136  0  0  -0.337591  -0.517917  0  2.440265  0
O  O102  1  0.93043600  0.17199844  0.16873919  1  0  -0.645534  0  2.154245  0  0  -0.543539  0  2.43239  0  0  -0.579982  0  2.420119  0  0  -0.337631  -0.517936  0  2.440259  0
O  O103  1  0.56956523  0.82800305  0.66873922  1  0  -0.645509  0  2.154323  0  0  -0.543516  0  2.432424  0  0  -0.579958  0  2.420155  0  0  -0.337634  -0.517919  0  2.440296  0
O  O104  1  0.20545935  0.49653182  0.26914194  1  0  -0.621014  0  2.027392  0  0  -0.558129  0  2.2904  0  0  -0.58611  0  2.278856  0  0  -0.312159  -0.538324  0  2.298957  0
O  O105  1  0.70546060  0.49653282  0.23085771  1  0  -0.621005  0  2.027387  0  0  -0.558127  0  2.290396  0  0  -0.586108  0  2.278852  0  0  -0.312144  -0.538315  0  2.298949  0
O  O106  1  0.20545818  0.00346752  0.76914230  1  0  -0.620998  0  2.027406  0  0  -0.558129  0  2.290374  0  0  -0.58611  0  2.278829  0  0  -0.312142  -0.538321  0  2.298927  0
O  O107  1  0.29454023  0.99653199  0.26914194  1  0  -0.621009  0  2.027369  0  0  -0.558128  0  2.290377  0  0  -0.586107  0  2.278831  0  0  -0.312145  -0.538315  0  2.298932  0
O  O108  1  0.79453741  0.50346552  0.73085653  1  0  -0.62101  0  2.027398  0  0  -0.558134  0  2.290395  0  0  -0.586115  0  2.27885  0  0  -0.312151  -0.538326  0  2.298951  0
O  O109  1  0.29454051  0.50346981  0.76914179  1  0  -0.62106  0  2.027406  0  0  -0.558172  0  2.290431  0  0  -0.586155  0  2.278887  0  0  -0.312163  -0.538363  0  2.29899  0
O  O110  1  0.79454148  0.99653510  0.23085669  1  0  -0.620988  0  2.02749  0  0  -0.558099  0  2.290493  0  0  -0.58608  0  2.278949  0  0  -0.312121  -0.538287  0  2.299046  0
O  O111  1  0.70546089  0.00346641  0.73085755  1  0  -0.620978  0  2.027434  0  0  -0.55811  0  2.290414  0  0  -0.586092  0  2.278872  0  0  -0.312135  -0.538301  0  2.298962  0
O  O112  1  0.27659086  0.53609758  0.02427438  1  0  -0.632775  0  2.148657  0  0  -0.54673  0  2.430198  0  0  -0.580979  0  2.418336  0  0  -0.327029  -0.52254  0  2.437449  0
O  O113  1  0.77659235  0.53609871  0.47572574  1  0  -0.632715  0  2.148529  0  0  -0.546679  0  2.430067  0  0  -0.580932  0  2.418216  0  0  -0.326988  -0.522483  0  2.437306  0
O  O114  1  0.27659245  0.96390197  0.52427479  1  0  -0.632833  0  2.148581  0  0  -0.546727  0  2.43014  0  0  -0.580984  0  2.418283  0  0  -0.32703  -0.522534  0  2.437385  0
O  O115  1  0.22340718  0.03609847  0.02427386  1  0  -0.632796  0  2.148574  0  0  -0.546754  0  2.430107  0  0  -0.581001  0  2.418257  0  0  -0.327016  -0.52256  0  2.43735  0
O  O116  1  0.72340735  0.46390081  0.97572614  1  0  -0.632716  0  2.148504  0  0  -0.546702  0  2.43003  0  0  -0.580964  0  2.418217  0  0  -0.327024  -0.52251  0  2.437272  0
O  O117  1  0.22340877  0.46390074  0.52427325  1  0  -0.632809  0  2.148603  0  0  -0.546736  0  2.4301  0  0  -0.580986  0  2.418242  0  0  -0.326999  -0.522546  0  2.437351  0
O  O118  1  0.72340866  0.03609854  0.47572624  1  0  -0.63275  0  2.148555  0  0  -0.546709  0  2.43007  0  0  -0.580959  0  2.418223  0  0  -0.327004  -0.522519  0  2.437311  0
O  O119  1  0.77659103  0.96390310  0.97572615  1  0  -0.632799  0  2.148488  0  0  -0.546755  0  2.430004  0  0  -0.581007  0  2.418167  0  0  -0.327033  -0.522563  0  2.437254  0
O  O120  1  0.09039957  0.69331357  0.96692664  1  0  -0.639291  0  2.149531  0  0  -0.558924  0  2.432637  0  0  -0.591985  0  2.420094  0  0  -0.32971  -0.535973  0  2.44055  0
O  O121  1  0.59040036  0.69331447  0.53307337  1  0  -0.639246  0  2.149643  0  0  -0.558881  0  2.432753  0  0  -0.591939  0  2.420209  0  0  -0.32966  -0.535935  0  2.440675  0
O  O122  1  0.09039935  0.80668730  0.46692677  1  0  -0.639318  0  2.14948  0  0  -0.558921  0  2.432647  0  0  -0.591988  0  2.420098  0  0  -0.329703  -0.535973  0  2.440564  0
O  O123  1  0.40959953  0.19331231  0.96692651  1  0  -0.639248  0  2.149712  0  0  -0.558885  0  2.432803  0  0  -0.591939  0  2.420264  0  0  -0.329654  -0.535941  0  2.440727  0
O  O124  1  0.90960009  0.30668694  0.03307388  1  0  -0.639258  0  2.149644  0  0  -0.558897  0  2.432719  0  0  -0.591951  0  2.420182  0  0  -0.329693  -0.535955  0  2.440641  0
O  O125  1  0.40960366  0.30668710  0.46692561  1  0  -0.639285  0  2.149542  0  0  -0.558927  0  2.43266  0  0  -0.591986  0  2.420113  0  0  -0.329679  -0.535978  0  2.440576  0
O  O126  1  0.90960467  0.19331216  0.53307375  1  0  -0.639243  0  2.149592  0  0  -0.558887  0  2.4327  0  0  -0.591942  0  2.420158  0  0  -0.329649  -0.535946  0  2.440616  0
O  O127  1  0.59040014  0.80668714  0.03307299  1  0  -0.639214  0  2.149679  0  0  -0.558864  0  2.432775  0  0  -0.591917  0  2.420235  0  0  -0.329648  -0.535913  0  2.440687  0
