# generated using pymatgen
data_ZnH12C11N3ClO2
_symmetry_space_group_name_H-M   'P 1'
_cell_length_a   8.42262878
_cell_length_b   12.53778805
_cell_length_c   16.80755228
_cell_angle_alpha   98.31526717
_cell_angle_beta   89.99988700
_cell_angle_gamma   89.99973599
_symmetry_Int_Tables_number   1
_chemical_formula_structural   ZnH12C11N3ClO2
_chemical_formula_sum   'Zn4 H48 C44 N12 Cl4 O8'
_cell_volume   1756.23761143
_cell_formula_units_Z   4
loop_
 _symmetry_equiv_pos_site_id
 _symmetry_equiv_pos_as_xyz
  1  'x, y, z'
loop_
 _atom_site_type_symbol
 _atom_site_label
 _atom_site_symmetry_multiplicity
 _atom_site_fract_x
 _atom_site_fract_y
 _atom_site_fract_z
 _atom_site_occupancy
 _atom_site_pbe_bader_charge
 _atom_site_pbe_bader_spin_density
 _atom_site_pbe_cm5_charge
 _atom_site_pbe_ddec_charge
 _atom_site_pbe_ddec_spin_density
 _atom_site_pbe_ddec_sum_bond_order
 _atom_site_pbe_magmom
Zn  Zn0  1  0.79648687  0.39850791  0.32724754  1  1.176067  0  0.630159  0.728533  0  2.55577  0
Zn  Zn1  1  0.29648989  0.10149171  0.17275399  1  1.176087  0  0.630124  0.728448  0  2.555794  0
Zn  Zn2  1  0.20351388  0.60148932  0.67275411  1  1.175991  0  0.630137  0.728414  0  2.555886  0
Zn  Zn3  1  0.70350967  0.89850955  0.82724573  1  1.175994  0  0.630135  0.728459  0  2.555875  0
H  H4  1  0.43097001  0.15027798  0.32963524  1  0.062849  0  0.096722  0.145746  0  1.014962  0
H  H5  1  0.93097385  0.34972361  0.17036577  1  0.062874  0  0.096714  0.145712  0  1.014994  0
H  H6  1  0.56902600  0.84972651  0.67036542  1  0.06288  0  0.096737  0.145771  0  1.014905  0
H  H7  1  0.06902927  0.65027443  0.82963359  1  0.062862  0  0.096746  0.145782  0  1.014906  0
H  H8  1  0.57924517  0.23873229  0.37722536  1  0.088727  0  0.099404  0.153235  0  1.016502  0
H  H9  1  0.07924966  0.26126807  0.12277588  1  0.088749  0  0.099406  0.153224  0  1.016466  0
H  H10  1  0.42074964  0.76127139  0.62277522  1  0.088507  0  0.09943  0.153294  0  1.016464  0
H  H11  1  0.92075346  0.73872916  0.87722459  1  0.088485  0  0.09941  0.153277  0  1.01647  0
H  H12  1  0.63435320  0.12263935  0.30971691  1  0.043038  0  0.100494  0.154108  0  0.987095  0
H  H13  1  0.13435664  0.37736002  0.19028595  1  0.042975  0  0.100463  0.154066  0  0.987055  0
H  H14  1  0.36564280  0.87736272  0.69028647  1  0.042929  0  0.100442  0.154052  0  0.987133  0
H  H15  1  0.86564649  0.62263640  0.80971681  1  0.042973  0  0.100457  0.154043  0  0.987142  0
H  H16  1  0.32675570  0.26222599  0.03228181  1  0.115945  0  0.108009  0.137145  0  1.024388  0
H  H17  1  0.82675680  0.23777676  0.46772003  1  0.115912  0  0.108  0.137104  0  1.024434  0
H  H18  1  0.67324624  0.73777366  0.96771892  1  0.115941  0  0.108026  0.137107  0  1.024441  0
H  H19  1  0.17324514  0.76222531  0.53228216  1  0.115936  0  0.107991  0.1371  0  1.024407  0
H  H20  1  0.71171745  0.53111685  0.17755330  1  0.128285  0  0.105016  0.140954  0  1.012263  0
H  H21  1  0.21171619  0.96888361  0.32244588  1  0.128279  0  0.105004  0.140923  0  1.01229  0
H  H22  1  0.28828687  0.46888443  0.82244285  1  0.128292  0  0.104965  0.140855  0  1.012233  0
H  H23  1  0.78827625  0.03111282  0.67755450  1  0.128257  0  0.10501  0.140941  0  1.012306  0
H  H24  1  0.78286559  0.55567641  0.47970402  1  0.112364  0  0.119053  0.053249  0  1.016132  0
H  H25  1  0.28287991  0.94432622  0.02029592  1  0.112355  0  0.119056  0.053294  0  1.016089  0
H  H26  1  0.21712685  0.44432324  0.52029611  1  0.112346  0  0.119061  0.053309  0  1.016132  0
H  H27  1  0.71712915  0.05567989  0.97970314  1  0.11231  0  0.119068  0.053333  0  1.016115  0
H  H28  1  0.58002575  0.33160728  0.55090969  1  0.07209  0  0.115049  0.133412  0  0.98914  0
H  H29  1  0.08002963  0.16839309  0.94908762  1  0.07205  0  0.115009  0.133346  0  0.989133  0
H  H30  1  0.41997025  0.66839318  0.44908994  1  0.072083  0  0.115074  0.133434  0  0.989187  0
H  H31  1  0.91996874  0.83160577  0.05090886  1  0.072044  0  0.115067  0.133438  0  0.989175  0
H  H32  1  0.52454736  0.41500754  0.64253829  1  0.081517  0  0.110958  0.128106  0  0.988364  0
H  H33  1  0.02455454  0.08498979  0.85746112  1  0.081561  0  0.110992  0.128154  0  0.988319  0
H  H34  1  0.47544864  0.58499211  0.35746304  1  0.08154  0  0.110981  0.128129  0  0.988363  0
H  H35  1  0.97544621  0.91500745  0.14253637  1  0.081581  0  0.110966  0.128122  0  0.988257  0
H  H36  1  0.71423066  0.35006384  0.63451749  1  0.093144  0  0.114946  0.137299  0  0.96407  0
H  H37  1  0.21423380  0.14993527  0.86548013  1  0.093072  0  0.114987  0.137358  0  0.964155  0
H  H38  1  0.28576772  0.64993662  0.36548273  1  0.093122  0  0.114943  0.137288  0  0.964069  0
H  H39  1  0.78576339  0.85006520  0.13451652  1  0.09311  0  0.114962  0.137325  0  0.964086  0
H  H40  1  0.82154912  0.55149468  0.67189838  1  0.08693  0  0.096781  0.117825  0  1.038538  0
H  H41  1  0.32155274  0.94849895  0.82810018  1  0.086963  0  0.096802  0.117861  0  1.038485  0
H  H42  1  0.17844688  0.44850416  0.32810167  1  0.086923  0  0.096774  0.117833  0  1.038523  0
H  H43  1  0.67845157  0.05149909  0.17189800  1  0.086989  0  0.096793  0.117846  0  1.038577  0
H  H44  1  0.62277492  0.60165645  0.66582470  1  0.070995  0  0.103494  0.123195  0  1.028348  0
H  H45  1  0.12277054  0.89834349  0.83417832  1  0.070552  0  0.103482  0.123179  0  1.028245  0
H  H46  1  0.37722346  0.39834400  0.33417672  1  0.071032  0  0.10349  0.123221  0  1.028351  0
H  H47  1  0.87722902  0.10165375  0.16582155  1  0.070515  0  0.103551  0.123293  0  1.028246  0
H  H48  1  0.77519882  0.64066743  0.60144683  1  0.073365  0  0.110554  0.12941  0  0.991799  0
H  H49  1  0.27519683  0.85932958  0.89855572  1  0.073292  0  0.110548  0.12939  0  0.991749  0
H  H50  1  0.22479956  0.35933222  0.39855450  1  0.073333  0  0.110558  0.129408  0  0.991784  0
H  H51  1  0.72480748  0.14067007  0.10144620  1  0.073376  0  0.110525  0.129385  0  0.991828  0
C  C52  1  0.53908094  0.25253489  0.25357666  1  0.968414  0  0.206714  0.402237  0  4.007588  0
C  C53  1  0.03907912  0.24746561  0.24642463  1  0.968457  0  0.206764  0.402211  0  4.007747  0
C  C54  1  0.46092100  0.74746638  0.74642306  1  0.968389  0  0.206718  0.402219  0  4.007729  0
C  C55  1  0.96091570  0.75253243  0.75357711  1  0.968373  0  0.206713  0.402238  0  4.007777  0
C  C56  1  0.54623913  0.18783307  0.32109150  1  -0.041476  0  -0.235797  -0.477565  0  3.932685  0
C  C57  1  0.04624069  0.31216820  0.17890987  1  -0.041444  0  -0.23577  -0.477456  0  3.932535  0
C  C58  1  0.45375450  0.81216980  0.67891018  1  -0.041187  0  -0.235795  -0.477598  0  3.932619  0
C  C59  1  0.95375650  0.68782983  0.82109068  1  -0.041207  0  -0.235794  -0.477586  0  3.932662  0
C  C60  1  0.58215389  0.38031367  0.17993093  1  0.391228  0  0.068852  0.138403  0  4.121575  0
C  C61  1  0.08215385  0.11968508  0.32006954  1  0.391672  0  0.068858  0.138327  0  4.121581  0
C  C62  1  0.41785279  0.61968518  0.82006793  1  0.39109  0  0.068767  0.138181  0  4.121555  0
C  C63  1  0.91784452  0.88030974  0.67993067  1  0.391087  0  0.068793  0.138286  0  4.121708  0
C  C64  1  0.47429954  0.30463236  0.13910794  1  0.396987  0  0.067728  0.136799  0  4.116786  0
C  C65  1  0.97430016  0.19536829  0.36089174  1  0.397069  0  0.067771  0.1369  0  4.116754  0
C  C66  1  0.52570358  0.69536891  0.86089059  1  0.396929  0  0.067753  0.136779  0  4.116853  0
C  C67  1  0.02569822  0.80462814  0.63910745  1  0.397243  0  0.067721  0.136795  0  4.116783  0
C  C68  1  0.41040628  0.31882507  0.06456035  1  0.003586  0  -0.110595  -0.271167  0  4.014288  0
C  C69  1  0.91040671  0.18117821  0.43544028  1  0.003512  0  -0.110601  -0.271159  0  4.014234  0
C  C70  1  0.58959684  0.68117620  0.93543759  1  0.003391  0  -0.110606  -0.27102  0  4.014243  0
C  C71  1  0.08959285  0.81882386  0.56456012  1  0.003488  0  -0.110574  -0.271098  0  4.014236  0
C  C72  1  0.45625276  0.40999902  0.03249991  1  0.420029  0  0.063032  0.138012  0  4.084925  0
C  C73  1  0.95625488  0.09000249  0.46750107  1  0.420137  0  0.063045  0.13803  0  4.084816  0
C  C74  1  0.54374917  0.59000144  0.96749793  1  0.41972  0  0.063028  0.137892  0  4.08483  0
C  C75  1  0.04374587  0.90999797  0.53249975  1  0.419748  0  0.063032  0.13805  0  4.084845  0
C  C76  1  0.56446686  0.48529404  0.07306288  1  0.448792  0  0.067102  0.147858  0  4.075989  0
C  C77  1  0.06446951  0.01470476  0.42693820  1  0.448758  0  0.06706  0.147814  0  4.075986  0
C  C78  1  0.43553508  0.51470481  0.92693598  1  0.449324  0  0.067096  0.147865  0  4.076015  0
C  C79  1  0.93553006  0.98529327  0.57306533  1  0.449624  0  0.067023  0.14771  0  4.076172  0
C  C80  1  0.62920902  0.47174403  0.14700668  1  -0.010245  0  -0.113023  -0.277466  0  4.005229  0
C  C81  1  0.12920830  0.02825455  0.35299371  1  -0.010132  0  -0.113037  -0.277408  0  4.00521  0
C  C82  1  0.37079647  0.52825482  0.85299158  1  -0.010028  0  -0.112962  -0.277245  0  4.005088  0
C  C83  1  0.87078652  0.97174026  0.64700768  1  -0.010388  0  -0.112972  -0.277373  0  4.005314  0
C  C84  1  0.72789961  0.48135331  0.49492187  1  1.37225  0  0.177237  0.288287  0  4.071205  0
C  C85  1  0.22791452  0.01865058  0.00507841  1  1.372297  0  0.177215  0.288221  0  4.071126  0
C  C86  1  0.27209402  0.51864715  0.50507836  1  1.372265  0  0.177284  0.28822  0  4.071187  0
C  C87  1  0.77209454  0.98135391  0.99492047  1  1.37226  0  0.177289  0.288162  0  4.071243  0
C  C88  1  0.62314857  0.38886986  0.60159907  1  0.247783  0  -0.122274  -0.267156  0  3.861032  0
C  C89  1  0.12315423  0.11113036  0.89839937  1  0.247817  0  -0.122265  -0.26716  0  3.861048  0
C  C90  1  0.37684980  0.61113060  0.39840116  1  0.247765  0  -0.12228  -0.267151  0  3.861039  0
C  C91  1  0.87684652  0.88886930  0.10159779  1  0.247815  0  -0.122264  -0.267178  0  3.860985  0
C  C92  1  0.72968469  0.57486989  0.63140736  1  0.252917  0  -0.134006  -0.278264  0  3.870987  0
C  C93  1  0.22968594  0.92512807  0.86859533  1  0.253454  0  -0.134015  -0.27827  0  3.870722  0
C  C94  1  0.27031368  0.42512895  0.36859447  1  0.252965  0  -0.13403  -0.278347  0  3.870878  0
C  C95  1  0.77031838  0.07487238  0.13140489  1  0.253608  0  -0.134048  -0.278402  0  3.871016  0
N  N96  1  0.62122363  0.34538196  0.25216778  1  -1.257279  0  -0.382075  -0.433725  0  3.516724  0
N  N97  1  0.12122243  0.15461826  0.24783221  1  -1.257787  0  -0.382093  -0.43367  0  3.516694  0
N  N98  1  0.37877950  0.65461930  0.74783134  1  -1.257204  0  -0.382018  -0.433552  0  3.516595  0
N  N99  1  0.87877238  0.84537656  0.75216621  1  -1.257265  0  -0.382008  -0.433625  0  3.516918  0
N  N100  1  0.44906532  0.22507361  0.18709991  1  -1.251396  0  -0.37769  -0.422748  0  3.507088  0
N  N101  1  0.94906320  0.27492873  0.31290295  1  -1.251457  0  -0.377724  -0.422778  0  3.5072  0
N  N102  1  0.55093662  0.77492927  0.81290058  1  -1.251471  0  -0.377716  -0.422783  0  3.507092  0
N  N103  1  0.05093399  0.72506931  0.68709939  1  -1.251424  0  -0.377677  -0.422705  0  3.506885  0
N  N104  1  0.69093356  0.48246466  0.57170859  1  -1.207687  0  -0.27261  0.048715  0  3.735033  0
N  N105  1  0.19094093  0.01753694  0.92829112  1  -1.20779  0  -0.272711  0.048638  0  3.734875  0
N  N106  1  0.30906244  0.51753660  0.42829172  1  -1.207668  0  -0.272654  0.048711  0  3.734898  0
N  N107  1  0.80906220  0.98246514  0.07170691  1  -1.2079  0  -0.2727  0.048736  0  3.73499  0
Cl  Cl108  1  0.89463144  0.56277389  0.32694683  1  -0.670343  0  -0.35631  -0.535337  0  1.063621  0
Cl  Cl109  1  0.39463572  0.93722514  0.17305320  1  -0.670342  0  -0.356306  -0.535327  0  1.063611  0
Cl  Cl110  1  0.10536693  0.43722495  0.67305322  1  -0.670315  0  -0.356306  -0.535313  0  1.063679  0
Cl  Cl111  1  0.60536384  0.06277533  0.82694524  1  -0.670317  0  -0.3563  -0.535325  0  1.063678  0
O  O112  1  0.60969002  0.57602294  0.04070208  1  -1.082554  0  -0.152279  -0.168992  0  2.561151  0
O  O113  1  0.10969212  0.92397704  0.45929835  1  -1.082624  0  -0.152221  -0.169002  0  2.561217  0
O  O114  1  0.39030835  0.42397832  0.95929705  1  -1.082581  0  -0.152269  -0.169025  0  2.561204  0
O  O115  1  0.89031220  0.07602341  0.54070426  1  -1.082839  0  -0.152255  -0.168988  0  2.561253  0
O  O116  1  0.70333639  0.40152660  0.44091467  1  -1.186332  0  -0.304631  -0.450062  0  2.425012  0
O  O117  1  0.20335768  0.09847819  0.05908336  1  -1.186267  0  -0.304556  -0.44998  0  2.425045  0
O  O118  1  0.29665486  0.59847385  0.55908615  1  -1.186343  0  -0.304657  -0.450017  0  2.425019  0
O  O119  1  0.79665376  0.90152712  0.94091264  1  -1.186335  0  -0.304651  -0.45001  0  2.425079  0
