# generated using pymatgen
data_Cu3H6C4(BrN2)3
_symmetry_space_group_name_H-M   'P 1'
_cell_length_a   7.68824486
_cell_length_b   8.00015762
_cell_length_c   10.93806124
_cell_angle_alpha   92.12705532
_cell_angle_beta   104.19185579
_cell_angle_gamma   117.22867648
_symmetry_Int_Tables_number   1
_chemical_formula_structural   Cu3H6C4(BrN2)3
_chemical_formula_sum   'Cu6 H12 C8 Br6 N12'
_cell_volume   571.19720069
_cell_formula_units_Z   2
loop_
 _symmetry_equiv_pos_site_id
 _symmetry_equiv_pos_as_xyz
  1  'x, y, z'
loop_
 _atom_site_type_symbol
 _atom_site_label
 _atom_site_symmetry_multiplicity
 _atom_site_fract_x
 _atom_site_fract_y
 _atom_site_fract_z
 _atom_site_occupancy
 _atom_site_pbe_bader_spin_density
 _atom_site_pbe_cm5_charge
 _atom_site_pbe_ddec_charge
 _atom_site_pbe_ddec_spin_density
 _atom_site_pbe_ddec_sum_bond_order
 _atom_site_pbe_magmom
Cu  Cu0  1  0.95937534  0.34367775  0.92445435  1  0  0.27455  0.235639  0  2.610246  0
Cu  Cu1  1  0.04062011  0.65631868  0.07554201  1  0  0.274555  0.235586  0  2.610378  0
Cu  Cu2  1  0.90835665  0.02943472  0.57998286  1  0  0.281118  0.241047  0  2.567475  0
Cu  Cu3  1  0.09165375  0.97056748  0.42002180  1  0  0.281135  0.241039  0  2.567557  0
Cu  Cu4  1  0.50773295  0.07522479  0.70001813  1  0  0.452089  0.294723  0  2.252702  0
Cu  Cu5  1  0.49226531  0.92477450  0.29997970  1  0  0.452084  0.294718  0  2.252628  0
H  H6  1  0.90137291  0.01504575  0.11632329  1  0  0.13031  0.115514  0  1.011827  0
H  H7  1  0.09862053  0.98495217  0.88367730  1  0  0.130304  0.115552  0  1.011778  0
H  H8  1  0.54531925  0.70991571  0.05785237  1  0  0.295494  0.280802  0  0.97566  0
H  H9  1  0.45467415  0.29008224  0.94215095  1  0  0.295476  0.280766  0  0.975665  0
H  H10  1  0.31868534  0.70719548  0.84187764  1  0  0.126301  0.110912  0  1.025279  0
H  H11  1  0.68130664  0.29279957  0.15812172  1  0  0.12628  0.110856  0  1.025259  0
H  H12  1  0.63448474  0.67574584  0.70593459  1  0  0.121282  0.114939  0  1.028639  0
H  H13  1  0.36551769  0.32425629  0.29406314  1  0  0.121275  0.11494  0  1.028656  0
H  H14  1  0.15024464  0.56732559  0.37449380  1  0  0.116858  0.104809  0  1.053103  0
H  H15  1  0.84976206  0.43268228  0.62550663  1  0  0.116845  0.104735  0  1.05316  0
H  H16  1  0.24933140  0.46003494  0.59091811  1  0  0.291419  0.280192  0  0.980168  0
H  H17  1  0.75067231  0.53996724  0.40908351  1  0  0.291432  0.280211  0  0.980163  0
C  C18  1  0.77613272  0.97508926  0.02976497  1  0  0.155084  0.150792  0  3.882772  0
C  C19  1  0.22386205  0.02490867  0.97023678  1  0  0.155107  0.150765  0  3.882795  0
C  C20  1  0.47472713  0.81743730  0.88932920  1  0  0.154072  0.154204  0  3.869669  0
C  C21  1  0.52526753  0.18255774  0.11067065  1  0  0.154132  0.154369  0  3.869659  0
C  C22  1  0.54922351  0.69033355  0.61554942  1  0  0.146519  0.13958  0  3.89282  0
C  C23  1  0.45078514  0.30967287  0.38445043  1  0  0.146529  0.139579  0  3.89238  0
C  C24  1  0.30015785  0.63187685  0.44447837  1  0  0.15166  0.149989  0  3.904319  0
C  C25  1  0.69984550  0.36812953  0.55551685  1  0  0.151642  0.150069  0  3.904212  0
Br  Br26  1  0.74973497  0.50807526  0.87803748  1  0  -0.262178  -0.438977  0  1.823114  0
Br  Br27  1  0.25026464  0.49192402  0.12195969  1  0  -0.262172  -0.438997  0  1.823122  0
Br  Br28  1  0.11152654  0.30849338  0.75038821  1  0  -0.261986  -0.448569  0  1.852781  0
Br  Br29  1  0.88848406  0.69151161  0.24961197  1  0  -0.261989  -0.448565  0  1.85279  0
Br  Br30  1  0.10722333  0.84389798  0.62902486  1  0  -0.264286  -0.419824  0  1.854256  0
Br  Br31  1  0.89278521  0.15610558  0.37097400  1  0  -0.264296  -0.419848  0  1.854137  0
N  N32  1  0.77240331  0.07705371  0.93749710  1  0  -0.282233  -0.158587  0  3.56511  0
N  N33  1  0.22759207  0.92294278  0.06250382  1  0  -0.282212  -0.158555  0  3.565273  0
N  N34  1  0.58068668  0.97635468  0.84777412  1  0  -0.302168  -0.165284  0  3.644765  0
N  N35  1  0.41930590  0.02363894  0.15222532  1  0  -0.302194  -0.165289  0  3.644821  0
N  N36  1  0.62471589  0.82185223  0.54541346  1  0  -0.286216  -0.16313  0  3.610619  0
N  N37  1  0.37528367  0.17814709  0.45458735  1  0  -0.28623  -0.163164  0  3.610429  0
N  N38  1  0.59329853  0.81319020  0.00195175  1  0  -0.368516  -0.213994  0  3.684614  0
N  N39  1  0.40669757  0.18680773  0.99805115  1  0  -0.368528  -0.214054  0  3.684726  0
N  N40  1  0.46591849  0.78378433  0.43614005  1  0  -0.299304  -0.152484  0  3.632982  0
N  N41  1  0.53408179  0.21621644  0.56386184  1  0  -0.299274  -0.152447  0  3.632763  0
N  N42  1  0.34818092  0.56986828  0.55478004  1  0  -0.369891  -0.212268  0  3.662774  0
N  N43  1  0.65182644  0.43013811  0.44521683  1  0  -0.369881  -0.212293  0  3.662706  0
