# generated using pymatgen
data_ZnH27C30NO6
_symmetry_space_group_name_H-M   'P 1'
_cell_length_a   10.99179350
_cell_length_b   18.23147257
_cell_length_c   19.23903267
_cell_angle_alpha   88.95928640
_cell_angle_beta   89.77036698
_cell_angle_gamma   89.73362454
_symmetry_Int_Tables_number   1
_chemical_formula_structural   ZnH27C30NO6
_chemical_formula_sum   'Zn2 H54 C60 N2 O12'
_cell_volume   3854.72905501
_cell_formula_units_Z   2
loop_
 _symmetry_equiv_pos_site_id
 _symmetry_equiv_pos_as_xyz
  1  'x, y, z'
loop_
 _atom_site_type_symbol
 _atom_site_label
 _atom_site_symmetry_multiplicity
 _atom_site_fract_x
 _atom_site_fract_y
 _atom_site_fract_z
 _atom_site_occupancy
 _atom_site_pbe_bader_charge
 _atom_site_pbe_bader_spin_density
 _atom_site_pbe_cm5_charge
 _atom_site_pbe_ddec_charge
 _atom_site_pbe_ddec_spin_density
 _atom_site_pbe_ddec_sum_bond_order
 _atom_site_pbe_magmom
Zn  Zn0  1  0.51218904  0.42350308  0.50058855  1  1.274457  0  0.667658  0.804927  0  2.453679  0
Zn  Zn1  1  0.51189503  0.57597768  0.49731329  1  1.259091  0  0.66521  0.805961  0  2.432454  0
H  H2  1  0.12166346  0.55703908  0.58834620  1  0.083614  0  0.106949  0.114422  0  0.983547  0
H  H3  1  0.89356918  0.55863569  0.58504330  1  0.044224  0  0.101412  0.104387  0  1.000435  0
H  H4  1  0.67081843  0.30348679  0.55531366  1  0.124632  0  0.132816  0.109037  0  0.958917  0
H  H5  1  0.34901754  0.31122998  0.44480093  1  0.134029  0  0.130083  0.103843  0  0.981364  0
H  H6  1  0.67289822  0.16622044  0.55769676  1  0.081034  0  0.112679  0.117977  0  0.994082  0
H  H7  1  0.33529417  0.17431248  0.44291947  1  0.065557  0  0.112939  0.118824  0  0.992314  0
H  H8  1  0.42093943  0.06956750  0.39864512  1  0.078012  0  0.106691  0.105758  0  0.997059  0
H  H9  1  0.57875887  0.06497010  0.60355912  1  0.078824  0  0.107505  0.106804  0  0.995264  0
H  H10  1  0.41965275  0.93421454  0.39892894  1  0.073275  0  0.108303  0.108888  0  0.991804  0
H  H11  1  0.57906399  0.92965256  0.60328528  1  0.081651  0  0.108207  0.108111  0  0.992583  0
H  H12  1  0.68059225  0.83008201  0.54800538  1  0.077686  0  0.112508  0.117937  0  0.99312  0
H  H13  1  0.32491411  0.82900634  0.45281454  1  0.085451  0  0.112618  0.117243  0  0.994339  0
H  H14  1  0.67902242  0.69269664  0.54333156  1  0.126674  0  0.129955  0.106968  0  0.978018  0
H  H15  1  0.33737423  0.69164854  0.45450087  1  0.148842  0  0.130396  0.107905  0  0.983926  0
H  H16  1  0.24403336  0.43560059  0.38057736  1  0.095873  0  0.09796  0.103996  0  1.042764  0
H  H17  1  0.79056037  0.44363010  0.36976364  1  0.091634  0  0.104104  0.11685  0  1.016494  0
H  H18  1  0.13692716  0.38915446  0.27826440  1  0.018746  0  0.093989  0.090638  0  1.021053  0
H  H19  1  0.90906992  0.39468572  0.27260913  1  0.055661  0  0.097317  0.094075  0  1.005141  0
H  H20  1  0.56642668  0.54550855  0.86813160  1  0.046856  0  0.095679  0.100998  0  1.01492  0
H  H21  1  0.24650885  0.57793134  0.17373867  1  0.059548  0  0.098726  0.105333  0  1.006054  0
H  H22  1  0.23186617  0.43760743  0.81775943  1  0.037671  0  0.100008  0.109611  0  1.033623  0
H  H23  1  0.50799287  0.40483789  0.14174475  1  0.08435  0  0.107929  0.128867  0  0.994691  0
H  H24  1  0.37290249  0.60772461  0.06343381  1  0.068453  0  0.098413  0.102296  0  1.003461  0
H  H25  1  0.38573075  0.60822104  0.93430037  1  0.024472  0  0.098727  0.102706  0  1.001134  0
H  H26  1  0.74583505  0.66297360  0.71158564  1  0.014633  0  0.0789  0.101064  0  1.013127  0
H  H27  1  0.59013316  0.65600761  0.68650431  1  0.02145  0  0.082397  0.116982  0  1.024968  0
H  H28  1  0.62858291  0.66868667  0.77530616  1  0.021552  0  0.0804  0.105476  0  1.011838  0
H  H29  1  0.72902321  0.54404201  0.77836332  1  0.028606  0  0.090407  0.083122  0  0.974612  0
H  H30  1  0.69403491  0.53249445  0.68981024  1  0.038018  0  0.092346  0.09152  0  0.984805  0
H  H31  1  0.44221908  0.68242280  0.31120777  1  0.045896  0  0.084342  0.119451  0  1.01167  0
H  H32  1  0.34194819  0.69830084  0.23998238  1  -0.008838  0  0.079973  0.104665  0  1.013033  0
H  H33  1  0.29629503  0.72304003  0.32512042  1  0.004728  0  0.075948  0.095474  0  1.023557  0
H  H34  1  0.19507187  0.60594582  0.29395163  1  0.036823  0  0.090748  0.088281  0  0.971853  0
H  H35  1  0.29851541  0.58994725  0.36246357  1  0.053926  0  0.090046  0.094599  0  1.025954  0
H  H36  1  0.15681626  0.37081124  0.73724976  1  0.013101  0  0.091072  0.043252  0  0.987987  0
H  H37  1  0.29201090  0.32719414  0.70650888  1  0.043539  0  0.094316  0.048947  0  0.977666  0
H  H38  1  0.21549197  0.34665423  0.58274488  1  0.073989  0  0.089383  0.135389  0  1.022469  0
H  H39  1  0.11613232  0.29033989  0.63471353  1  0.040184  0  0.084386  0.109763  0  1.009838  0
H  H40  1  0.07827152  0.38384488  0.61612441  1  0.056422  0  0.08871  0.125852  0  1.006637  0
H  H41  1  0.53957568  0.30251397  0.23320168  1  0.022387  0  0.088756  0.041519  0  0.985545  0
H  H42  1  0.47422323  0.32978585  0.31429490  1  0.047906  0  0.089866  0.046899  0  1.009106  0
H  H43  1  0.67822049  0.32015939  0.37111175  1  0.046874  0  0.09274  0.134861  0  1.006787  0
H  H44  1  0.63722856  0.23480671  0.33390097  1  0.023252  0  0.083476  0.110809  0  1.012114  0
H  H45  1  0.74542162  0.29272378  0.29131011  1  0.006838  0  0.088346  0.120265  0  1.005331  0
H  H46  1  0.15769393  0.35562297  0.90492756  1  -0.008907  0  0.089384  0.039358  0  0.988599  0
H  H47  1  0.20484177  0.30138595  0.97843752  1  0.051104  0  0.094176  0.050756  0  1.011476  0
H  H48  1  0.32687302  0.22027777  0.89973216  1  0.025932  0  0.092046  0.127162  0  0.990043  0
H  H49  1  0.17058355  0.22182972  0.87508712  1  0.025915  0  0.089602  0.119048  0  1.001758  0
H  H50  1  0.27954790  0.27402110  0.82639765  1  0.036527  0  0.088664  0.117023  0  1.026782  0
H  H51  1  0.12969895  0.35632331  0.08548259  1  0.036855  0  0.092605  0.046522  0  0.977217  0
H  H52  1  0.21332462  0.39862244  0.15311458  1  0.052593  0  0.094668  0.05446  0  1.023555  0
H  H53  1  0.30638817  0.27743988  0.18675492  1  0.039669  0  0.089415  0.120867  0  1.013281  0
H  H54  1  0.14454829  0.27298458  0.19042880  1  0.056925  0  0.092044  0.12341  0  1.000179  0
H  H55  1  0.22448486  0.23393715  0.11923529  1  0.017601  0  0.090106  0.122891  0  0.995968  0
C  C56  1  0.48535476  0.50156049  0.36353200  1  1.570678  0  0.2175  0.616312  0  4.168149  0
C  C57  1  0.49440963  0.49572265  0.63393219  1  1.603529  0  0.216669  0.624554  0  4.174817  0
C  C58  1  0.39520475  0.49188533  0.85104295  1  -0.058518  0  -0.011484  0.112004  0  4.048285  0
C  C59  1  0.37250542  0.49115814  0.14900274  1  -0.039101  0  -0.01086  0.10575  0  4.056765  0
C  C60  1  0.31848268  0.46124530  0.80153458  1  0.058087  0  -0.110991  -0.268538  0  4.002557  0
C  C61  1  0.46291830  0.44390470  0.17552527  1  0.021831  0  -0.103975  -0.257489  0  3.972942  0
C  C62  1  0.35161470  0.46304414  0.73140346  1  0.467618  0  0.079531  0.232611  0  4.078349  0
C  C63  1  0.49916019  0.44888150  0.24443728  1  0.410397  0  0.079084  0.237598  0  4.07495  0
C  C64  1  0.46248143  0.49464303  0.71002271  1  -0.012465  0  -0.023604  -0.179999  0  3.919629  0
C  C65  1  0.44675700  0.50107719  0.28873133  1  0.04782  0  -0.022347  -0.187227  0  3.905514  0
C  C66  1  0.34071094  0.42569492  0.96334814  1  0.511974  0  0.072691  0.104344  0  4.03578  0
C  C67  1  0.33124297  0.42569538  0.03654520  1  0.401867  0  0.071118  0.096897  0  4.034822  0
C  C68  1  0.34794050  0.49109518  0.07332220  1  0.018824  0  -0.022055  -0.031791  0  4.023226  0
C  C69  1  0.36521451  0.49144000  0.92619005  1  -0.025982  0  -0.016396  -0.014727  0  4.004403  0
C  C70  1  0.36131940  0.55692255  0.03517415  1  -0.078535  0  -0.102905  -0.133214  0  4.053239  0
C  C71  1  0.37050216  0.55700748  0.96312929  1  0.048256  0  -0.104403  -0.140853  0  4.059536  0
C  C72  1  0.59855014  0.27206729  0.53130120  1  0.517344  0  0.064001  0.108972  0  3.922588  0
C  C73  1  0.41872543  0.27632665  0.46866333  1  0.489186  0  0.063647  0.110315  0  3.917376  0
C  C74  1  0.59831298  0.19593142  0.53267683  1  -0.054462  0  -0.079248  -0.1805  0  3.953932  0
C  C75  1  0.41241908  0.20032261  0.46771191  1  0.011035  0  -0.079844  -0.181419  0  3.950149  0
C  C76  1  0.50358718  0.15807291  0.50039875  1  -0.073472  0  0.014062  0.110505  0  4.002207  0
C  C77  1  0.27445225  0.49882880  0.49696978  1  1.581205  0  0.223745  0.604902  0  4.172351  0
C  C78  1  0.74749782  0.50088089  0.49305929  1  1.538933  0  0.219419  0.605714  0  4.166706  0
C  C79  1  0.45385108  0.03910596  0.44417050  1  -0.033252  0  -0.084538  -0.120509  0  3.987197  0
C  C80  1  0.54587086  0.03653195  0.55798732  1  -0.012785  0  -0.084396  -0.119673  0  3.985642  0
C  C81  1  0.45321685  0.96283540  0.44425055  1  -0.116979  0  -0.084357  -0.122016  0  3.982129  0
C  C82  1  0.54590878  0.96031993  0.55793608  1  -0.058955  0  -0.084289  -0.121447  0  3.98588  0
C  C83  1  0.50008721  0.92223460  0.50093528  1  0.099264  0  -0.004859  0.065857  0  3.999401  0
C  C84  1  0.50070797  0.07726017  0.50088634  1  0.012387  0  -0.005806  0.059787  0  4.003712  0
C  C85  1  0.60211793  0.80174280  0.52711076  1  -0.002388  0  -0.080169  -0.18083  0  3.955479  0
C  C86  1  0.40561047  0.80125106  0.47311997  1  0.014088  0  -0.079915  -0.182213  0  3.954117  0
C  C87  1  0.60232065  0.72568768  0.52479512  1  0.443089  0  0.062148  0.106933  0  3.920117  0
C  C88  1  0.41150702  0.72516468  0.47367010  1  0.401181  0  0.06424  0.112638  0  3.911003  0
C  C89  1  0.50237059  0.84142742  0.50043315  1  -0.013384  0  0.015216  0.110869  0  4.002021  0
C  C90  1  0.14486021  0.43724627  0.37879912  1  -0.114184  0  -0.096722  -0.136381  0  3.982934  0
C  C91  1  0.88942512  0.44178647  0.37297682  1  -0.125597  0  -0.091138  -0.127706  0  3.963735  0
C  C92  1  0.08475649  0.41109207  0.32163146  1  0.000686  0  -0.102304  -0.094946  0  4.059543  0
C  C93  1  0.95626331  0.41394908  0.31854282  1  -0.002485  0  -0.099367  -0.093664  0  4.056287  0
C  C94  1  0.94823175  0.46912746  0.43287175  1  0.015526  0  -0.002567  0.060085  0  3.952328  0
C  C95  1  0.07890565  0.46774897  0.43519878  1  0.029612  0  -0.004141  0.050959  0  3.960712  0
C  C96  1  0.13870226  0.49963621  0.49282447  1  -0.003458  0  -0.007327  -0.056415  0  3.948589  0
C  C97  1  0.88335321  0.50123300  0.48935655  1  0.000298  0  -0.015161  -0.075228  0  3.952336  0
C  C98  1  0.07326736  0.53264740  0.54520364  1  -0.04682  0  -0.091016  -0.113343  0  4.024389  0
C  C99  1  0.94542678  0.53329521  0.54334140  1  -0.011672  0  -0.091757  -0.108795  0  4.033048  0
C  C100  1  0.54045030  0.52515797  0.75917735  1  -0.062997  0  -0.007643  0.11959  0  3.96305  0
C  C101  1  0.35474503  0.54824485  0.26298319  1  -0.011666  0  -0.001417  0.132925  0  3.933643  0
C  C102  1  0.50520357  0.52360000  0.82916819  1  0.040755  0  -0.10606  -0.222425  0  3.973805  0
C  C103  1  0.31886290  0.54203892  0.19351652  1  -0.036363  0  -0.102677  -0.224818  0  3.970027  0
C  C104  1  0.66152647  0.55788003  0.73796060  1  0.004719  0  -0.159419  -0.137093  0  3.967397  0
C  C105  1  0.65621445  0.64150394  0.72717650  1  -0.065289  0  -0.247139  -0.350721  0  3.974654  0
C  C106  1  0.29248268  0.60507183  0.30713253  1  -0.008335  0  -0.165601  -0.152941  0  3.963825  0
C  C107  1  0.34646494  0.68181758  0.29517015  1  -0.051702  0  -0.247373  -0.347226  0  3.975968  0
C  C108  1  0.22026603  0.36746143  0.69282809  1  0.432851  0  -0.065204  0.099201  0  3.918631  0
C  C109  1  0.15357839  0.34579064  0.62760381  1  -0.121983  0  -0.249988  -0.397484  0  3.967985  0
C  C110  1  0.55834096  0.32974006  0.28287634  1  0.404778  0  -0.071623  0.091808  0  3.933203  0
C  C111  1  0.66104186  0.29220539  0.32208287  1  -0.014953  0  -0.248028  -0.394682  0  3.975891  0
C  C112  1  0.23091704  0.31976476  0.92562680  1  0.450015  0  -0.06881  0.088677  0  3.931877  0
C  C113  1  0.25330557  0.25510084  0.87883846  1  -0.043214  0  -0.245572  -0.393198  0  3.986554  0
C  C114  1  0.21379092  0.35272270  0.11669761  1  0.407563  0  -0.070454  0.078629  0  3.924148  0
C  C115  1  0.22309799  0.27987445  0.15541303  1  -0.071279  0  -0.245103  -0.393328  0  3.988112  0
N  N116  1  0.51026652  0.31149400  0.49986196  1  -1.245866  0  -0.319675  -0.194521  0  3.520604  0
N  N117  1  0.50846993  0.68813039  0.49862674  1  -1.232695  0  -0.318455  -0.193503  0  3.511399  0
O  O118  1  0.47604267  0.44033665  0.39615654  1  -1.16195  0  -0.311772  -0.554565  0  2.36671  0
O  O119  1  0.52575886  0.43549300  0.60650658  1  -1.166782  0  -0.3243  -0.555926  0  2.286544  0
O  O120  1  0.52050788  0.56149319  0.38940021  1  -1.160209  0  -0.315394  -0.538471  0  2.268287  0
O  O121  1  0.48717285  0.55785147  0.60300976  1  -1.161194  0  -0.314066  -0.54447  0  2.298536  0
O  O122  1  0.32567494  0.43766129  0.50975586  1  -1.151075  0  -0.302192  -0.533487  0  2.353502  0
O  O123  1  0.69430165  0.43973491  0.48475031  1  -1.165335  0  -0.314055  -0.549238  0  2.335025  0
O  O124  1  0.32704768  0.56028105  0.48715528  1  -1.16848  0  -0.311226  -0.54976  0  2.33848  0
O  O125  1  0.69543425  0.56173867  0.50607338  1  -1.169358  0  -0.317419  -0.550222  0  2.325627  0
O  O126  1  0.27738250  0.43739728  0.67978940  1  -1.061736  0  -0.192627  -0.215648  0  2.499311  0
O  O127  1  0.59320976  0.40489823  0.26910314  1  -1.080904  0  -0.208187  -0.240913  0  2.47396  0
O  O128  1  0.34243768  0.36079613  0.92781907  1  -1.054518  0  -0.201499  -0.217369  0  2.540834  0
O  O129  1  0.31718341  0.35864995  0.07021435  1  -1.068838  0  -0.200198  -0.221554  0  2.531858  0
