# generated using pymatgen
data_NdH9(C2O3)3
_symmetry_space_group_name_H-M   'P 1'
_cell_length_a   10.01830395
_cell_length_b   8.54076651
_cell_length_c   12.04490463
_cell_angle_alpha   110.27079155
_cell_angle_beta   89.99975152
_cell_angle_gamma   90.00017870
_symmetry_Int_Tables_number   1
_chemical_formula_structural   NdH9(C2O3)3
_chemical_formula_sum   'Nd4 H36 C24 O36'
_cell_volume   966.78001325
_cell_formula_units_Z   4
loop_
 _symmetry_equiv_pos_site_id
 _symmetry_equiv_pos_as_xyz
  1  'x, y, z'
loop_
 _atom_site_type_symbol
 _atom_site_label
 _atom_site_symmetry_multiplicity
 _atom_site_fract_x
 _atom_site_fract_y
 _atom_site_fract_z
 _atom_site_occupancy
 _atom_site_hle17_bader_spin_density
 _atom_site_hle17_ddec_charge
 _atom_site_hle17_ddec_spin_density
 _atom_site_hle17_ddec_sum_bond_order
 _atom_site_hle17_magmom
 _atom_site_hse06_10hf_bader_spin_density
 _atom_site_hse06_10hf_ddec_charge
 _atom_site_hse06_10hf_ddec_spin_density
 _atom_site_hse06_10hf_ddec_sum_bond_order
 _atom_site_hse06_10hf_magmom
 _atom_site_hse06_bader_spin_density
 _atom_site_hse06_ddec_charge
 _atom_site_hse06_ddec_spin_density
 _atom_site_hse06_ddec_sum_bond_order
 _atom_site_hse06_magmom
 _atom_site_pbe_bader_spin_density
 _atom_site_pbe_cm5_charge
 _atom_site_pbe_ddec_charge
 _atom_site_pbe_ddec_spin_density
 _atom_site_pbe_ddec_sum_bond_order
 _atom_site_pbe_magmom
Nd  Nd0  1  0.18436345  0.96726936  0.91728920  1  0  2.29323  0  1.632047  0  0  2.12689  0  2.098808  0  0  2.223934  0  1.949734  0  0  1.496881  2.096719  0  2.130534  0
Nd  Nd1  1  0.68435986  0.03272687  0.58271003  1  0  2.293248  0  1.632016  0  0  2.126949  0  2.098693  0  0  2.223943  0  1.949695  0  0  1.496891  2.096743  0  2.130468  0
Nd  Nd2  1  0.81564088  0.03273325  0.08270909  1  0  2.293297  0  1.631976  0  0  2.126971  0  2.098743  0  0  2.224019  0  1.949652  0  0  1.496924  2.096762  0  2.130537  0
Nd  Nd3  1  0.31563948  0.96727432  0.41729036  1  0  2.293279  0  1.632017  0  0  2.127018  0  2.098623  0  0  2.22397  0  1.949696  0  0  1.496915  2.096832  0  2.130366  0
H  H4  1  0.14310633  0.50814867  0.54125758  1  0  0.142392  0  0.909125  0  0  0.156055  0  0.964439  0  0  0.159055  0  0.963193  0  0  0.114586  0.153982  0  0.965213  0
H  H5  1  0.64310102  0.49184464  0.95874598  1  0  0.142349  0  0.909161  0  0  0.156089  0  0.964418  0  0  0.159092  0  0.963174  0  0  0.114601  0.154025  0  0.965198  0
H  H6  1  0.85689501  0.49185745  0.45874500  1  0  0.142396  0  0.909156  0  0  0.156045  0  0.964469  0  0  0.159047  0  0.963221  0  0  0.114575  0.15399  0  0.965252  0
H  H7  1  0.35689732  0.50815275  0.04125419  1  0  0.142333  0  0.909199  0  0  0.156097  0  0.964457  0  0  0.159102  0  0.96321  0  0  0.114604  0.154024  0  0.965232  0
H  H8  1  0.22954575  0.44421103  0.64480316  1  0  0.147928  0  0.947111  0  0  0.160217  0  1.006596  0  0  0.164282  0  1.003756  0  0  0.113502  0.15746  0  1.008425  0
H  H9  1  0.72954216  0.55577515  0.85519562  1  0  0.148007  0  0.947066  0  0  0.160288  0  1.006568  0  0  0.164356  0  1.003724  0  0  0.113527  0.157537  0  1.008402  0
H  H10  1  0.77045559  0.55578399  0.35519469  1  0  0.147993  0  0.947047  0  0  0.160292  0  1.006508  0  0  0.164362  0  1.003655  0  0  0.113537  0.157552  0  1.008346  0
H  H11  1  0.27045219  0.44422485  0.14480361  1  0  0.14797  0  0.947091  0  0  0.16026  0  1.00662  0  0  0.16433  0  1.003771  0  0  0.113533  0.157502  0  1.008451  0
H  H12  1  0.44423204  0.53302744  0.59682037  1  0  0.133688  0  0.936687  0  0  0.145064  0  0.996233  0  0  0.147701  0  0.995205  0  0  0.112827  0.143252  0  0.996672  0
H  H13  1  0.94422196  0.46696785  0.90318098  1  0  0.133611  0  0.936758  0  0  0.144937  0  0.996387  0  0  0.147571  0  0.995366  0  0  0.112793  0.14313  0  0.996829  0
H  H14  1  0.55577429  0.46696599  0.40318204  1  0  0.133565  0  0.936751  0  0  0.144922  0  0.996387  0  0  0.147557  0  0.995357  0  0  0.112793  0.143114  0  0.99683  0
H  H15  1  0.05577438  0.53303589  0.09681928  1  0  0.133584  0  0.93674  0  0  0.144901  0  0.996376  0  0  0.147535  0  0.995349  0  0  0.112795  0.143091  0  0.996817  0
H  H16  1  0.36239320  0.57635846  0.47990729  1  0  0.149618  0  0.912152  0  0  0.160003  0  0.971932  0  0  0.163433  0  0.969742  0  0  0.123278  0.157542  0  0.973612  0
H  H17  1  0.86238702  0.42363754  0.02009545  1  0  0.149606  0  0.912118  0  0  0.159978  0  0.971907  0  0  0.163407  0  0.969722  0  0  0.123305  0.157518  0  0.973585  0
H  H18  1  0.63760714  0.42363757  0.52009418  1  0  0.149558  0  0.912205  0  0  0.15997  0  0.971972  0  0  0.163402  0  0.969778  0  0  0.123299  0.157511  0  0.973649  0
H  H19  1  0.13760633  0.57636127  0.97990262  1  0  0.149551  0  0.912227  0  0  0.159938  0  0.971975  0  0  0.16337  0  0.969781  0  0  0.123287  0.157478  0  0.973654  0
H  H20  1  0.37458220  0.66872786  0.79084676  1  0  0.430344  0  0.857642  0  0  0.402627  0  0.928562  0  0  0.414008  0  0.912072  0  0  0.313437  0.394547  0  0.940393  0
H  H21  1  0.87458275  0.33126327  0.70915785  1  0  0.430176  0  0.857959  0  0  0.402503  0  0.928734  0  0  0.413883  0  0.912247  0  0  0.313398  0.394429  0  0.940552  0
H  H22  1  0.62541914  0.33126801  0.20915715  1  0  0.430161  0  0.857971  0  0  0.402499  0  0.928731  0  0  0.41388  0  0.912243  0  0  0.313391  0.394428  0  0.940545  0
H  H23  1  0.12541659  0.66873554  0.29084022  1  0  0.430278  0  0.857855  0  0  0.402587  0  0.928626  0  0  0.413969  0  0.912136  0  0  0.313415  0.394512  0  0.940447  0
H  H24  1  0.12118709  0.23346203  0.15672387  1  0  0.434262  0  0.865421  0  0  0.401374  0  0.932497  0  0  0.4132  0  0.91541  0  0  0.300256  0.392829  0  0.945047  0
H  H25  1  0.62118513  0.76654021  0.34327399  1  0  0.434336  0  0.865327  0  0  0.401419  0  0.932453  0  0  0.413246  0  0.915365  0  0  0.30029  0.392873  0  0.945005  0
H  H26  1  0.87881325  0.76653803  0.84327454  1  0  0.434228  0  0.865449  0  0  0.401311  0  0.932578  0  0  0.413138  0  0.915489  0  0  0.30022  0.392764  0  0.94513  0
H  H27  1  0.37881321  0.23345866  0.65672327  1  0  0.434211  0  0.865495  0  0  0.401306  0  0.932601  0  0  0.413133  0  0.915513  0  0  0.300241  0.39276  0  0.945153  0
H  H28  1  0.44424552  0.18716298  0.98620936  1  0  0.460161  0  0.791645  0  0  0.43649  0  0.853  0  0  0.445678  0  0.839626  0  0  0.333975  0.42984  0  0.862883  0
H  H29  1  0.94424941  0.81283214  0.51379444  1  0  0.460168  0  0.791592  0  0  0.436494  0  0.852982  0  0  0.445683  0  0.839607  0  0  0.333956  0.429842  0  0.862868  0
H  H30  1  0.55575382  0.81283566  0.01379116  1  0  0.46013  0  0.791684  0  0  0.436461  0  0.85304  0  0  0.445649  0  0.839666  0  0  0.333971  0.429811  0  0.862921  0
H  H31  1  0.05575592  0.18716389  0.48620703  1  0  0.460138  0  0.791653  0  0  0.436467  0  0.853022  0  0  0.445655  0  0.839648  0  0  0.333956  0.429816  0  0.862905  0
H  H32  1  0.25545016  0.14650635  0.17769391  1  0  0.441143  0  0.838048  0  0  0.415008  0  0.896638  0  0  0.425064  0  0.882  0  0  0.314872  0.407851  0  0.907261  0
H  H33  1  0.75545154  0.85348749  0.32230032  1  0  0.441075  0  0.83812  0  0  0.41494  0  0.896717  0  0  0.424994  0  0.882083  0  0  0.31485  0.407782  0  0.907341  0
H  H34  1  0.74454719  0.85348747  0.82230279  1  0  0.441088  0  0.838134  0  0  0.414955  0  0.89671  0  0  0.42501  0  0.882074  0  0  0.31484  0.407797  0  0.907334  0
H  H35  1  0.24454979  0.14650627  0.67769720  1  0  0.441079  0  0.838128  0  0  0.41494  0  0.89673  0  0  0.424997  0  0.882091  0  0  0.314846  0.407782  0  0.907354  0
H  H36  1  0.48005210  0.04912488  0.86635920  1  0  0.452883  0  0.820022  0  0  0.422686  0  0.886207  0  0  0.43323  0  0.870644  0  0  0.321046  0.415269  0  0.897285  0
H  H37  1  0.98005375  0.95087558  0.63364178  1  0  0.452891  0  0.819944  0  0  0.422694  0  0.886166  0  0  0.433238  0  0.870606  0  0  0.321071  0.415277  0  0.897242  0
H  H38  1  0.51995023  0.95087392  0.13363887  1  0  0.4529  0  0.820009  0  0  0.422707  0  0.886181  0  0  0.43325  0  0.870618  0  0  0.321059  0.415288  0  0.897261  0
H  H39  1  0.01994559  0.04912691  0.36635814  1  0  0.452896  0  0.819963  0  0  0.422691  0  0.886186  0  0  0.433235  0  0.870625  0  0  0.321059  0.415272  0  0.897264  0
C  C40  1  0.49939743  0.76446553  0.57854660  1  0  0.747701  0  3.799779  0  0  0.70146  0  4.09887  0  0  0.735034  0  4.094696  0  0  0.213424  0.67811  0  4.105406  0
C  C41  1  0.99939361  0.23554127  0.92145522  1  0  0.747702  0  3.79985  0  0  0.701612  0  4.098721  0  0  0.735187  0  4.094562  0  0  0.213512  0.678264  0  4.105262  0
C  C42  1  0.50060491  0.23553799  0.42145693  1  0  0.747636  0  3.799851  0  0  0.701486  0  4.098851  0  0  0.73506  0  4.094669  0  0  0.213403  0.678136  0  4.105396  0
C  C43  1  0.00060273  0.76446015  0.07854190  1  0  0.747787  0  3.799569  0  0  0.701573  0  4.098597  0  0  0.735147  0  4.094432  0  0  0.213415  0.678224  0  4.105137  0
C  C44  1  0.27681954  0.69476248  0.65265455  1  0  0.275634  0  3.595656  0  0  0.272732  0  3.839804  0  0  0.276794  0  3.852256  0  0  0.075955  0.269827  0  3.832186  0
C  C45  1  0.77681531  0.30523230  0.84734975  1  0  0.275509  0  3.595341  0  0  0.272625  0  3.839506  0  0  0.276696  0  3.851961  0  0  0.075937  0.269731  0  3.831894  0
C  C46  1  0.72318579  0.30523719  0.34734957  1  0  0.275604  0  3.595297  0  0  0.272674  0  3.839509  0  0  0.276733  0  3.851951  0  0  0.075944  0.269793  0  3.831903  0
C  C47  1  0.22317704  0.69476775  0.15264866  1  0  0.275786  0  3.595216  0  0  0.272848  0  3.839429  0  0  0.276928  0  3.85188  0  0  0.075926  0.269939  0  3.831818  0
C  C48  1  0.05317958  0.58124684  0.71237004  1  0  0.754493  0  3.799113  0  0  0.707803  0  4.101044  0  0  0.741938  0  4.092092  0  0  0.224012  0.684783  0  4.106819  0
C  C49  1  0.55317796  0.41874380  0.78763311  1  0  0.754525  0  3.799368  0  0  0.707866  0  4.101283  0  0  0.742006  0  4.092325  0  0  0.223946  0.684858  0  4.107061  0
C  C50  1  0.94682076  0.41875532  0.28763477  1  0  0.754771  0  3.799177  0  0  0.708098  0  4.101049  0  0  0.742234  0  4.092082  0  0  0.224116  0.685103  0  4.106832  0
C  C51  1  0.44682038  0.58125343  0.21236951  1  0  0.75446  0  3.799339  0  0  0.707816  0  4.101281  0  0  0.741956  0  4.092318  0  0  0.224036  0.684797  0  4.10706  0
C  C52  1  0.17689729  0.55119329  0.63384863  1  0  -0.377562  0  3.609836  0  0  -0.4174  0  3.845981  0  0  -0.425074  0  3.851358  0  0  -0.164076  -0.411744  0  3.841565  0
C  C53  1  0.67688736  0.44879901  0.86615203  1  0  -0.377532  0  3.609777  0  0  -0.417522  0  3.846099  0  0  -0.425212  0  3.851477  0  0  -0.164139  -0.411916  0  3.841749  0
C  C54  1  0.82311203  0.44880925  0.36615047  1  0  -0.37771  0  3.609943  0  0  -0.417526  0  3.846062  0  0  -0.425217  0  3.851463  0  0  -0.16414  -0.411969  0  3.841765  0
C  C55  1  0.32310599  0.55119980  0.13384604  1  0  -0.377523  0  3.609683  0  0  -0.417527  0  3.845966  0  0  -0.425236  0  3.851396  0  0  -0.164115  -0.411865  0  3.841551  0
C  C56  1  0.20478865  0.83520145  0.62531029  1  0  0.644216  0  3.84751  0  0  0.595634  0  4.140009  0  0  0.627601  0  4.136856  0  0  0.228175  0.573207  0  4.145967  0
C  C57  1  0.70477690  0.16479000  0.87468505  1  0  0.644133  0  3.847538  0  0  0.595557  0  4.140051  0  0  0.627504  0  4.136926  0  0  0.228248  0.573133  0  4.146003  0
C  C58  1  0.79522267  0.16479708  0.37469185  1  0  0.644137  0  3.847719  0  0  0.595625  0  4.140098  0  0  0.627608  0  4.136913  0  0  0.228383  0.573198  0  4.146051  0
C  C59  1  0.29521745  0.83521391  0.12531277  1  0  0.644084  0  3.847409  0  0  0.595503  0  4.139963  0  0  0.627428  0  4.136868  0  0  0.22822  0.573079  0  4.145928  0
C  C60  1  0.39731511  0.63150299  0.57176273  1  0  -0.360339  0  3.634025  0  0  -0.401574  0  3.869544  0  0  -0.408392  0  3.875107  0  0  -0.159505  -0.396264  0  3.864705  0
C  C61  1  0.89731462  0.36849459  0.92824108  1  0  -0.360112  0  3.633942  0  0  -0.4014  0  3.869586  0  0  -0.408178  0  3.875052  0  0  -0.159512  -0.396099  0  3.864752  0
C  C62  1  0.60268522  0.36849044  0.42823968  1  0  -0.360045  0  3.633994  0  0  -0.401359  0  3.86958  0  0  -0.408188  0  3.87518  0  0  -0.159523  -0.396056  0  3.864741  0
C  C63  1  0.10268372  0.63151051  0.07175790  1  0  -0.3601  0  3.634063  0  0  -0.401254  0  3.869497  0  0  -0.408058  0  3.875035  0  0  -0.159471  -0.395953  0  3.864666  0
O  O64  1  0.40426078  0.10486162  0.91624423  1  0  -0.886664  0  1.803592  0  0  -0.840636  0  1.999367  0  0  -0.863495  0  1.961501  0  0  -0.622185  -0.829725  0  2.022655  0
O  O65  1  0.90426353  0.89514129  0.58375603  1  0  -0.886674  0  1.803469  0  0  -0.840651  0  1.999323  0  0  -0.863505  0  1.961455  0  0  -0.622184  -0.829738  0  2.022615  0
O  O66  1  0.59574056  0.89514104  0.08375324  1  0  -0.886685  0  1.803655  0  0  -0.840669  0  1.999438  0  0  -0.86353  0  1.961572  0  0  -0.622216  -0.829753  0  2.02273  0
O  O67  1  0.09573881  0.10485616  0.41624332  1  0  -0.886654  0  1.803523  0  0  -0.840636  0  1.999351  0  0  -0.863487  0  1.961486  0  0  -0.622196  -0.829725  0  2.022639  0
O  O68  1  0.45887482  0.90092088  0.56370622  1  0  -0.852172  0  2.106632  0  0  -0.789385  0  2.367495  0  0  -0.827253  0  2.355609  0  0  -0.462512  -0.771296  0  2.374595  0
O  O69  1  0.95887555  0.09908090  0.93629353  1  0  -0.852213  0  2.106669  0  0  -0.789416  0  2.367406  0  0  -0.827306  0  2.355514  0  0  -0.462533  -0.771331  0  2.374511  0
O  O70  1  0.54112152  0.09907776  0.43629429  1  0  -0.852223  0  2.106695  0  0  -0.789435  0  2.36746  0  0  -0.8273  0  2.355568  0  0  -0.462522  -0.771346  0  2.374565  0
O  O71  1  0.04111880  0.90091954  0.06369917  1  0  -0.852192  0  2.106355  0  0  -0.789408  0  2.36721  0  0  -0.827295  0  2.355319  0  0  -0.462537  -0.771318  0  2.374311  0
O  O72  1  0.21015527  0.18844564  0.12119338  1  0  -0.890305  0  1.847543  0  0  -0.837125  0  2.030326  0  0  -0.862306  0  1.994787  0  0  -0.62035  -0.823522  0  2.052456  0
O  O73  1  0.71015425  0.81155683  0.37880339  1  0  -0.890296  0  1.847561  0  0  -0.837098  0  2.030356  0  0  -0.862282  0  1.994837  0  0  -0.620345  -0.82349  0  2.052496  0
O  O74  1  0.78984307  0.81155198  0.87880353  1  0  -0.890216  0  1.847615  0  0  -0.837023  0  2.030419  0  0  -0.862196  0  1.994854  0  0  -0.620266  -0.823412  0  2.052551  0
O  O75  1  0.28984409  0.18844197  0.62119468  1  0  -0.890204  0  1.847698  0  0  -0.837016  0  2.030499  0  0  -0.862188  0  1.994961  0  0  -0.620309  -0.82341  0  2.052629  0
O  O76  1  0.62094987  0.74577106  0.59632661  1  0  -0.632398  0  1.898454  0  0  -0.584202  0  2.123713  0  0  -0.611569  0  2.113763  0  0  -0.340686  -0.568654  0  2.129639  0
O  O77  1  0.12094559  0.25423263  0.90367324  1  0  -0.632399  0  1.898454  0  0  -0.584246  0  2.12366  0  0  -0.611622  0  2.113707  0  0  -0.340719  -0.568702  0  2.129587  0
O  O78  1  0.37905147  0.25423110  0.40367820  1  0  -0.632361  0  1.898408  0  0  -0.584192  0  2.123604  0  0  -0.611556  0  2.113654  0  0  -0.34066  -0.568646  0  2.129531  0
O  O79  1  0.87904976  0.74577349  0.09632934  1  0  -0.63246  0  1.898372  0  0  -0.584269  0  2.123622  0  0  -0.611646  0  2.113668  0  0  -0.34065  -0.568718  0  2.129549  0
O  O80  1  0.16180328  0.96022192  0.71150187  1  0  -0.718641  0  2.070827  0  0  -0.6592  0  2.30848  0  0  -0.689403  0  2.296151  0  0  -0.370351  -0.642563  0  2.31617  0
O  O81  1  0.66178765  0.03977556  0.78849695  1  0  -0.718547  0  2.07098  0  0  -0.659129  0  2.30863  0  0  -0.68931  0  2.296303  0  0  -0.370358  -0.642494  0  2.316335  0
O  O82  1  0.83821902  0.03978698  0.28849732  1  0  -0.718658  0  2.071076  0  0  -0.659217  0  2.308633  0  0  -0.689412  0  2.296287  0  0  -0.370466  -0.642583  0  2.316348  0
O  O83  1  0.33820071  0.96022829  0.21150168  1  0  -0.71854  0  2.07102  0  0  -0.659111  0  2.308644  0  0  -0.689278  0  2.296331  0  0  -0.370287  -0.64247  0  2.316327  0
O  O84  1  0.18436629  0.81698664  0.51790521  1  0  -0.71198  0  2.065118  0  0  -0.663245  0  2.323344  0  0  -0.693325  0  2.310491  0  0  -0.39284  -0.647154  0  2.331505  0
O  O85  1  0.68436002  0.18300199  0.98209358  1  0  -0.711983  0  2.065077  0  0  -0.663239  0  2.323314  0  0  -0.693334  0  2.310469  0  0  -0.39287  -0.647142  0  2.331474  0
O  O86  1  0.81563604  0.18301075  0.48209496  1  0  -0.711901  0  2.065267  0  0  -0.663182  0  2.323456  0  0  -0.693271  0  2.310589  0  0  -0.392844  -0.647084  0  2.331618  0
O  O87  1  0.31563932  0.81699682  0.01790449  1  0  -0.712019  0  2.065139  0  0  -0.663271  0  2.323384  0  0  -0.693354  0  2.310551  0  0  -0.392884  -0.647179  0  2.331544  0
O  O88  1  0.32356276  0.75939026  0.77285540  1  0  -0.68756  0  2.129213  0  0  -0.631791  0  2.363212  0  0  -0.655016  0  2.346219  0  0  -0.457684  -0.619625  0  2.374107  0
O  O89  1  0.82356097  0.24059600  0.72714473  1  0  -0.687561  0  2.129503  0  0  -0.63175  0  2.363427  0  0  -0.654975  0  2.346429  0  0  -0.457666  -0.619576  0  2.374316  0
O  O90  1  0.67644357  0.24060215  0.22714340  1  0  -0.687481  0  2.129401  0  0  -0.631722  0  2.363371  0  0  -0.654948  0  2.346379  0  0  -0.45766  -0.619548  0  2.374262  0
O  O91  1  0.17643637  0.75940162  0.27285218  1  0  -0.687752  0  2.129555  0  0  -0.631922  0  2.363452  0  0  -0.655139  0  2.346451  0  0  -0.457686  -0.619752  0  2.374349  0
O  O92  1  0.04168656  0.71533921  0.80439673  1  0  -0.763457  0  2.006101  0  0  -0.701574  0  2.249124  0  0  -0.734108  0  2.235654  0  0  -0.375761  -0.683257  0  2.256582  0
O  O93  1  0.54168406  0.28465927  0.69560281  1  0  -0.763452  0  2.006099  0  0  -0.7016  0  2.249101  0  0  -0.734118  0  2.235611  0  0  -0.375749  -0.683277  0  2.256555  0
O  O94  1  0.95831877  0.28467076  0.19560525  1  0  -0.763639  0  2.005948  0  0  -0.701829  0  2.248999  0  0  -0.734365  0  2.235538  0  0  -0.375936  -0.683504  0  2.256453  0
O  O95  1  0.45831228  0.71534323  0.30439711  1  0  -0.763482  0  2.006072  0  0  -0.701636  0  2.249091  0  0  -0.734151  0  2.235615  0  0  -0.375795  -0.683317  0  2.256553  0
O  O96  1  0.96706473  0.46706114  0.68105949  1  0  -0.626542  0  1.918062  0  0  -0.577882  0  2.140351  0  0  -0.600957  0  2.127556  0  0  -0.320304  -0.561377  0  2.148294  0
O  O97  1  0.46706167  0.53292996  0.81894810  1  0  -0.62661  0  1.918144  0  0  -0.577922  0  2.140437  0  0  -0.600998  0  2.12764  0  0  -0.320246  -0.561409  0  2.148374  0
O  O98  1  0.03293560  0.53293983  0.31894416  1  0  -0.626565  0  1.918097  0  0  -0.577905  0  2.140378  0  0  -0.600977  0  2.127579  0  0  -0.320215  -0.561395  0  2.148308  0
O  O99  1  0.53293169  0.46706699  0.18105860  1  0  -0.626518  0  1.918269  0  0  -0.577862  0  2.140538  0  0  -0.600932  0  2.127737  0  0  -0.320303  -0.561358  0  2.148481  0
