# generated using pymatgen
data_BaH3C7NO5
_symmetry_space_group_name_H-M   'P 1'
_cell_length_a   7.88535496
_cell_length_b   9.60315725
_cell_length_c   21.39862402
_cell_angle_alpha   90.00004647
_cell_angle_beta   89.99994203
_cell_angle_gamma   89.99998231
_symmetry_Int_Tables_number   1
_chemical_formula_structural   BaH3C7NO5
_chemical_formula_sum   'Ba8 H24 C56 N8 O40'
_cell_volume   1620.39590194
_cell_formula_units_Z   8
loop_
 _symmetry_equiv_pos_site_id
 _symmetry_equiv_pos_as_xyz
  1  'x, y, z'
loop_
 _atom_site_type_symbol
 _atom_site_label
 _atom_site_symmetry_multiplicity
 _atom_site_fract_x
 _atom_site_fract_y
 _atom_site_fract_z
 _atom_site_occupancy
 _atom_site_hle17_bader_spin_density
 _atom_site_hle17_ddec_charge
 _atom_site_hle17_ddec_spin_density
 _atom_site_hle17_ddec_sum_bond_order
 _atom_site_hle17_magmom
 _atom_site_hse06_10hf_bader_spin_density
 _atom_site_hse06_10hf_ddec_charge
 _atom_site_hse06_10hf_ddec_spin_density
 _atom_site_hse06_10hf_ddec_sum_bond_order
 _atom_site_hse06_10hf_magmom
 _atom_site_hse06_bader_spin_density
 _atom_site_hse06_ddec_charge
 _atom_site_hse06_ddec_spin_density
 _atom_site_hse06_ddec_sum_bond_order
 _atom_site_hse06_magmom
 _atom_site_pbe_bader_spin_density
 _atom_site_pbe_cm5_charge
 _atom_site_pbe_ddec_charge
 _atom_site_pbe_ddec_spin_density
 _atom_site_pbe_ddec_sum_bond_order
 _atom_site_pbe_magmom
Ba  Ba0  1  0.10381446  0.79876271  0.45776975  1  0  1.636759  0  1.184942  0  0  1.489185  0  1.592196  0  0  1.530034  0  1.548297  0  0  0.992259  1.459378  0  1.622895  0
Ba  Ba1  1  0.39618626  0.20123776  0.95776902  1  0  1.636749  0  1.184938  0  0  1.489182  0  1.592186  0  0  1.529994  0  1.548336  0  0  0.992232  1.459384  0  1.622886  0
Ba  Ba2  1  0.89618529  0.29876313  0.04223064  1  0  1.636752  0  1.184929  0  0  1.489189  0  1.592173  0  0  1.530005  0  1.548317  0  0  0.99224  1.459395  0  1.622891  0
Ba  Ba3  1  0.60381468  0.70123750  0.54223067  1  0  1.636777  0  1.184872  0  0  1.489217  0  1.592117  0  0  1.53003  0  1.548275  0  0  0.992272  1.459427  0  1.622824  0
Ba  Ba4  1  0.89618589  0.20123732  0.54223100  1  0  1.636751  0  1.184947  0  0  1.48917  0  1.592198  0  0  1.530014  0  1.548305  0  0  0.992219  1.459367  0  1.6229  0
Ba  Ba5  1  0.60381281  0.79876122  0.04223032  1  0  1.636753  0  1.18494  0  0  1.489188  0  1.59216  0  0  1.529988  0  1.548332  0  0  0.992228  1.459385  0  1.622856  0
Ba  Ba6  1  0.10381379  0.70123794  0.95776963  1  0  1.636754  0  1.184948  0  0  1.489162  0  1.592206  0  0  1.529995  0  1.548323  0  0  0.992243  1.459365  0  1.622913  0
Ba  Ba7  1  0.39618820  0.29876253  0.45776913  1  0  1.636751  0  1.184952  0  0  1.489215  0  1.592139  0  0  1.530019  0  1.548312  0  0  0.992246  1.459422  0  1.62285  0
H  H8  1  0.29136061  0.46846319  0.69016076  1  0  0.11407  0  0.971749  0  0  0.120811  0  1.037036  0  0  0.123779  0  1.036473  0  0  0.11123  0.118606  0  1.037711  0
H  H9  1  0.20863958  0.53153575  0.19016182  1  0  0.114068  0  0.971749  0  0  0.12081  0  1.037034  0  0  0.123777  0  1.036474  0  0  0.111237  0.118605  0  1.037707  0
H  H10  1  0.70864023  0.96846547  0.80983856  1  0  0.114049  0  0.971782  0  0  0.120827  0  1.037036  0  0  0.123795  0  1.036472  0  0  0.111238  0.118619  0  1.037709  0
H  H11  1  0.79135900  0.03153668  0.30983800  1  0  0.114088  0  0.971782  0  0  0.120831  0  1.037063  0  0  0.123798  0  1.036502  0  0  0.111247  0.118625  0  1.037741  0
H  H12  1  0.70863973  0.53153476  0.30983858  1  0  0.114089  0  0.971716  0  0  0.120831  0  1.037003  0  0  0.123798  0  1.036441  0  0  0.111247  0.118623  0  1.037676  0
H  H13  1  0.79135823  0.46846323  0.80983799  1  0  0.114097  0  0.971766  0  0  0.120839  0  1.037048  0  0  0.123806  0  1.036488  0  0  0.111249  0.11863  0  1.037728  0
H  H14  1  0.29136011  0.03153560  0.19016124  1  0  0.114095  0  0.971762  0  0  0.120835  0  1.037051  0  0  0.123804  0  1.036487  0  0  0.111251  0.118629  0  1.037725  0
H  H15  1  0.20864008  0.96846438  0.69016180  1  0  0.114076  0  0.971793  0  0  0.120817  0  1.037076  0  0  0.123784  0  1.036517  0  0  0.11125  0.118611  0  1.037752  0
H  H16  1  0.19553471  0.61804950  0.78074420  1  0  0.109999  0  0.961599  0  0  0.116955  0  1.025437  0  0  0.120874  0  1.022515  0  0  0.113509  0.114031  0  1.027668  0
H  H17  1  0.30446396  0.38194960  0.28074423  1  0  0.110003  0  0.961574  0  0  0.116956  0  1.025415  0  0  0.120875  0  1.022494  0  0  0.1135  0.114031  0  1.027647  0
H  H18  1  0.80446499  0.11805131  0.71925546  1  0  0.110001  0  0.961552  0  0  0.116965  0  1.025379  0  0  0.120885  0  1.022459  0  0  0.113523  0.11404  0  1.027611  0
H  H19  1  0.69553702  0.88194964  0.21925618  1  0  0.109992  0  0.961565  0  0  0.116942  0  1.025411  0  0  0.120862  0  1.022488  0  0  0.113492  0.114015  0  1.027645  0
H  H20  1  0.80446436  0.38194844  0.21925514  1  0  0.109895  0  0.961567  0  0  0.116867  0  1.025404  0  0  0.120785  0  1.022488  0  0  0.113488  0.113945  0  1.027635  0
H  H21  1  0.69553512  0.61805043  0.71925604  1  0  0.10999  0  0.961608  0  0  0.116945  0  1.025446  0  0  0.120863  0  1.022526  0  0  0.113507  0.114019  0  1.027677  0
H  H22  1  0.19553662  0.88194976  0.28074434  1  0  0.109917  0  0.961619  0  0  0.116868  0  1.02547  0  0  0.120788  0  1.022547  0  0  0.113473  0.113943  0  1.027697  0
H  H23  1  0.30446459  0.11804935  0.78074409  1  0  0.109874  0  0.961621  0  0  0.116827  0  1.025478  0  0  0.120745  0  1.022559  0  0  0.113472  0.113903  0  1.027707  0
H  H24  1  0.00191247  0.81727982  0.75959946  1  0  0.127126  0  0.933145  0  0  0.137542  0  0.989647  0  0  0.140862  0  0.989016  0  0  0.118348  0.135167  0  0.99029  0
H  H25  1  0.49808752  0.18271821  0.25959888  1  0  0.127137  0  0.933156  0  0  0.137548  0  0.98966  0  0  0.140869  0  0.98903  0  0  0.118352  0.135175  0  0.990315  0
H  H26  1  0.99808842  0.31728266  0.74040122  1  0  0.127111  0  0.93318  0  0  0.137518  0  0.98969  0  0  0.140839  0  0.98906  0  0  0.118336  0.135143  0  0.99034  0
H  H27  1  0.50191607  0.68271729  0.24040100  1  0  0.12712  0  0.933186  0  0  0.13754  0  0.989682  0  0  0.14086  0  0.989052  0  0  0.118343  0.135163  0  0.990334  0
H  H28  1  0.99808787  0.18271813  0.24040082  1  0  0.127107  0  0.933184  0  0  0.137518  0  0.989692  0  0  0.140838  0  0.989062  0  0  0.118335  0.135144  0  0.990339  0
H  H29  1  0.50191536  0.81728182  0.74040093  1  0  0.127105  0  0.933206  0  0  0.137525  0  0.989704  0  0  0.140846  0  0.989074  0  0  0.118336  0.135148  0  0.990361  0
H  H30  1  0.00191192  0.68271945  0.25959906  1  0  0.127139  0  0.933181  0  0  0.137553  0  0.98968  0  0  0.140874  0  0.989049  0  0  0.118356  0.135179  0  0.990322  0
H  H31  1  0.49808554  0.31728065  0.75959974  1  0  0.127133  0  0.933184  0  0  0.137547  0  0.989683  0  0  0.140868  0  0.989053  0  0  0.11835  0.135171  0  0.990335  0
C  C32  1  0.20230961  0.49514806  0.56784077  1  0  0.675617  0  3.927083  0  0  0.623396  0  4.22937  0  0  0.65865  0  4.215879  0  0  0.245199  0.599385  0  4.237993  0
C  C33  1  0.29769091  0.50485482  0.06784131  1  0  0.675562  0  3.926981  0  0  0.623421  0  4.22922  0  0  0.658643  0  4.215727  0  0  0.245174  0.599414  0  4.23784  0
C  C34  1  0.79769122  0.99514534  0.93215810  1  0  0.675679  0  3.926941  0  0  0.623518  0  4.229128  0  0  0.658752  0  4.21568  0  0  0.245265  0.599502  0  4.237756  0
C  C35  1  0.70231148  0.00485287  0.43215897  1  0  0.675639  0  3.926865  0  0  0.623477  0  4.229133  0  0  0.658696  0  4.215636  0  0  0.245182  0.599469  0  4.237757  0
C  C36  1  0.79769200  0.50485301  0.43215857  1  0  0.675526  0  3.927034  0  0  0.62336  0  4.229276  0  0  0.658567  0  4.215832  0  0  0.245184  0.599348  0  4.237902  0
C  C37  1  0.70230816  0.49514625  0.93215896  1  0  0.675634  0  3.926911  0  0  0.623485  0  4.229164  0  0  0.658707  0  4.215672  0  0  0.24521  0.599478  0  4.237786  0
C  C38  1  0.20230786  0.00485365  0.06784124  1  0  0.675658  0  3.927058  0  0  0.623474  0  4.229284  0  0  0.658714  0  4.21583  0  0  0.245225  0.599458  0  4.237916  0
C  C39  1  0.29769140  0.99514507  0.56784131  1  0  0.67552  0  3.926998  0  0  0.623379  0  4.229227  0  0  0.658571  0  4.215785  0  0  0.245164  0.599362  0  4.237861  0
C  C40  1  0.13922675  0.57636620  0.62409208  1  0  0.038262  0  3.582848  0  0  0.032527  0  3.833969  0  0  0.038678  0  3.842344  0  0  0.138325  0.028097  0  3.829115  0
C  C41  1  0.36077362  0.42363470  0.12409257  1  0  0.038433  0  3.582731  0  0  0.032523  0  3.834026  0  0  0.038796  0  3.842247  0  0  0.138378  0.028096  0  3.829159  0
C  C42  1  0.86077423  0.07636620  0.87590758  1  0  0.038255  0  3.582812  0  0  0.032534  0  3.83389  0  0  0.038676  0  3.842293  0  0  0.138344  0.028102  0  3.829036  0
C  C43  1  0.63922608  0.92363400  0.37590740  1  0  0.038423  0  3.582728  0  0  0.032522  0  3.834032  0  0  0.038802  0  3.842245  0  0  0.138385  0.028091  0  3.829176  0
C  C44  1  0.86077613  0.42363382  0.37590820  1  0  0.038244  0  3.582774  0  0  0.032428  0  3.833964  0  0  0.038656  0  3.842258  0  0  0.138337  0.027996  0  3.829111  0
C  C45  1  0.63922546  0.57636533  0.87590724  1  0  0.038358  0  3.582709  0  0  0.032473  0  3.833979  0  0  0.038741  0  3.842208  0  0  0.138365  0.028051  0  3.829107  0
C  C46  1  0.13922484  0.92363487  0.12409223  1  0  0.038239  0  3.582948  0  0  0.032519  0  3.834017  0  0  0.038652  0  3.842425  0  0  0.13833  0.028088  0  3.829167  0
C  C47  1  0.36077426  0.07636707  0.62409241  1  0  0.038407  0  3.58275  0  0  0.03251  0  3.834027  0  0  0.038791  0  3.842258  0  0  0.138376  0.028081  0  3.829169  0
C  C48  1  0.20052512  0.55233457  0.68396226  1  0  -0.09994  0  3.712026  0  0  -0.122682  0  3.966575  0  0  -0.125889  0  3.982014  0  0  -0.069096  -0.121056  0  3.956727  0
C  C49  1  0.29947508  0.44766540  0.18396232  1  0  -0.09998  0  3.712034  0  0  -0.122668  0  3.966619  0  0  -0.125915  0  3.982029  0  0  -0.069103  -0.121047  0  3.956764  0
C  C50  1  0.79947588  0.05233551  0.81603738  1  0  -0.099934  0  3.712028  0  0  -0.122734  0  3.966599  0  0  -0.125938  0  3.982043  0  0  -0.069099  -0.121107  0  3.956743  0
C  C51  1  0.70052460  0.94766666  0.31603859  1  0  -0.100004  0  3.71205  0  0  -0.122695  0  3.966628  0  0  -0.125944  0  3.982036  0  0  -0.069109  -0.121074  0  3.956783  0
C  C52  1  0.79947522  0.44766442  0.31603801  1  0  -0.09991  0  3.711961  0  0  -0.122628  0  3.966531  0  0  -0.125858  0  3.981952  0  0  -0.069067  -0.121002  0  3.956678  0
C  C53  1  0.70052399  0.55233358  0.81603795  1  0  -0.099991  0  3.712096  0  0  -0.122689  0  3.96668  0  0  -0.125934  0  3.982091  0  0  -0.069116  -0.121071  0  3.956832  0
C  C54  1  0.20052447  0.94766556  0.18396196  1  0  -0.099938  0  3.712037  0  0  -0.122689  0  3.966581  0  0  -0.12589  0  3.982025  0  0  -0.069093  -0.121067  0  3.956733  0
C  C55  1  0.29947447  0.05233337  0.68396169  1  0  -0.099975  0  3.712025  0  0  -0.122666  0  3.966599  0  0  -0.125913  0  3.982006  0  0  -0.06908  -0.12104  0  3.956745  0
C  C56  1  0.14992617  0.63666938  0.73353557  1  0  -0.011487  0  3.712646  0  0  -0.038124  0  3.977176  0  0  -0.033342  0  3.991663  0  0  -0.069603  -0.040914  0  3.967361  0
C  C57  1  0.35007516  0.36333068  0.23353558  1  0  -0.011476  0  3.712607  0  0  -0.038114  0  3.977119  0  0  -0.033333  0  3.991614  0  0  -0.069593  -0.040895  0  3.967296  0
C  C58  1  0.85007479  0.13667022  0.76646410  1  0  -0.011433  0  3.712531  0  0  -0.038079  0  3.977073  0  0  -0.033298  0  3.991559  0  0  -0.069611  -0.040863  0  3.96725  0
C  C59  1  0.64992582  0.86333081  0.26646437  1  0  -0.011453  0  3.712524  0  0  -0.038084  0  3.977031  0  0  -0.033303  0  3.991525  0  0  -0.069589  -0.040866  0  3.96721  0
C  C60  1  0.85007544  0.36332960  0.26646470  1  0  -0.011395  0  3.712511  0  0  -0.03804  0  3.977026  0  0  -0.03326  0  3.99152  0  0  -0.069611  -0.040825  0  3.967205  0
C  C61  1  0.64992518  0.63666935  0.76646423  1  0  -0.011447  0  3.712611  0  0  -0.038087  0  3.977134  0  0  -0.033306  0  3.99163  0  0  -0.069587  -0.040869  0  3.967309  0
C  C62  1  0.14992555  0.86333084  0.23353524  1  0  -0.011379  0  3.712552  0  0  -0.038012  0  3.977079  0  0  -0.033228  0  3.991564  0  0  -0.069583  -0.040794  0  3.967252  0
C  C63  1  0.35007452  0.13666922  0.73353544  1  0  -0.011349  0  3.712518  0  0  -0.03798  0  3.977025  0  0  -0.033198  0  3.99152  0  0  -0.069592  -0.040762  0  3.967197  0
C  C64  1  0.03964451  0.74716117  0.72205684  1  0  -0.11685  0  3.731699  0  0  -0.137105  0  3.987164  0  0  -0.141799  0  4.004203  0  0  -0.073684  -0.134433  0  3.976052  0
C  C65  1  0.46035559  0.25283782  0.22205676  1  0  -0.116906  0  3.731701  0  0  -0.137146  0  3.987153  0  0  -0.141842  0  4.004195  0  0  -0.073698  -0.134479  0  3.976059  0
C  C66  1  0.96035641  0.24716305  0.77794288  1  0  -0.116892  0  3.731676  0  0  -0.137162  0  3.987106  0  0  -0.141859  0  4.004143  0  0  -0.073704  -0.134491  0  3.976002  0
C  C67  1  0.53964417  0.75283801  0.27794314  1  0  -0.116852  0  3.73175  0  0  -0.137101  0  3.98719  0  0  -0.141797  0  4.004234  0  0  -0.07368  -0.134431  0  3.976083  0
C  C68  1  0.96035583  0.25283781  0.27794250  1  0  -0.11691  0  3.731662  0  0  -0.137141  0  3.987119  0  0  -0.141837  0  4.004159  0  0  -0.073692  -0.134471  0  3.976015  0
C  C69  1  0.53964222  0.74716220  0.77794305  1  0  -0.116854  0  3.731728  0  0  -0.137108  0  3.987169  0  0  -0.141805  0  4.004211  0  0  -0.073679  -0.134437  0  3.976067  0
C  C70  1  0.03964266  0.75283802  0.22205693  1  0  -0.116863  0  3.731789  0  0  -0.137103  0  3.987256  0  0  -0.141795  0  4.004299  0  0  -0.073681  -0.134431  0  3.976143  0
C  C71  1  0.46035744  0.24716098  0.72205713  1  0  -0.116878  0  3.731794  0  0  -0.13712  0  3.987251  0  0  -0.141815  0  4.004294  0  0  -0.073669  -0.134449  0  3.976143  0
C  C72  1  0.85697115  0.88444918  0.64298854  1  0  0.657346  0  3.984291  0  0  0.604364  0  4.292319  0  0  0.639178  0  4.280168  0  0  0.22531  0.580587  0  4.299714  0
C  C73  1  0.64302473  0.11554851  0.14298760  1  0  0.657274  0  3.984526  0  0  0.604358  0  4.292433  0  0  0.639171  0  4.280282  0  0  0.225285  0.580578  0  4.299838  0
C  C74  1  0.14302592  0.38445245  0.85701262  1  0  0.65742  0  3.98443  0  0  0.60436  0  4.292519  0  0  0.639172  0  4.280371  0  0  0.225296  0.58057  0  4.299934  0
C  C75  1  0.35697001  0.61555096  0.35701179  1  0  0.657403  0  3.984181  0  0  0.604355  0  4.292308  0  0  0.639168  0  4.280157  0  0  0.225307  0.580574  0  4.299709  0
C  C76  1  0.14302792  0.11554980  0.35701173  1  0  0.657392  0  3.984368  0  0  0.604381  0  4.292447  0  0  0.639195  0  4.280296  0  0  0.225314  0.580595  0  4.29985  0
C  C77  1  0.35697053  0.88444944  0.85701174  1  0  0.657513  0  3.984124  0  0  0.604372  0  4.292391  0  0  0.639185  0  4.280243  0  0  0.225346  0.580587  0  4.299799  0
C  C78  1  0.85697316  0.61554966  0.14298859  1  0  0.657488  0  3.984278  0  0  0.604444  0  4.292416  0  0  0.639261  0  4.280263  0  0  0.225335  0.580666  0  4.299814  0
C  C79  1  0.64302399  0.38445219  0.64298802  1  0  0.657434  0  3.984297  0  0  0.604423  0  4.292386  0  0  0.639237  0  4.280237  0  0  0.225361  0.580634  0  4.299794  0
C  C80  1  0.97670957  0.76781879  0.66219814  1  0  0.021055  0  3.609574  0  0  0.015762  0  3.862649  0  0  0.020713  0  3.873456  0  0  0.125009  0.01233  0  3.855863  0
C  C81  1  0.52329133  0.23218205  0.16219776  1  0  0.021078  0  3.609493  0  0  0.015769  0  3.862533  0  0  0.020716  0  3.873353  0  0  0.124999  0.012327  0  3.85576  0
C  C82  1  0.02329261  0.26781997  0.83780158  1  0  0.020996  0  3.609557  0  0  0.015814  0  3.862527  0  0  0.020773  0  3.873321  0  0  0.12504  0.012382  0  3.855748  0
C  C83  1  0.47670971  0.73218132  0.33780167  1  0  0.020977  0  3.609659  0  0  0.015704  0  3.862724  0  0  0.020647  0  3.873553  0  0  0.124989  0.012273  0  3.855936  0
C  C84  1  0.02329331  0.23218124  0.33780213  1  0  0.021141  0  3.609489  0  0  0.01583  0  3.862596  0  0  0.020781  0  3.873405  0  0  0.125083  0.012393  0  3.855821  0
C  C85  1  0.47670774  0.76781901  0.83780158  1  0  0.020993  0  3.60953  0  0  0.015752  0  3.862616  0  0  0.020702  0  3.87343  0  0  0.125004  0.012315  0  3.855837  0
C  C86  1  0.97670646  0.73218214  0.16219870  1  0  0.020941  0  3.609721  0  0  0.01563  0  3.862854  0  0  0.020569  0  3.873681  0  0  0.124994  0.012195  0  3.856076  0
C  C87  1  0.52329317  0.26781975  0.66219860  1  0  0.021051  0  3.609673  0  0  0.015741  0  3.862778  0  0  0.020683  0  3.873608  0  0  0.125044  0.01231  0  3.855994  0
N  N88  1  0.02320407  0.67961454  0.61518126  1  0  0.254628  0  3.678573  0  0  0.295776  0  3.937124  0  0  0.296633  0  3.955335  0  0  -0.096466  0.294576  0  3.925355  0
N  N89  1  0.47679633  0.32038634  0.11518121  1  0  0.254611  0  3.678546  0  0  0.295815  0  3.937112  0  0  0.296636  0  3.955307  0  0  -0.096451  0.294621  0  3.925335  0
N  N90  1  0.97679815  0.17961348  0.88481843  1  0  0.254734  0  3.678552  0  0  0.295842  0  3.937089  0  0  0.2967  0  3.955303  0  0  -0.096491  0.294644  0  3.925319  0
N  N91  1  0.52320214  0.82038672  0.38481872  1  0  0.254602  0  3.678623  0  0  0.295807  0  3.937179  0  0  0.296627  0  3.955374  0  0  -0.096468  0.29461  0  3.925404  0
N  N92  1  0.97679881  0.32038548  0.38481808  1  0  0.254705  0  3.678621  0  0  0.295886  0  3.937175  0  0  0.296722  0  3.955375  0  0  -0.09651  0.294687  0  3.925405  0
N  N93  1  0.52320021  0.67961368  0.88481860  1  0  0.254658  0  3.678597  0  0  0.29584  0  3.937154  0  0  0.296661  0  3.955352  0  0  -0.096495  0.294646  0  3.925373  0
N  N94  1  0.02320219  0.82038654  0.11518138  1  0  0.254679  0  3.678677  0  0  0.295831  0  3.937232  0  0  0.296697  0  3.955448  0  0  -0.096464  0.294629  0  3.925466  0
N  N95  1  0.47679820  0.17961434  0.61518156  1  0  0.254601  0  3.678708  0  0  0.295801  0  3.937274  0  0  0.296624  0  3.955469  0  0  -0.09655  0.294603  0  3.925502  0
O  O96  1  0.28060163  0.56175007  0.52506045  1  0  -0.735653  0  1.966846  0  0  -0.676873  0  2.214686  0  0  -0.703684  0  2.2038  0  0  -0.354089  -0.657928  0  2.221567  0
O  O97  1  0.21940028  0.43825065  0.02506006  1  0  -0.735658  0  1.966793  0  0  -0.676888  0  2.214617  0  0  -0.703689  0  2.203711  0  0  -0.35408  -0.657942  0  2.221495  0
O  O98  1  0.71940063  0.06175028  0.97493920  1  0  -0.735687  0  1.966793  0  0  -0.676945  0  2.214636  0  0  -0.703726  0  2.203714  0  0  -0.35411  -0.657996  0  2.221514  0
O  O99  1  0.78060068  0.93824801  0.47493991  1  0  -0.735694  0  1.96678  0  0  -0.676911  0  2.214609  0  0  -0.703727  0  2.203729  0  0  -0.354098  -0.657965  0  2.221488  0
O  O100  1  0.71939998  0.43824892  0.47493983  1  0  -0.735659  0  1.966823  0  0  -0.676901  0  2.21467  0  0  -0.703695  0  2.203785  0  0  -0.354098  -0.657955  0  2.221551  0
O  O101  1  0.78059879  0.56175041  0.97493975  1  0  -0.735676  0  1.966808  0  0  -0.676913  0  2.214629  0  0  -0.703712  0  2.203724  0  0  -0.354095  -0.657969  0  2.221511  0
O  O102  1  0.28059844  0.93825079  0.02506014  1  0  -0.735662  0  1.966804  0  0  -0.6769  0  2.214623  0  0  -0.703689  0  2.203712  0  0  -0.354074  -0.65795  0  2.221503  0
O  O103  1  0.21939966  0.06175097  0.52505990  1  0  -0.735652  0  1.966775  0  0  -0.676884  0  2.214587  0  0  -0.703687  0  2.203719  0  0  -0.35408  -0.657928  0  2.221463  0
O  O104  1  0.18095105  0.36494922  0.56873006  1  0  -0.678063  0  1.975604  0  0  -0.623163  0  2.218796  0  0  -0.649662  0  2.209847  0  0  -0.353122  -0.604409  0  2.224446  0
O  O105  1  0.31904693  0.63505054  0.06873064  1  0  -0.678059  0  1.97562  0  0  -0.623165  0  2.218757  0  0  -0.649665  0  2.20982  0  0  -0.353134  -0.60442  0  2.224418  0
O  O106  1  0.81904856  0.86495065  0.93126876  1  0  -0.678087  0  1.975599  0  0  -0.623211  0  2.21876  0  0  -0.6497  0  2.209819  0  0  -0.353169  -0.604455  0  2.224409  0
O  O107  1  0.68095795  0.13505068  0.43126922  1  0  -0.678102  0  1.975579  0  0  -0.623217  0  2.21877  0  0  -0.649717  0  2.209834  0  0  -0.353127  -0.604469  0  2.224431  0
O  O108  1  0.81905183  0.63504768  0.43127022  1  0  -0.678002  0  1.975639  0  0  -0.623126  0  2.218833  0  0  -0.649617  0  2.209906  0  0  -0.353133  -0.604372  0  2.224484  0
O  O109  1  0.68095214  0.36494844  0.93126916  1  0  -0.6781  0  1.975591  0  0  -0.623204  0  2.218743  0  0  -0.649704  0  2.209805  0  0  -0.353144  -0.604461  0  2.224407  0
O  O110  1  0.18095052  0.13505042  0.06873058  1  0  -0.67808  0  1.975614  0  0  -0.623189  0  2.218778  0  0  -0.649679  0  2.209835  0  0  -0.353145  -0.604433  0  2.22443  0
O  O111  1  0.31904874  0.86495247  0.56873012  1  0  -0.678017  0  1.975673  0  0  -0.623135  0  2.21885  0  0  -0.649625  0  2.209932  0  0  -0.353124  -0.604384  0  2.224513  0
O  O112  1  0.70052925  0.85636365  0.64170717  1  0  -0.670417  0  1.928843  0  0  -0.617644  0  2.163708  0  0  -0.644014  0  2.15402  0  0  -0.365682  -0.598445  0  2.169484  0
O  O113  1  0.79947045  0.14363508  0.14170619  1  0  -0.670384  0  1.928792  0  0  -0.617658  0  2.163667  0  0  -0.64403  0  2.153981  0  0  -0.365697  -0.598462  0  2.169447  0
O  O114  1  0.29947164  0.35636687  0.85829351  1  0  -0.670423  0  1.928704  0  0  -0.617657  0  2.163651  0  0  -0.64403  0  2.153966  0  0  -0.365691  -0.598454  0  2.16943  0
O  O115  1  0.20052936  0.64363654  0.35829274  1  0  -0.67044  0  1.928834  0  0  -0.617626  0  2.163709  0  0  -0.644  0  2.154018  0  0  -0.365691  -0.598428  0  2.169485  0
O  O116  1  0.29947236  0.14363638  0.35829263  1  0  -0.670436  0  1.928784  0  0  -0.617666  0  2.163665  0  0  -0.644036  0  2.153977  0  0  -0.365698  -0.598468  0  2.169446  0
O  O117  1  0.20052736  0.85636391  0.85829269  1  0  -0.670481  0  1.928723  0  0  -0.617642  0  2.163652  0  0  -0.644016  0  2.153963  0  0  -0.365693  -0.598441  0  2.169432  0
O  O118  1  0.70052617  0.64363628  0.14170723  1  0  -0.670484  0  1.928718  0  0  -0.617697  0  2.163629  0  0  -0.644067  0  2.153938  0  0  -0.365707  -0.598498  0  2.169408  0
O  O119  1  0.79947479  0.35636557  0.64170753  1  0  -0.67048  0  1.928653  0  0  -0.617681  0  2.163495  0  0  -0.644058  0  2.153806  0  0  -0.36571  -0.598474  0  2.169271  0
O  O120  1  0.92762744  0.99904272  0.63028539  1  0  -0.671166  0  1.955714  0  0  -0.616136  0  2.198069  0  0  -0.643631  0  2.188666  0  0  -0.354349  -0.596434  0  2.20394  0
O  O121  1  0.57236974  0.00095806  0.13028444  1  0  -0.671141  0  1.955943  0  0  -0.616134  0  2.198259  0  0  -0.643624  0  2.188859  0  0  -0.354315  -0.596412  0  2.204095  0
O  O122  1  0.07236958  0.49904082  0.86971534  1  0  -0.6712  0  1.955955  0  0  -0.616154  0  2.198353  0  0  -0.643649  0  2.188953  0  0  -0.354339  -0.596434  0  2.204203  0
O  O123  1  0.42762758  0.50095740  0.36971490  1  0  -0.671183  0  1.95563  0  0  -0.616142  0  2.198028  0  0  -0.643628  0  2.188617  0  0  -0.354349  -0.596442  0  2.203907  0
O  O124  1  0.07237290  0.00095834  0.36971488  1  0  -0.671193  0  1.955846  0  0  -0.616145  0  2.198224  0  0  -0.64364  0  2.188821  0  0  -0.354351  -0.59644  0  2.204098  0
O  O125  1  0.42762679  0.99904196  0.86971397  1  0  -0.67122  0  1.955715  0  0  -0.616139  0  2.19815  0  0  -0.643628  0  2.188742  0  0  -0.354373  -0.596446  0  2.204048  0
O  O126  1  0.92762569  0.50095920  0.13028540  1  0  -0.671173  0  1.955811  0  0  -0.61612  0  2.198198  0  0  -0.64361  0  2.18879  0  0  -0.354362  -0.59643  0  2.204095  0
O  O127  1  0.57237276  0.49903846  0.63028537  1  0  -0.671171  0  1.95592  0  0  -0.616137  0  2.198309  0  0  -0.643619  0  2.188898  0  0  -0.354375  -0.596438  0  2.204198  0
O  O128  1  0.95129553  0.69526652  0.55958032  1  0  -0.651284  0  1.856005  0  0  -0.604594  0  2.114173  0  0  -0.627364  0  2.110956  0  0  -0.333083  -0.588545  0  2.116373  0
O  O129  1  0.54870566  0.30473414  0.05957995  1  0  -0.651313  0  1.856026  0  0  -0.604619  0  2.11416  0  0  -0.627392  0  2.110958  0  0  -0.333092  -0.588571  0  2.116356  0
O  O130  1  0.04870542  0.19526684  0.94041984  1  0  -0.651345  0  1.855976  0  0  -0.604651  0  2.11417  0  0  -0.62742  0  2.110953  0  0  -0.333084  -0.588602  0  2.116368  0
O  O131  1  0.45129535  0.80473360  0.44041997  1  0  -0.651294  0  1.855989  0  0  -0.604615  0  2.114158  0  0  -0.627389  0  2.110955  0  0  -0.333087  -0.588564  0  2.11635  0
O  O132  1  0.04870608  0.30473351  0.44041949  1  0  -0.651335  0  1.855999  0  0  -0.604644  0  2.114152  0  0  -0.627415  0  2.110941  0  0  -0.333068  -0.588592  0  2.116344  0
O  O133  1  0.45129341  0.69526693  0.94041986  1  0  -0.651336  0  1.856101  0  0  -0.604606  0  2.114214  0  0  -0.627379  0  2.111013  0  0  -0.333071  -0.588562  0  2.116413  0
O  O134  1  0.95129366  0.80473319  0.05958044  1  0  -0.651313  0  1.856013  0  0  -0.604611  0  2.114166  0  0  -0.62738  0  2.110944  0  0  -0.333082  -0.588559  0  2.116363  0
O  O135  1  0.54870499  0.19526747  0.55958031  1  0  -0.651344  0  1.856052  0  0  -0.604633  0  2.114166  0  0  -0.627405  0  2.110959  0  0  -0.333084  -0.588586  0  2.116368  0
