# generated using pymatgen
data_Zn4H14(C8O5)3
_symmetry_space_group_name_H-M   'P 1'
_cell_length_a   18.46936894
_cell_length_b   18.56286988
_cell_length_c   18.61887051
_cell_angle_alpha   90.40399255
_cell_angle_beta   119.82789633
_cell_angle_gamma   119.55272739
_symmetry_Int_Tables_number   1
_chemical_formula_structural   Zn4H14(C8O5)3
_chemical_formula_sum   'Zn8 H28 C48 O30'
_cell_volume   4539.91107660
_cell_formula_units_Z   2
loop_
 _symmetry_equiv_pos_site_id
 _symmetry_equiv_pos_as_xyz
  1  'x, y, z'
loop_
 _atom_site_type_symbol
 _atom_site_label
 _atom_site_symmetry_multiplicity
 _atom_site_fract_x
 _atom_site_fract_y
 _atom_site_fract_z
 _atom_site_occupancy
 _atom_site_pbe_bader_charge
 _atom_site_pbe_bader_spin_density
 _atom_site_pbe_cm5_charge
 _atom_site_pbe_ddec_charge
 _atom_site_pbe_ddec_spin_density
 _atom_site_pbe_ddec_sum_bond_order
 _atom_site_pbe_magmom
Zn  Zn0  1  0.58764727  0.04386656  0.13227271  1  1.303623  0  0.672685  0.968106  0  2.351035  0
Zn  Zn1  1  0.41726177  0.87262285  0.95846836  1  1.312632  0  0.672636  0.965001  0  2.369972  0
Zn  Zn2  1  0.58747333  0.04394641  0.95864584  1  1.307561  0  0.671286  0.96167  0  2.390464  0
Zn  Zn3  1  0.41487292  0.04413175  0.95862615  1  1.311136  0  0.669307  0.964375  0  2.373072  0
Zn  Zn4  1  0.41203745  0.45571288  0.37034901  1  1.305457  0  0.670765  0.961639  0  2.374959  0
Zn  Zn5  1  0.41665825  0.45818772  0.54449287  1  1.320855  0  0.664809  0.956178  0  2.397273  0
Zn  Zn6  1  0.58660716  0.62856355  0.54210212  1  1.306885  0  0.667013  0.959248  0  2.385319  0
Zn  Zn7  1  0.58718295  0.45527688  0.54103489  1  1.319226  0  0.669465  0.962447  0  2.369683  0
H  H8  1  0.36567976  0.97433777  0.29586184  1  0.056176  0  0.102486  0.098126  0  0.991519  0
H  H9  1  0.09638692  0.68683501  0.81554090  1  0.122565  0  0.115572  0.114491  0  0.971033  0
H  H10  1  0.57503081  0.27997222  0.10447653  1  0.062872  0  0.101146  0.104329  0  1.010625  0
H  H11  1  0.08370700  0.84366803  0.77967127  1  0.088699  0  0.112886  0.131013  0  0.984522  0
H  H12  1  0.59934175  0.81164515  0.69289585  1  0.099516  0  0.114249  0.113738  0  0.974792  0
H  H13  1  0.46493611  0.65677538  0.72879820  1  0.092227  0  0.112979  0.131195  0  0.983484  0
H  H14  1  0.61583701  0.90589359  0.80371454  1  0.104904  0  0.115517  0.11548  0  0.972434  0
H  H15  1  0.41701205  0.73893207  0.75999859  1  0.09827  0  0.113259  0.132298  0  0.983973  0
H  H16  1  0.61229144  0.81284417  0.40230347  1  0.094922  0  0.116072  0.116288  0  0.970997  0
H  H17  1  0.43059636  0.65118240  0.23483068  1  0.119641  0  0.113956  0.140044  0  1.002648  0
H  H18  1  0.57632976  0.89707420  0.30133390  1  0.106554  0  0.1184  0.122336  0  0.972796  0
H  H19  1  0.08231705  0.31435062  0.35291627  1  0.068797  0  0.113218  0.131462  0  0.985192  0
H  H20  1  0.63999284  0.43331493  0.11098131  1  0.065218  0  0.102044  0.097711  0  0.993364  0
H  H21  1  0.63753148  0.52805486  0.20475611  1  0.028431  0  0.099284  0.093776  0  0.998141  0
H  H22  1  0.56961350  0.46870693  0.29113770  1  0.063999  0  0.101258  0.104917  0  1.010467  0
H  H23  1  0.42440212  0.22134862  0.39325653  1  0.037758  0  0.10096  0.104099  0  1.011704  0
H  H24  1  0.36245194  0.06889540  0.38904431  1  0.041579  0  0.102504  0.098368  0  0.99135  0
H  H25  1  0.43023677  0.03255197  0.20712231  1  0.07743  0  0.101141  0.105177  0  1.012277  0
H  H26  1  0.09179416  0.32130492  0.19171073  1  0.147346  0  0.121332  0.129555  0  0.969737  0
H  H27  1  0.80846926  0.29527655  0.01512759  1  0.630403  0  0.34643  0.385498  0  0.849673  0
H  H28  1  0.54652605  0.66220716  0.13094547  1  0.622786  0  0.347889  0.384207  0  0.84851  0
H  H29  1  0.92623181  0.18227006  0.25899700  1  0.108096  0  0.119276  0.140912  0  0.977199  0
H  H30  1  0.60412857  0.28708369  0.69643805  1  0.104992  0  0.114122  0.11342  0  0.973124  0
H  H31  1  0.45854097  0.30363939  0.72015958  1  0.086334  0  0.113438  0.130811  0  0.983943  0
H  H32  1  0.61791474  0.20916532  0.80392789  1  0.092912  0  0.111037  0.109659  0  0.978777  0
H  H33  1  0.43924610  0.20308383  0.78519314  1  0.067903  0  0.113857  0.133076  0  0.98269  0
H  H34  1  0.91029824  0.59312475  0.70231783  1  0.12648  0  0.114192  0.112934  0  0.973849  0
H  H35  1  0.91893249  0.76244734  0.72600420  1  0.081719  0  0.113056  0.131029  0  0.985669  0
C  C36  1  0.22857134  0.86215980  0.86938943  1  1.537243  0  0.219231  0.64067  0  4.182746  0
C  C37  1  0.39128677  0.09551658  0.34993499  1  -0.077144  0  -0.094314  -0.086409  0  4.048315  0
C  C38  1  0.39302609  0.04179718  0.29694658  1  -0.022521  0  -0.094341  -0.084196  0  4.048675  0
C  C39  1  0.77565818  0.13280113  0.14070629  1  1.540365  0  0.223978  0.650543  0  4.179272  0
C  C40  1  0.42879117  0.07426092  0.24713953  1  -0.010302  0  -0.092347  -0.130657  0  3.983216  0
C  C41  1  0.05533494  0.30235416  0.22638371  1  -0.110842  0  -0.058615  -0.039576  0  3.939323  0
C  C42  1  0.11416302  0.32728449  0.31469912  1  0.013441  0  -0.089046  -0.22788  0  3.893111  0
C  C43  1  0.94447215  0.25074700  0.17230821  1  -0.073785  0  0.010356  0.027441  0  3.941326  0
C  C44  1  0.88820458  0.19101334  0.19600029  1  0.045261  0  -0.07194  -0.230897  0  3.811773  0
C  C45  1  0.55857061  0.27562068  0.72175255  1  -0.072415  0  -0.067003  -0.023324  0  3.972865  0
C  C46  1  0.50451085  0.31072807  0.69667386  1  0.017104  0  -0.083707  -0.217432  0  3.870407  0
C  C47  1  0.57100919  0.42708344  0.25098575  1  -0.039135  0  -0.091465  -0.128248  0  3.981832  0
C  C48  1  0.56163797  0.22452185  0.78059047  1  -0.035635  0  -0.06725  -0.024367  0  3.977317  0
C  C49  1  0.49955241  0.19320234  0.80758270  1  -0.010827  0  -0.086929  -0.225147  0  3.875608  0
C  C50  1  0.94766162  0.66386466  0.72743329  1  0.029403  0  -0.063931  -0.018782  0  3.965871  0
C  C51  1  0.51567036  0.86569926  0.13747357  1  1.597107  0  0.226668  0.616884  0  4.183985  0
C  C52  1  0.88767165  0.69316513  0.70198202  1  -0.072601  0  -0.085442  -0.223711  0  3.875665  0
C  C53  1  0.05803044  0.71919714  0.78690201  1  -0.1044  0  -0.062223  -0.015389  0  3.963127  0
C  C54  1  0.11649318  0.80738322  0.80815205  1  -8.4e-05  0  -0.085839  -0.225528  0  3.874806  0
C  C55  1  0.55520913  0.78020856  0.71974743  1  -0.115045  0  -0.064852  -0.019768  0  3.97513  0
C  C56  1  0.50692718  0.69245537  0.70145269  1  0.024723  0  -0.086252  -0.225168  0  3.876478  0
C  C57  1  0.55446272  0.83579093  0.77405512  1  0.031184  0  -0.063722  -0.017356  0  3.97308  0
C  C58  1  0.53331275  0.33853528  0.24980732  1  -0.010287  0  0.000368  0.063177  0  3.971802  0
C  C59  1  0.48258438  0.80726923  0.78973210  1  -0.084507  0  -0.086838  -0.228543  0  3.881245  0
C  C60  1  0.55606690  0.77800392  0.33158030  1  -0.122185  0  -0.066305  -0.019566  0  3.976109  0
C  C61  1  0.49222656  0.68964311  0.30381648  1  0.05328  0  -0.086079  -0.223679  0  3.862921  0
C  C62  1  0.55231696  0.83068100  0.27451615  1  0.044724  0  -0.055722  -0.037042  0  3.926223  0
C  C63  1  0.50596130  0.14145493  0.86758439  1  1.550445  0  0.21604  0.634711  0  4.193447  0
C  C64  1  0.52263411  0.80680220  0.19067907  1  -0.045656  0  -0.009981  -0.167798  0  3.866273  0
C  C65  1  0.50234264  0.36156378  0.63582984  1  1.528423  0  0.21823  0.636281  0  4.19553  0
C  C66  1  0.49927397  0.63762339  0.36366403  1  1.527932  0  0.218881  0.639741  0  4.186902  0
C  C67  1  0.22599887  0.37452926  0.36656925  1  1.60089  0  0.219448  0.640347  0  4.189372  0
C  C68  1  0.77562102  0.63493594  0.64029980  1  1.51297  0  0.218244  0.639718  0  4.189215  0
C  C69  1  0.53469679  0.28375062  0.19555462  1  0.097943  0  -0.000276  0.061963  0  3.973501  0
C  C70  1  0.50647397  0.63792784  0.64291032  1  1.530913  0  0.217551  0.638587  0  4.192239  0
C  C71  1  0.49769062  0.36093303  0.35889186  1  1.55405  0  0.232943  0.620537  0  4.171842  0
C  C72  1  0.48849946  0.86536250  0.84992292  1  1.544224  0  0.219077  0.641415  0  4.188475  0
C  C73  1  0.50148555  0.14001916  0.13898098  1  1.5426  0  0.235034  0.624945  0  4.163158  0
C  C74  1  0.57389869  0.32074441  0.14576010  1  -0.025365  0  -0.091346  -0.12649  0  3.983142  0
C  C75  1  0.60986214  0.40629526  0.14913839  1  -0.052656  0  -0.095138  -0.08632  0  4.051898  0
C  C76  1  0.60832850  0.46004351  0.20231133  1  -0.020332  0  -0.095174  -0.086662  0  4.055488  0
C  C77  1  0.89679474  0.26295705  0.08461006  1  1.550839  0  0.235622  0.587024  0  4.119165  0
C  C78  1  0.49114600  0.71996347  0.14358860  1  1.547001  0  0.234502  0.609363  0  4.126848  0
C  C79  1  0.49771021  0.30384262  0.30132662  1  -0.025736  0  -0.005003  -0.112956  0  3.894441  0
C  C80  1  0.46360500  0.21716707  0.30139402  1  -0.047341  0  0.000269  0.061549  0  3.974258  0
C  C81  1  0.46507103  0.16239224  0.24724044  1  0.019484  0  0.000135  0.063535  0  3.971975  0
C  C82  1  0.50032151  0.19700287  0.19545266  1  -0.032686  0  -0.005538  -0.11534  0  3.895178  0
C  C83  1  0.42558793  0.18057181  0.35204779  1  0.017388  0  -0.091406  -0.127062  0  3.983399  0
O  O84  1  0.50292199  0.00204567  0.00336641  1  -1.205138  0  -0.572931  -1.034177  0  2.536635  0
O  O85  1  0.73140767  0.67458098  0.61787191  1  -1.169687  0  -0.320969  -0.55154  0  2.299453  0
O  O86  1  0.45057027  0.55502316  0.62645978  1  -1.152111  0  -0.320389  -0.547921  0  2.293023  0
O  O87  1  0.27129361  0.94470230  0.88209602  1  -1.154455  0  -0.320215  -0.550617  0  2.292963  0
O  O88  1  0.56140949  0.38420237  0.44143058  1  -1.159565  0  -0.309195  -0.541563  0  2.326154  0
O  O89  1  0.55985288  0.67643956  0.61342042  1  -1.180785  0  -0.319872  -0.556235  0  2.322633  0
O  O90  1  0.43421759  0.38098418  0.32043494  1  -1.162014  0  -0.307742  -0.538859  0  2.317652  0
O  O91  1  0.26773717  0.39080148  0.32545876  1  -1.171115  0  -0.31632  -0.547353  0  2.314693  0
O  O92  1  0.73253609  0.55197870  0.61477250  1  -1.155958  0  -0.319359  -0.553667  0  2.312897  0
O  O93  1  0.44001405  0.38307037  0.61345214  1  -1.164221  0  -0.319721  -0.547389  0  2.30318  0
O  O94  1  0.56299528  0.67819396  0.44645013  1  -1.173066  0  -0.317287  -0.551116  0  2.314686  0
O  O95  1  0.55171866  0.94386680  0.17651248  1  -1.175389  0  -0.313706  -0.547147  0  2.319073  0
O  O96  1  0.73377369  0.10937066  0.18181262  1  -1.151816  0  -0.316233  -0.543737  0  2.270331  0
O  O97  1  0.47315222  0.83139252  0.05598865  1  -1.156318  0  -0.308701  -0.534048  0  2.316159  0
O  O98  1  0.57427671  0.12629002  0.89597392  1  -1.181824  0  -0.321921  -0.561838  0  2.32306  0
O  O99  1  0.42225860  0.82663477  0.86706184  1  -1.149587  0  -0.320279  -0.549011  0  2.290053  0
O  O100  1  0.43892072  0.11649575  0.05613098  1  -1.160989  0  -0.308916  -0.542487  0  2.320226  0
O  O101  1  0.55806108  0.94775066  0.88027780  1  -1.175994  0  -0.319907  -0.555436  0  2.32132  0
O  O102  1  0.56490744  0.12012045  0.17885519  1  -1.157837  0  -0.309719  -0.542559  0  2.318081  0
O  O103  1  0.91266167  0.25160434  0.03081285  1  -1.106084  0  -0.287078  -0.471846  0  2.028695  0
O  O104  1  0.83957769  0.29272521  0.07489956  1  -1.117671  0  -0.335297  -0.481803  0  2.215057  0
O  O105  1  0.40348589  0.65642280  0.09308799  1  -1.126549  0  -0.282666  -0.472236  0  2.040777  0
O  O106  1  0.44078342  0.11594050  0.88590853  1  -1.155534  0  -0.317656  -0.54566  0  2.290261  0
O  O107  1  0.57330786  0.72073956  0.16413805  1  -1.113692  0  -0.336016  -0.484937  0  2.184175  0
O  O108  1  0.27359382  0.82461590  0.90413721  1  -1.173483  0  -0.319243  -0.553779  0  2.305428  0
O  O109  1  0.73128021  0.10982438  0.05783830  1  -1.164264  0  -0.309086  -0.543574  0  2.354694  0
O  O110  1  0.50118002  0.49933911  0.49943773  1  -1.231142  0  -0.571857  -1.030305  0  2.535114  0
O  O111  1  0.56078682  0.37963260  0.61094622  1  -1.172969  0  -0.318596  -0.55366  0  2.310642  0
O  O112  1  0.43922308  0.55436086  0.32499391  1  -1.157527  0  -0.317383  -0.545006  0  2.297788  0
O  O113  1  0.27123207  0.39452631  0.44991415  1  -1.156571  0  -0.319816  -0.548244  0  2.296569  0
