# generated using pymatgen
data_AlH12C24(NO4)3
_symmetry_space_group_name_H-M   'P 1'
_cell_length_a   4.16341554
_cell_length_b   28.59845352
_cell_length_c   28.59906053
_cell_angle_alpha   120.00024698
_cell_angle_beta   90.00100394
_cell_angle_gamma   90.00027242
_symmetry_Int_Tables_number   1
_chemical_formula_structural   AlH12C24(NO4)3
_chemical_formula_sum   'Al2 H24 C48 N6 O24'
_cell_volume   2948.99220952
_cell_formula_units_Z   2
loop_
 _symmetry_equiv_pos_site_id
 _symmetry_equiv_pos_as_xyz
  1  'x, y, z'
loop_
 _atom_site_type_symbol
 _atom_site_label
 _atom_site_symmetry_multiplicity
 _atom_site_fract_x
 _atom_site_fract_y
 _atom_site_fract_z
 _atom_site_occupancy
 _atom_site_pbe_bader_charge
 _atom_site_pbe_bader_spin_density
 _atom_site_pbe_cm5_charge
 _atom_site_pbe_ddec_charge
 _atom_site_pbe_ddec_spin_density
 _atom_site_pbe_ddec_sum_bond_order
 _atom_site_pbe_magmom
Al  Al0  1  0.02452304  0.49999902  0.49999721  1  2.514638  0  0.447658  1.626838  0  2.539158  0
Al  Al1  1  0.02456159  0.16667237  0.83333558  1  2.514759  0  0.447735  1.626746  0  2.539405  0
H  H2  1  0.84595686  0.19376568  0.70529521  1  0.08071  0  0.114093  0.12104  0  0.972882  0
H  H3  1  0.83128691  0.24916738  0.66172269  1  0.102134  0  0.106232  0.112478  0  1.030483  0
H  H4  1  0.17047807  0.35931049  0.78411822  1  0.086843  0  0.111058  0.11716  0  0.990436  0
H  H5  1  0.18535215  0.30325734  0.82730577  1  0.113507  0  0.113342  0.120044  0  0.977609  0
H  H6  1  0.17044628  0.30736599  0.54921461  1  0.08698  0  0.111158  0.117301  0  0.99025  0
H  H7  1  0.83127588  0.41750593  0.67161829  1  0.101986  0  0.106277  0.112529  0  1.030577  0
H  H8  1  0.84594482  0.47291467  0.62805282  1  0.080206  0  0.114097  0.12107  0  0.972863  0
H  H9  1  0.18530500  0.36342302  0.50603377  1  0.113125  0  0.113359  0.120009  0  0.977612  0
H  H10  1  0.84596712  0.01154523  0.80623238  1  0.076125  0  0.114125  0.12102  0  0.973052  0
H  H11  1  0.83141133  0.91256878  0.75083893  1  0.098612  0  0.106226  0.112491  0  1.030559  0
H  H12  1  0.17053645  0.92481107  0.64068898  1  0.092999  0  0.11108  0.117258  0  0.990378  0
H  H13  1  0.18530125  0.02404461  0.69673237  1  0.115333  0  0.113352  0.120102  0  0.977496  0
H  H14  1  0.17052694  0.74185581  0.69263447  1  0.092856  0  0.111086  0.117251  0  0.990371  0
H  H15  1  0.83134814  0.75410706  0.58248542  1  0.099318  0  0.106301  0.112573  0  1.030552  0
H  H16  1  0.84589133  0.65512954  0.52708625  1  0.076513  0  0.11411  0.121051  0  0.972952  0
H  H17  1  0.18529586  0.64261860  0.63658236  1  0.114686  0  0.113287  0.119938  0  0.977518  0
H  H18  1  0.84596595  0.29470382  0.98846783  1  0.078816  0  0.114135  0.121099  0  0.972949  0
H  H19  1  0.83137875  0.33827775  0.08743707  1  0.098733  0  0.106254  0.112485  0  1.030519  0
H  H20  1  0.17052674  0.21587696  0.07518577  1  0.088841  0  0.11107  0.117176  0  0.990275  0
H  H21  1  0.18530609  0.17269446  0.97595589  1  0.074956  0  0.113308  0.119892  0  0.977702  0
H  H22  1  0.17050320  0.45077557  0.25814435  1  0.08879  0  0.111078  0.117243  0  0.990268  0
H  H23  1  0.83132566  0.32837419  0.24589651  1  0.098625  0  0.106295  0.112585  0  1.030531  0
H  H24  1  0.84592132  0.37195099  0.34486797  1  0.079594  0  0.114068  0.120989  0  0.972916  0
H  H25  1  0.18529582  0.49395814  0.35737365  1  0.075257  0  0.113333  0.120035  0  0.97758  0
C  C26  1  0.52273100  0.46186379  0.41767056  1  1.56433  0  0.286456  0.679809  0  4.04339  0
C  C27  1  0.52273815  0.45581353  0.53813682  1  1.580965  0  0.286514  0.679832  0  4.043586  0
C  C28  1  0.52274541  0.58232735  0.54418916  1  1.616464  0  0.286452  0.679937  0  4.0436  0
C  C29  1  0.52272794  0.21086846  0.79520397  1  1.581116  0  0.286624  0.680048  0  4.043777  0
C  C30  1  0.52272548  0.08434359  0.78913331  1  1.61743  0  0.286568  0.679853  0  4.043461  0
C  C31  1  0.52273028  0.20479792  0.91566044  1  1.56396  0  0.286463  0.679862  0  4.043481  0
C  C32  1  0.51352292  0.24464167  0.76870648  1  -0.023667  0  -0.001176  -0.023841  0  3.959812  0
C  C33  1  0.69209919  0.22934827  0.72177512  1  -0.030463  0  -0.078321  -0.091925  0  3.957776  0
C  C34  1  0.68197432  0.26058036  0.69705148  1  0.003734  0  -0.082583  -0.102252  0  3.953991  0
C  C35  1  0.49436363  0.30766447  0.71898244  1  0.001336  0  -0.014933  0.042502  0  4.060697  0
C  C36  1  0.32034858  0.32323366  0.76677584  1  0.018758  0  -0.0792  -0.102078  0  3.95129  0
C  C37  1  0.32782175  0.29174236  0.79119991  1  -0.041603  0  -0.080183  -0.097469  0  3.972398  0
C  C38  1  0.47646386  0.34089303  0.69327431  1  0.257459  0  0.089113  -0.014996  0  3.863868  0
C  C39  1  0.47645321  0.32578078  0.64006107  1  0.165847  0  0.089124  -0.015032  0  3.86395  0
C  C40  1  0.32031045  0.34344549  0.56656508  1  0.018684  0  -0.079309  -0.102295  0  3.951575  0
C  C41  1  0.49432456  0.35901158  0.61435641  1  0.001207  0  -0.014911  0.042655  0  4.060838  0
C  C42  1  0.68193704  0.40609541  0.63629096  1  0.00397  0  -0.082585  -0.102332  0  3.954112  0
C  C43  1  0.69208159  0.43732994  0.61156775  1  -0.031474  0  -0.078347  -0.092032  0  3.957847  0
C  C44  1  0.51347515  0.42203918  0.56463679  1  -0.023167  0  -0.001225  -0.023966  0  3.959664  0
C  C45  1  0.32775771  0.37493665  0.54214331  1  -0.040751  0  -0.080128  -0.097127  0  3.972393  0
C  C46  1  0.51350886  0.02407096  0.75535476  1  -0.080932  0  -0.001097  -0.023685  0  3.959626  0
C  C47  1  0.69210755  0.99243652  0.77065084  1  0.058941  0  -0.078415  -0.092144  0  3.957926  0
C  C48  1  0.68205050  0.93647858  0.73942089  1  -0.006495  0  -0.08245  -0.101933  0  3.953769  0
C  C49  1  0.49445127  0.91132149  0.69233526  1  -0.03007  0  -0.015041  0.042358  0  4.061619  0
C  C50  1  0.32039906  0.94354353  0.67676621  1  -0.055483  0  -0.079218  -0.10225  0  3.951708  0
C  C51  1  0.32780206  0.99945851  0.70825520  1  0.034442  0  -0.080179  -0.097451  0  3.972374  0
C  C52  1  0.47652792  0.85239268  0.65911157  1  0.14479  0  0.089226  -0.014924  0  3.863805  0
C  C53  1  0.47650898  0.81428357  0.67422405  1  0.25378  0  0.089158  -0.014806  0  3.863374  0
C  C54  1  0.32039660  0.72312403  0.65655892  1  -0.055244  0  -0.079174  -0.102239  0  3.951617  0
C  C55  1  0.49445762  0.75534997  0.64099478  1  -0.03046  0  -0.015139  0.042213  0  4.06128  0
C  C56  1  0.68202152  0.73019675  0.59390720  1  -0.006596  0  -0.082415  -0.10196  0  3.954084  0
C  C57  1  0.69209698  0.67423931  0.56267332  1  0.046576  0  -0.078462  -0.092171  0  3.957895  0
C  C58  1  0.51348441  0.64259916  0.57796567  1  -0.069168  0  -0.001206  -0.023959  0  3.959684  0
C  C59  1  0.32779396  0.66720815  0.62506459  1  0.035255  0  -0.080072  -0.097052  0  3.972168  0
C  C60  1  0.51352075  0.23129366  0.97593238  1  -0.021985  0  -0.001212  -0.023774  0  3.959471  0
C  C61  1  0.69212430  0.27822306  0.00757044  1  -0.016321  0  -0.078407  -0.09226  0  3.95792  0
C  C62  1  0.68202579  0.30294679  0.06352674  1  0.018758  0  -0.082517  -0.101956  0  3.954043  0
C  C63  1  0.49441896  0.28101584  0.08867792  1  -0.028209  0  -0.015019  0.042361  0  4.061655  0
C  C64  1  0.32038363  0.23322474  0.05645177  1  0.028405  0  -0.079144  -0.102083  0  3.95164  0
C  C65  1  0.32780886  0.20880263  0.00054070  1  0.000552  0  -0.080144  -0.097193  0  3.972429  0
C  C66  1  0.47647372  0.30671728  0.14760768  1  0.273316  0  0.089171  -0.0151  0  3.863597  0
C  C67  1  0.47647689  0.35993803  0.18571954  1  0.18295  0  0.089074  -0.014955  0  3.863522  0
C  C68  1  0.32037378  0.43342901  0.27687531  1  0.02825  0  -0.079177  -0.102232  0  3.951381  0
C  C69  1  0.49442046  0.38563921  0.24465107  1  -0.028727  0  -0.015009  0.042486  0  4.06111  0
C  C70  1  0.68199116  0.36370426  0.26980536  1  0.017971  0  -0.082449  -0.102121  0  3.954201  0
C  C71  1  0.69209242  0.38843069  0.32576113  1  -0.01613  0  -0.078374  -0.092082  0  3.958019  0
C  C72  1  0.51348453  0.43536179  0.35739922  1  -0.021019  0  -0.00128  -0.023902  0  3.959683  0
C  C73  1  0.32777532  0.45785167  0.33278936  1  -3.9e-05  0  -0.080074  -0.097171  0  3.972166  0
N  N74  1  0.46266368  0.40013602  0.73332029  1  0.4395  0  0.060873  0.514985  0  4.204471  0
N  N75  1  0.46265586  0.26653394  0.60001606  1  0.439822  0  0.061043  0.515157  0  4.204255  0
N  N76  1  0.46270606  0.83319490  0.59987079  1  0.427664  0  0.060624  0.514604  0  4.20455  0
N  N77  1  0.46276213  0.83347992  0.73346339  1  0.428294  0  0.060645  0.514521  0  4.204681  0
N  N78  1  0.46268745  0.26667050  0.16680532  1  0.420676  0  0.060655  0.514768  0  4.204382  0
N  N79  1  0.46271606  0.39998312  0.16652140  1  0.416207  0  0.060824  0.514617  0  4.204693  0
O  O80  1  0.76216183  0.55856302  0.55087938  1  -1.255682  0  -0.233236  -0.60065  0  2.342808  0
O  O81  1  0.76214935  0.49232033  0.44143498  1  -1.2578  0  -0.23332  -0.600734  0  2.342724  0
O  O82  1  0.76215742  0.44911619  0.50768193  1  -1.252694  0  -0.233291  -0.600636  0  2.342793  0
O  O83  1  0.29014558  0.55970335  0.51152958  1  -1.257612  0  -0.236908  -0.604766  0  2.33668  0
O  O84  1  0.29013460  0.48847049  0.54816832  1  -1.252261  0  -0.236919  -0.604694  0  2.336816  0
O  O85  1  0.29012991  0.45183133  0.44029587  1  -1.254754  0  -0.236856  -0.604595  0  2.336507  0
O  O86  1  0.76213995  0.17434527  0.89189578  1  -1.257693  0  -0.233269  -0.600634  0  2.342779  0
O  O87  1  0.76213668  0.21755630  0.82565732  1  -1.252415  0  -0.233389  -0.600767  0  2.342985  0
O  O88  1  0.76212987  0.10811251  0.78244635  1  -1.256474  0  -0.233316  -0.6005  0  2.34252  0
O  O89  1  0.29012439  0.21483527  0.89303852  1  -1.254751  0  -0.236878  -0.604665  0  2.336684  0
O  O90  1  0.29011111  0.10696514  0.82178893  1  -1.257696  0  -0.236972  -0.60475  0  2.336853  0
O  O91  1  0.29011729  0.17821189  0.78517338  1  -1.252922  0  -0.237003  -0.604782  0  2.336904  0
O  O92  1  0.65826523  0.41687479  0.77081643  1  -0.438549  0  -0.113068  -0.305182  0  1.924808  0
O  O93  1  0.25609301  0.42787184  0.72756527  1  -0.437907  0  -0.110791  -0.307306  0  1.975161  0
O  O94  1  0.65824034  0.24979367  0.56251988  1  -0.438477  0  -0.113024  -0.305121  0  1.924797  0
O  O95  1  0.25608736  0.23879817  0.60577249  1  -0.438262  0  -0.111  -0.30754  0  1.974912  0
O  O96  1  0.65831162  0.85394782  0.58312998  1  -0.433719  0  -0.11287  -0.304998  0  1.925034  0
O  O97  1  0.25609943  0.79970439  0.57213454  1  -0.437947  0  -0.110827  -0.307236  0  1.974795  0
O  O98  1  0.65840024  0.81271593  0.75019136  1  -0.435005  0  -0.112915  -0.304968  0  1.924831  0
O  O99  1  0.25623681  0.86697978  0.76121761  1  -0.437446  0  -0.110809  -0.307245  0  1.974942  0
O  O100  1  0.65830142  0.22917867  0.14605063  1  -0.423437  0  -0.112807  -0.304942  0  1.924858  0
O  O101  1  0.25611398  0.27242111  0.20029657  1  -0.437835  0  -0.110828  -0.307281  0  1.974812  0
O  O102  1  0.65835298  0.43747449  0.18727992  1  -0.420091  0  -0.113031  -0.305027  0  1.924958  0
O  O103  1  0.25616479  0.39423641  0.13302492  1  -0.436916  0  -0.110823  -0.307205  0  1.974875  0
