# generated using pymatgen
data_CuH16C16S2I
_symmetry_space_group_name_H-M   'P 1'
_cell_length_a   7.10774269
_cell_length_b   12.06561543
_cell_length_c   20.72109452
_cell_angle_alpha   89.99996495
_cell_angle_beta   90.00016177
_cell_angle_gamma   89.99999337
_symmetry_Int_Tables_number   1
_chemical_formula_structural   CuH16C16S2I
_chemical_formula_sum   'Cu4 H64 C64 S8 I4'
_cell_volume   1777.02635119
_cell_formula_units_Z   4
loop_
 _symmetry_equiv_pos_site_id
 _symmetry_equiv_pos_as_xyz
  1  'x, y, z'
loop_
 _atom_site_type_symbol
 _atom_site_label
 _atom_site_symmetry_multiplicity
 _atom_site_fract_x
 _atom_site_fract_y
 _atom_site_fract_z
 _atom_site_occupancy
 _atom_site_hle17_bader_spin_density
 _atom_site_hle17_ddec_charge
 _atom_site_hle17_ddec_spin_density
 _atom_site_hle17_ddec_sum_bond_order
 _atom_site_hle17_magmom
 _atom_site_hse06_10hf_bader_spin_density
 _atom_site_hse06_10hf_ddec_charge
 _atom_site_hse06_10hf_ddec_spin_density
 _atom_site_hse06_10hf_ddec_sum_bond_order
 _atom_site_hse06_10hf_magmom
 _atom_site_hse06_bader_spin_density
 _atom_site_hse06_ddec_charge
 _atom_site_hse06_ddec_spin_density
 _atom_site_hse06_ddec_sum_bond_order
 _atom_site_hse06_magmom
 _atom_site_pbe_bader_spin_density
 _atom_site_pbe_cm5_charge
 _atom_site_pbe_ddec_charge
 _atom_site_pbe_ddec_spin_density
 _atom_site_pbe_ddec_sum_bond_order
 _atom_site_pbe_magmom
Cu  Cu0  1  0.23502283  0.83784745  0.74999895  1  0  0.156776  0  2.283737  0  0  0.083956  0  2.7694  0  0  0.091279  0  2.72396  0  0  0.229619  0.081262  0  2.79851  0
Cu  Cu1  1  0.26498106  0.33784587  0.25000134  1  0  0.156723  0  2.283767  0  0  0.083902  0  2.769435  0  0  0.091203  0  2.723991  0  0  0.229557  0.081231  0  2.798426  0
Cu  Cu2  1  0.73502125  0.66215147  0.74999922  1  0  0.156758  0  2.283694  0  0  0.083945  0  2.769338  0  0  0.09124  0  2.723909  0  0  0.229571  0.081267  0  2.798348  0
Cu  Cu3  1  0.76498090  0.16215320  0.24999967  1  0  0.156741  0  2.283739  0  0  0.08392  0  2.769407  0  0  0.091204  0  2.723976  0  0  0.229594  0.081221  0  2.798555  0
H  H4  1  0.36236212  0.18419319  0.89400069  1  0  0.090501  0  0.93705  0  0  0.103971  0  0.990746  0  0  0.106978  0  0.989499  0  0  0.098379  0.101756  0  0.991784  0
H  H5  1  0.13763318  0.68419531  0.39399988  1  0  0.090504  0  0.936959  0  0  0.103975  0  0.990661  0  0  0.106986  0  0.989411  0  0  0.098355  0.101761  0  0.991697  0
H  H6  1  0.36236794  0.18419666  0.60599660  1  0  0.09052  0  0.937001  0  0  0.104013  0  0.990664  0  0  0.107032  0  0.989404  0  0  0.098391  0.1018  0  0.991703  0
H  H7  1  0.86237035  0.31580685  0.89400235  1  0  0.090541  0  0.936995  0  0  0.104018  0  0.990685  0  0  0.107007  0  0.989461  0  0  0.098394  0.101804  0  0.991723  0
H  H8  1  0.63763457  0.81580664  0.10599890  1  0  0.090491  0  0.936999  0  0  0.103982  0  0.990676  0  0  0.106989  0  0.989431  0  0  0.098379  0.101769  0  0.991714  0
H  H9  1  0.86236351  0.31580203  0.60599971  1  0  0.090496  0  0.936999  0  0  0.103972  0  0.990691  0  0  0.106988  0  0.989433  0  0  0.098348  0.101759  0  0.991727  0
H  H10  1  0.63763719  0.81580234  0.39399913  1  0  0.090533  0  0.936994  0  0  0.104005  0  0.990686  0  0  0.107037  0  0.989409  0  0  0.09835  0.101793  0  0.991722  0
H  H11  1  0.13763337  0.68419297  0.10600062  1  0  0.090513  0  0.936994  0  0  0.103985  0  0.990688  0  0  0.107009  0  0.989421  0  0  0.098368  0.101772  0  0.991723  0
H  H12  1  0.52116117  0.26074124  0.99051448  1  0  0.085007  0  0.983608  0  0  0.094494  0  1.050788  0  0  0.096436  0  1.051396  0  0  0.093393  0.093058  0  1.05052  0
H  H13  1  0.97883454  0.76074748  0.49051254  1  0  0.085015  0  0.983585  0  0  0.094494  0  1.050777  0  0  0.096438  0  1.051383  0  0  0.093396  0.093057  0  1.050509  0
H  H14  1  0.52116055  0.26074812  0.50948342  1  0  0.085004  0  0.983646  0  0  0.094498  0  1.050806  0  0  0.096439  0  1.051417  0  0  0.093389  0.09307  0  1.050526  0
H  H15  1  0.02116559  0.23925623  0.99051569  1  0  0.084978  0  0.98369  0  0  0.094467  0  1.050865  0  0  0.096409  0  1.051474  0  0  0.093397  0.093031  0  1.050595  0
H  H16  1  0.47883833  0.73925278  0.00948656  1  0  0.084987  0  0.98359  0  0  0.094466  0  1.050777  0  0  0.096409  0  1.051385  0  0  0.093387  0.093017  0  1.050522  0
H  H17  1  0.02116496  0.23925317  0.50948705  1  0  0.085013  0  0.983581  0  0  0.094493  0  1.050773  0  0  0.096434  0  1.051383  0  0  0.093397  0.093052  0  1.050504  0
H  H18  1  0.47884177  0.73925087  0.49051279  1  0  0.08503  0  0.983539  0  0  0.094511  0  1.050713  0  0  0.096452  0  1.051324  0  0  0.093388  0.093062  0  1.050459  0
H  H19  1  0.97883391  0.76074442  0.00948824  1  0  0.084996  0  0.983617  0  0  0.094477  0  1.050805  0  0  0.096419  0  1.051413  0  0  0.093379  0.093024  0  1.050551  0
H  H20  1  0.29455235  0.99694701  0.10628441  1  0  0.088797  0  0.964252  0  0  0.096371  0  1.030293  0  0  0.099368  0  1.029149  0  0  0.092034  0.094195  0  1.031195  0
H  H21  1  0.20543903  0.49695236  0.60628507  1  0  0.088785  0  0.964285  0  0  0.096375  0  1.03031  0  0  0.099372  0  1.029165  0  0  0.092033  0.094207  0  1.031209  0
H  H22  1  0.29455497  0.99694852  0.39371420  1  0  0.088825  0  0.964228  0  0  0.096414  0  1.030257  0  0  0.099412  0  1.02911  0  0  0.092004  0.094223  0  1.03117  0
H  H23  1  0.79455503  0.50305093  0.10628569  1  0  0.0888  0  0.964269  0  0  0.096374  0  1.030311  0  0  0.099371  0  1.029168  0  0  0.092004  0.0942  0  1.031212  0
H  H24  1  0.70544012  0.00304784  0.89371519  1  0  0.088823  0  0.964265  0  0  0.0964  0  1.0303  0  0  0.099398  0  1.029153  0  0  0.092029  0.094219  0  1.031201  0
H  H25  1  0.79456047  0.50304995  0.39371549  1  0  0.088815  0  0.964247  0  0  0.096391  0  1.030291  0  0  0.099388  0  1.029144  0  0  0.092037  0.094218  0  1.031186  0
H  H26  1  0.70543890  0.00305131  0.60628153  1  0  0.088822  0  0.964298  0  0  0.09641  0  1.030316  0  0  0.099407  0  1.029169  0  0  0.092064  0.094232  0  1.031224  0
H  H27  1  0.20544025  0.49695138  0.89371680  1  0  0.088812  0  0.964308  0  0  0.096416  0  1.030311  0  0  0.099414  0  1.029163  0  0  0.092046  0.094236  0  1.031216  0
H  H28  1  0.14633752  0.91629225  0.00888119  1  0  0.083548  0  0.972022  0  0  0.095438  0  1.03419  0  0  0.097463  0  1.03442  0  0  0.095608  0.093947  0  1.034136  0
H  H29  1  0.35366009  0.41629511  0.50888393  1  0  0.083546  0  0.972011  0  0  0.095431  0  1.034187  0  0  0.097462  0  1.034409  0  0  0.095617  0.093936  0  1.034131  0
H  H30  1  0.14634097  0.91629365  0.49111827  1  0  0.083534  0  0.972049  0  0  0.095436  0  1.034213  0  0  0.097453  0  1.034452  0  0  0.095591  0.093944  0  1.034163  0
H  H31  1  0.64633878  0.58370663  0.00888294  1  0  0.083558  0  0.971992  0  0  0.095447  0  1.034165  0  0  0.097471  0  1.034398  0  0  0.095605  0.093956  0  1.034111  0
H  H32  1  0.85365917  0.08370509  0.99111695  1  0  0.083521  0  0.972046  0  0  0.095412  0  1.034227  0  0  0.097439  0  1.034453  0  0  0.095608  0.093917  0  1.034178  0
H  H33  1  0.64633941  0.58370555  0.49111760  1  0  0.083572  0  0.971986  0  0  0.095445  0  1.034185  0  0  0.097477  0  1.034408  0  0  0.095626  0.093952  0  1.034132  0
H  H34  1  0.85365291  0.08370534  0.50888036  1  0  0.083532  0  0.972083  0  0  0.095435  0  1.034232  0  0  0.097468  0  1.034449  0  0  0.095595  0.093942  0  1.034177  0
H  H35  1  0.35366072  0.41629651  0.99111810  1  0  0.083522  0  0.972078  0  0  0.095414  0  1.034241  0  0  0.097448  0  1.034458  0  0  0.095613  0.093923  0  1.034188  0
H  H36  1  0.07697045  0.91735430  0.89775747  1  0  0.101003  0  0.948632  0  0  0.114855  0  1.014345  0  0  0.115929  0  1.014987  0  0  0.094744  0.114024  0  1.014009  0
H  H37  1  0.42303045  0.41735934  0.39776048  1  0  0.101079  0  0.948588  0  0  0.114938  0  1.014294  0  0  0.116012  0  1.014935  0  0  0.094779  0.11409  0  1.013969  0
H  H38  1  0.07697061  0.91736109  0.60224026  1  0  0.101076  0  0.948689  0  0  0.114934  0  1.014372  0  0  0.116006  0  1.015013  0  0  0.094781  0.114088  0  1.014054  0
H  H39  1  0.57696749  0.58264198  0.89775873  1  0  0.101073  0  0.948607  0  0  0.114936  0  1.014292  0  0  0.11601  0  1.014929  0  0  0.094792  0.114089  0  1.013975  0
H  H40  1  0.92302905  0.08264303  0.10224068  1  0  0.101031  0  0.948675  0  0  0.114902  0  1.014346  0  0  0.115973  0  1.014985  0  0  0.094758  0.114058  0  1.014026  0
H  H41  1  0.57696765  0.58264131  0.60223959  1  0  0.101059  0  0.948575  0  0  0.114924  0  1.014279  0  0  0.115998  0  1.014917  0  0  0.094798  0.114082  0  1.013961  0
H  H42  1  0.92303171  0.08264205  0.39775981  1  0  0.101066  0  0.948588  0  0  0.114928  0  1.014278  0  0  0.116002  0  1.014917  0  0  0.094774  0.114077  0  1.013959  0
H  H43  1  0.42303201  0.41735618  0.10224135  1  0  0.101045  0  0.948597  0  0  0.114896  0  1.014306  0  0  0.11597  0  1.014948  0  0  0.094776  0.114055  0  1.013981  0
H  H44  1  0.10022951  0.03992954  0.85169202  1  0  0.106051  0  0.920423  0  0  0.125274  0  0.971587  0  0  0.126673  0  0.97083  0  0  0.099633  0.124164  0  0.972259  0
H  H45  1  0.39977110  0.53993414  0.35169387  1  0  0.106078  0  0.920403  0  0  0.125344  0  0.971507  0  0  0.126739  0  0.970765  0  0  0.099667  0.124233  0  0.97218  0
H  H46  1  0.10023568  0.03993794  0.64830653  1  0  0.106128  0  0.920358  0  0  0.125371  0  0.971478  0  0  0.126764  0  0.970735  0  0  0.09967  0.124262  0  0.972152  0
H  H47  1  0.60023489  0.46006475  0.85169363  1  0  0.10605  0  0.920381  0  0  0.1253  0  0.971496  0  0  0.126693  0  0.970747  0  0  0.099644  0.124192  0  0.972171  0
H  H48  1  0.89977140  0.96006779  0.14830564  1  0  0.106083  0  0.920393  0  0  0.125298  0  0.971556  0  0  0.126691  0  0.970804  0  0  0.099637  0.124191  0  0.97223  0
H  H49  1  0.60023122  0.46006900  0.64830669  1  0  0.106083  0  0.920409  0  0  0.125314  0  0.97157  0  0  0.126709  0  0.970815  0  0  0.099654  0.124205  0  0.972243  0
H  H50  1  0.89977367  0.96006852  0.35169114  1  0  0.106069  0  0.920368  0  0  0.125306  0  0.97152  0  0  0.126703  0  0.970766  0  0  0.099638  0.1242  0  0.97219  0
H  H51  1  0.39977305  0.53993093  0.14830838  1  0  0.106074  0  0.920385  0  0  0.125318  0  0.971525  0  0  0.126715  0  0.970771  0  0  0.099641  0.124206  0  0.972198  0
H  H52  1  0.36144337  0.76488797  0.90322694  1  0  0.097413  0  0.958334  0  0  0.112005  0  1.02214  0  0  0.112658  0  1.023844  0  0  0.093625  0.111508  0  1.021041  0
H  H53  1  0.13856184  0.26488971  0.40322968  1  0  0.09743  0  0.958329  0  0  0.112006  0  1.022146  0  0  0.112658  0  1.023849  0  0  0.093632  0.111508  0  1.021039  0
H  H54  1  0.36144348  0.76489062  0.59677063  1  0  0.097415  0  0.958357  0  0  0.111981  0  1.022178  0  0  0.112634  0  1.023882  0  0  0.093613  0.111485  0  1.021081  0
H  H55  1  0.86143474  0.73510912  0.90323056  1  0  0.097419  0  0.958275  0  0  0.112017  0  1.022077  0  0  0.112671  0  1.023779  0  0  0.093627  0.111517  0  1.020974  0
H  H56  1  0.63855613  0.23510688  0.09676976  1  0  0.097462  0  0.958392  0  0  0.112018  0  1.02221  0  0  0.112674  0  1.023915  0  0  0.093642  0.11152  0  1.021111  0
H  H57  1  0.86143485  0.73510929  0.59676991  1  0  0.097441  0  0.958258  0  0  0.112053  0  1.022053  0  0  0.112705  0  1.023756  0  0  0.093639  0.111552  0  1.020953  0
H  H58  1  0.63855743  0.23511086  0.40322896  1  0  0.097444  0  0.958358  0  0  0.111991  0  1.022205  0  0  0.112645  0  1.023909  0  0  0.093639  0.111493  0  1.021103  0
H  H59  1  0.13855773  0.26488987  0.09677193  1  0  0.097435  0  0.958396  0  0  0.111993  0  1.022216  0  0  0.112647  0  1.023923  0  0  0.093627  0.111495  0  1.021115  0
H  H60  1  0.56218903  0.77868174  0.85326731  1  0  0.092643  0  0.983404  0  0  0.103337  0  1.059251  0  0  0.106347  0  1.055854  0  0  0.081989  0.100952  0  1.061878  0
H  H61  1  0.93781678  0.27868015  0.35326696  1  0  0.092624  0  0.983415  0  0  0.103335  0  1.059226  0  0  0.106344  0  1.055829  0  0  0.081978  0.100931  0  1.061897  0
H  H62  1  0.56218815  0.77868185  0.64673286  1  0  0.092619  0  0.983427  0  0  0.103328  0  1.059274  0  0  0.106339  0  1.055874  0  0  0.081971  0.100938  0  1.061907  0
H  H63  1  0.06218360  0.72132123  0.85326854  1  0  0.092656  0  0.983379  0  0  0.103389  0  1.059169  0  0  0.1064  0  1.055768  0  0  0.082001  0.100981  0  1.061848  0
H  H64  1  0.43781188  0.22131643  0.14673276  1  0  0.092651  0  0.983456  0  0  0.103385  0  1.059231  0  0  0.106398  0  1.055835  0  0  0.081991  0.100992  0  1.061871  0
H  H65  1  0.06217850  0.72132217  0.64673215  1  0  0.092619  0  0.983417  0  0  0.103333  0  1.059223  0  0  0.106341  0  1.055826  0  0  0.081977  0.100926  0  1.061905  0
H  H66  1  0.43781416  0.22131964  0.35326626  1  0  0.092634  0  0.983392  0  0  0.103347  0  1.059214  0  0  0.106358  0  1.055815  0  0  0.081973  0.100954  0  1.061843  0
H  H67  1  0.93781450  0.27868108  0.14673444  1  0  0.092627  0  0.983403  0  0  0.103338  0  1.059232  0  0  0.106352  0  1.055831  0  0  0.081969  0.10094  0  1.061889  0
C  C68  1  0.34404286  0.14380401  0.94073326  1  0  -0.117395  0  3.767347  0  0  -0.137428  0  4.01678  0  0  -0.139699  0  4.03754  0  0  -0.096249  -0.135837  0  4.002736  0
C  C69  1  0.15595565  0.64380861  0.44073488  1  0  -0.117413  0  3.767455  0  0  -0.137483  0  4.016874  0  0  -0.139758  0  4.037631  0  0  -0.096287  -0.135883  0  4.002826  0
C  C70  1  0.34404547  0.14380587  0.55926403  1  0  -0.117478  0  3.767549  0  0  -0.13757  0  4.016988  0  0  -0.139854  0  4.037746  0  0  -0.096327  -0.135974  0  4.002948  0
C  C71  1  0.84405249  0.35619764  0.94073491  1  0  -0.117552  0  3.767473  0  0  -0.137614  0  4.016947  0  0  -0.139874  0  4.037707  0  0  -0.096324  -0.136019  0  4.002904  0
C  C72  1  0.65595805  0.85619581  0.05926440  1  0  -0.117478  0  3.767612  0  0  -0.137571  0  4.017052  0  0  -0.139845  0  4.037815  0  0  -0.096313  -0.135974  0  4.003002  0
C  C73  1  0.84404385  0.35618873  0.55926519  1  0  -0.117452  0  3.767542  0  0  -0.137533  0  4.016974  0  0  -0.139813  0  4.037732  0  0  -0.096281  -0.135937  0  4.002934  0
C  C74  1  0.65596388  0.85619313  0.44073412  1  0  -0.117489  0  3.767539  0  0  -0.137577  0  4.016927  0  0  -0.139869  0  4.03769  0  0  -0.096252  -0.13598  0  4.002881  0
C  C75  1  0.15595686  0.64380716  0.05926662  1  0  -0.117456  0  3.767475  0  0  -0.137512  0  4.016906  0  0  -0.139799  0  4.037666  0  0  -0.096273  -0.135913  0  4.002856  0
C  C76  1  0.43238900  0.18739977  0.99519422  1  0  -0.124466  0  3.75302  0  0  -0.145275  0  4.004237  0  0  -0.147952  0  4.025687  0  0  -0.098232  -0.143431  0  3.989757  0
C  C77  1  0.06760575  0.68740354  0.49519335  1  0  -0.124416  0  3.753163  0  0  -0.145203  0  4.004311  0  0  -0.147879  0  4.025762  0  0  -0.098126  -0.143357  0  3.989829  0
C  C78  1  0.43239255  0.18740334  0.50480555  1  0  -0.124436  0  3.753156  0  0  -0.145264  0  4.0043  0  0  -0.147943  0  4.025757  0  0  -0.098206  -0.143431  0  3.989811  0
C  C79  1  0.93239583  0.31259934  0.99519444  1  0  -0.124353  0  3.753057  0  0  -0.145161  0  4.004201  0  0  -0.147836  0  4.025645  0  0  -0.098201  -0.143316  0  3.989713  0
C  C80  1  0.56760910  0.81259923  0.00480682  1  0  -0.124325  0  3.753211  0  0  -0.145138  0  4.004344  0  0  -0.147814  0  4.025795  0  0  -0.098142  -0.143285  0  3.989871  0
C  C81  1  0.93239094  0.31259545  0.50480625  1  0  -0.124383  0  3.753085  0  0  -0.145171  0  4.004231  0  0  -0.147849  0  4.025685  0  0  -0.098123  -0.143322  0  3.989741  0
C  C82  1  0.56761680  0.81259731  0.49519115  1  0  -0.124416  0  3.753077  0  0  -0.145196  0  4.004219  0  0  -0.147875  0  4.02568  0  0  -0.0981  -0.14334  0  3.989749  0
C  C83  1  0.06760649  0.68740215  0.00480902  1  0  -0.124327  0  3.753144  0  0  -0.145155  0  4.004299  0  0  -0.147833  0  4.025758  0  0  -0.098115  -0.143296  0  3.989821  0
C  C84  1  0.41921911  0.13399644  0.05516280  1  0  0.095897  0  3.75827  0  0  0.119896  0  3.987409  0  0  0.119976  0  4.012211  0  0  -0.01812  0.119729  0  3.970704  0
C  C85  1  0.08078319  0.63400218  0.55516172  1  0  0.095919  0  3.758118  0  0  0.119952  0  3.987202  0  0  0.120026  0  4.011994  0  0  -0.018149  0.119784  0  3.970515  0
C  C86  1  0.41921653  0.13399955  0.44483720  1  0  0.095864  0  3.758232  0  0  0.119992  0  3.98719  0  0  0.12007  0  4.011987  0  0  -0.018118  0.119828  0  3.970481  0
C  C87  1  0.91921748  0.36600200  0.05516299  1  0  0.095885  0  3.75814  0  0  0.119951  0  3.987169  0  0  0.120031  0  4.011969  0  0  -0.018125  0.119787  0  3.970468  0
C  C88  1  0.58078180  0.86599758  0.94483824  1  0  0.095844  0  3.758305  0  0  0.119959  0  3.98729  0  0  0.120035  0  4.012086  0  0  -0.018118  0.119789  0  3.970588  0
C  C89  1  0.91921631  0.36600014  0.44483836  1  0  0.095891  0  3.758158  0  0  0.11995  0  3.987213  0  0  0.120024  0  4.01201  0  0  -0.018157  0.119784  0  3.970505  0
C  C90  1  0.58078297  0.86599945  0.55516047  1  0  0.095884  0  3.758109  0  0  0.119937  0  3.987164  0  0  0.120014  0  4.01196  0  0  -0.018189  0.119766  0  3.970466  0
C  C91  1  0.08077639  0.63400114  0.94483998  1  0  0.095761  0  3.758216  0  0  0.119869  0  3.987236  0  0  0.119945  0  4.012029  0  0  -0.018165  0.119704  0  3.970532  0
C  C92  1  0.30707102  0.03900916  0.05987632  1  0  -0.112168  0  3.751584  0  0  -0.132775  0  3.997729  0  0  -0.13553  0  4.019378  0  0  -0.094708  -0.13089  0  3.983144  0
C  C93  1  0.19293275  0.53901572  0.55987631  1  0  -0.112299  0  3.751363  0  0  -0.132932  0  3.997514  0  0  -0.13569  0  4.019171  0  0  -0.09476  -0.131048  0  3.982941  0
C  C94  1  0.30707262  0.03900979  0.44012168  1  0  -0.112215  0  3.751337  0  0  -0.132884  0  3.997431  0  0  -0.135641  0  4.019079  0  0  -0.094666  -0.13098  0  3.982855  0
C  C95  1  0.80707499  0.46099094  0.05987841  1  0  -0.112158  0  3.751388  0  0  -0.132777  0  3.997473  0  0  -0.135533  0  4.019121  0  0  -0.094633  -0.130896  0  3.982899  0
C  C96  1  0.69292567  0.96098818  0.94012279  1  0  -0.11225  0  3.751259  0  0  -0.132895  0  3.997371  0  0  -0.135656  0  4.01903  0  0  -0.094719  -0.131001  0  3.98279  0
C  C97  1  0.80706394  0.46098742  0.44012473  1  0  -0.112256  0  3.751397  0  0  -0.132891  0  3.997553  0  0  -0.13565  0  4.019213  0  0  -0.094754  -0.131004  0  3.982962  0
C  C98  1  0.69292829  0.96098755  0.55987647  1  0  -0.112255  0  3.751386  0  0  -0.132889  0  3.997519  0  0  -0.135644  0  4.019166  0  0  -0.094763  -0.130998  0  3.982946  0
C  C99  1  0.19292732  0.53901469  0.94012408  1  0  -0.112315  0  3.751511  0  0  -0.132982  0  3.997633  0  0  -0.135744  0  4.019298  0  0  -0.094781  -0.13109  0  3.983058  0
C  C100  1  0.22366303  0.99396255  0.00512562  1  0  -0.104201  0  3.754253  0  0  -0.120651  0  3.997269  0  0  -0.122923  0  4.019459  0  0  -0.090899  -0.118975  0  3.982171  0
C  C101  1  0.27633172  0.49396293  0.50512635  1  0  -0.104097  0  3.754207  0  0  -0.120568  0  3.997223  0  0  -0.122843  0  4.019405  0  0  -0.090896  -0.118888  0  3.982125  0
C  C102  1  0.22366932  0.99395981  0.49487292  1  0  -0.104219  0  3.754209  0  0  -0.12071  0  3.997224  0  0  -0.122978  0  4.019414  0  0  -0.090974  -0.119036  0  3.982125  0
C  C103  1  0.72366853  0.50603799  0.00512788  1  0  -0.104307  0  3.754233  0  0  -0.120769  0  3.997261  0  0  -0.123042  0  4.01945  0  0  -0.090992  -0.119093  0  3.982165  0
C  C104  1  0.77633085  0.00603976  0.99487300  1  0  -0.104144  0  3.7541  0  0  -0.120634  0  3.997115  0  0  -0.122906  0  4.019301  0  0  -0.090948  -0.118956  0  3.982016  0
C  C105  1  0.72366357  0.50603607  0.49487469  1  0  -0.104192  0  3.754254  0  0  -0.120656  0  3.997256  0  0  -0.122934  0  4.019439  0  0  -0.090923  -0.118977  0  3.982161  0
C  C106  1  0.77633018  0.00603836  0.50512667  1  0  -0.104143  0  3.754223  0  0  -0.120643  0  3.997238  0  0  -0.122919  0  4.019423  0  0  -0.090905  -0.118962  0  3.982135  0
C  C107  1  0.27633097  0.49396267  0.99487317  1  0  -0.104112  0  3.754282  0  0  -0.120579  0  3.997309  0  0  -0.122857  0  4.019493  0  0  -0.090903  -0.118902  0  3.982213  0
C  C108  1  0.24404349  0.04393675  0.94454867  1  0  0.08275  0  3.785453  0  0  0.10394  0  4.019775  0  0  0.103198  0  4.045148  0  0  -0.023175  0.104363  0  4.00253  0
C  C109  1  0.25595508  0.54393886  0.44455087  1  0  0.08272  0  3.785501  0  0  0.103992  0  4.019713  0  0  0.103252  0  4.045082  0  0  -0.023085  0.104418  0  4.002466  0
C  C110  1  0.24405029  0.04393944  0.55544808  1  0  0.082876  0  3.785349  0  0  0.104141  0  4.019559  0  0  0.103399  0  4.044922  0  0  -0.023015  0.104565  0  4.002319  0
C  C111  1  0.74405028  0.45606159  0.94455221  1  0  0.082956  0  3.785318  0  0  0.104157  0  4.019603  0  0  0.103416  0  4.044958  0  0  -0.023025  0.104579  0  4.002366  0
C  C112  1  0.75595038  0.95606308  0.05544948  1  0  0.082821  0  3.785364  0  0  0.10409  0  4.019581  0  0  0.103345  0  4.044943  0  0  -0.023063  0.104516  0  4.002337  0
C  C113  1  0.74404583  0.45605848  0.55545066  1  0  0.082746  0  3.785526  0  0  0.104019  0  4.019749  0  0  0.103275  0  4.045119  0  0  -0.023104  0.104437  0  4.002515  0
C  C114  1  0.75595062  0.95606370  0.44454958  1  0  0.082724  0  3.785437  0  0  0.104025  0  4.019622  0  0  0.103281  0  4.045004  0  0  -0.023129  0.104449  0  4.002377  0
C  C115  1  0.25595484  0.54393906  0.05545028  1  0  0.082809  0  3.785421  0  0  0.104039  0  4.01969  0  0  0.103299  0  4.045061  0  0  -0.023108  0.104465  0  4.002451  0
C  C116  1  0.17407013  0.98489997  0.88557282  1  0  -0.189134  0  3.662473  0  0  -0.230024  0  3.914218  0  0  -0.230004  0  3.925058  0  0  -0.147596  -0.229917  0  3.906826  0
C  C117  1  0.32592783  0.48490336  0.38557333  1  0  -0.189296  0  3.662327  0  0  -0.230276  0  3.91416  0  0  -0.230261  0  3.924994  0  0  -0.147699  -0.230166  0  3.906771  0
C  C118  1  0.17407321  0.98490094  0.61442691  1  0  -0.189386  0  3.66228  0  0  -0.230332  0  3.914077  0  0  -0.230303  0  3.924894  0  0  -0.147697  -0.230215  0  3.906701  0
C  C119  1  0.67407423  0.51509881  0.88557362  1  0  -0.189323  0  3.66222  0  0  -0.230241  0  3.91399  0  0  -0.230207  0  3.924798  0  0  -0.147693  -0.230125  0  3.906613  0
C  C120  1  0.82592937  0.01510068  0.11442629  1  0  -0.189317  0  3.662345  0  0  -0.230234  0  3.914084  0  0  -0.230196  0  3.924891  0  0  -0.147675  -0.23012  0  3.906707  0
C  C121  1  0.67407449  0.51509812  0.61442771  1  0  -0.189238  0  3.662356  0  0  -0.230182  0  3.91414  0  0  -0.230152  0  3.924958  0  0  -0.147675  -0.230068  0  3.90676  0
C  C122  1  0.82592770  0.01509971  0.38557172  1  0  -0.18921  0  3.662298  0  0  -0.23016  0  3.91405  0  0  -0.230136  0  3.924877  0  0  -0.147619  -0.230041  0  3.906672  0
C  C123  1  0.32593090  0.48490102  0.11442742  1  0  -0.189247  0  3.662303  0  0  -0.230177  0  3.914093  0  0  -0.230157  0  3.924929  0  0  -0.147665  -0.230066  0  3.906703  0
C  C124  1  0.47127423  0.82317510  0.88786437  1  0  -0.187583  0  3.639293  0  0  -0.223422  0  3.876824  0  0  -0.224085  0  3.88754  0  0  -0.152148  -0.222832  0  3.869773  0
C  C125  1  0.02873083  0.32317684  0.38786509  1  0  -0.187581  0  3.639166  0  0  -0.223403  0  3.876763  0  0  -0.224061  0  3.887467  0  0  -0.152122  -0.222821  0  3.869698  0
C  C126  1  0.47127165  0.82317690  0.61213618  1  0  -0.18756  0  3.639261  0  0  -0.223395  0  3.876832  0  0  -0.224057  0  3.887544  0  0  -0.152105  -0.222796  0  3.869776  0
C  C127  1  0.97126280  0.67682449  0.88786415  1  0  -0.18756  0  3.639202  0  0  -0.223412  0  3.876737  0  0  -0.224072  0  3.887442  0  0  -0.152129  -0.222817  0  3.86967  0
C  C128  1  0.52872950  0.17682307  0.11213667  1  0  -0.187695  0  3.639375  0  0  -0.223486  0  3.876908  0  0  -0.224166  0  3.887642  0  0  -0.152144  -0.222891  0  3.869847  0
C  C129  1  0.97126726  0.67682547  0.61213547  1  0  -0.187616  0  3.639145  0  0  -0.223443  0  3.876683  0  0  -0.224099  0  3.887384  0  0  -0.152148  -0.222851  0  3.869622  0
C  C130  1  0.52872925  0.17682375  0.38786293  1  0  -0.187595  0  3.639358  0  0  -0.223375  0  3.876752  0  0  -0.224041  0  3.887467  0  0  -0.152119  -0.222783  0  3.869685  0
C  C131  1  0.02872967  0.32317616  0.11213689  1  0  -0.187623  0  3.639328  0  0  -0.223408  0  3.876784  0  0  -0.224082  0  3.887509  0  0  -0.152124  -0.222821  0  3.869729  0
S  S132  1  0.36628989  0.92890948  0.83613634  1  0  0.044385  0  2.725709  0  0  0.063417  0  3.139644  0  0  0.063825  0  3.126138  0  0  -0.036276  0.062657  0  3.148905  0
S  S133  1  0.13371048  0.42890873  0.33613860  1  0  0.044441  0  2.725763  0  0  0.063474  0  3.139729  0  0  0.063889  0  3.126212  0  0  -0.036273  0.062724  0  3.148932  0
S  S134  1  0.36629620  0.92890791  0.66386311  1  0  0.044417  0  2.725821  0  0  0.06344  0  3.139779  0  0  0.063844  0  3.126268  0  0  -0.036315  0.062679  0  3.149039  0
S  S135  1  0.86628975  0.57109266  0.83613857  1  0  0.044432  0  2.725842  0  0  0.063435  0  3.139822  0  0  0.063845  0  3.126296  0  0  -0.036282  0.062691  0  3.14903  0
S  S136  1  0.63371102  0.07109035  0.16386277  1  0  0.044455  0  2.725749  0  0  0.06347  0  3.139687  0  0  0.063887  0  3.126165  0  0  -0.036294  0.062713  0  3.148964  0
S  S137  1  0.86629042  0.57109192  0.66386244  1  0  0.044398  0  2.725782  0  0  0.06343  0  3.139751  0  0  0.06384  0  3.126224  0  0  -0.036302  0.06268  0  3.148964  0
S  S138  1  0.63370893  0.07109191  0.33613600  1  0  0.044392  0  2.725795  0  0  0.063401  0  3.139741  0  0  0.063817  0  3.12622  0  0  -0.036297  0.062641  0  3.149011  0
S  S139  1  0.13371257  0.42890799  0.16386392  1  0  0.044417  0  2.725759  0  0  0.063434  0  3.139697  0  0  0.063849  0  3.126185  0  0  -0.036272  0.062682  0  3.148907  0
I  I140  1  0.86540580  0.86610211  0.74999973  1  0  -0.422785  0  1.510449  0  0  -0.370829  0  1.925496  0  0  -0.3886  0  1.890959  0  0  -0.213645  -0.358231  0  1.948091  0
I  I141  1  0.63459348  0.36610219  0.25000054  1  0  -0.422761  0  1.510509  0  0  -0.370787  0  1.925539  0  0  -0.388551  0  1.890998  0  0  -0.213636  -0.358196  0  1.948141  0
I  I142  1  0.36540461  0.63389764  0.75000002  1  0  -0.422767  0  1.510456  0  0  -0.370804  0  1.925501  0  0  -0.388578  0  1.890966  0  0  -0.213626  -0.358205  0  1.948101  0
I  I143  1  0.13459511  0.13389689  0.25000035  1  0  -0.422757  0  1.510482  0  0  -0.370788  0  1.925519  0  0  -0.388552  0  1.890976  0  0  -0.213626  -0.358198  0  1.948124  0
