# generated using pymatgen
data_ErH21C17NO7
_symmetry_space_group_name_H-M   'P 1'
_cell_length_a   8.16562204
_cell_length_b   10.32542424
_cell_length_c   11.67952078
_cell_angle_alpha   108.87000054
_cell_angle_beta   106.10973521
_cell_angle_gamma   97.45706991
_symmetry_Int_Tables_number   1
_chemical_formula_structural   ErH21C17NO7
_chemical_formula_sum   'Er2 H42 C34 N2 O14'
_cell_volume   868.73303081
_cell_formula_units_Z   2
loop_
 _symmetry_equiv_pos_site_id
 _symmetry_equiv_pos_as_xyz
  1  'x, y, z'
loop_
 _atom_site_type_symbol
 _atom_site_label
 _atom_site_symmetry_multiplicity
 _atom_site_fract_x
 _atom_site_fract_y
 _atom_site_fract_z
 _atom_site_occupancy
 _atom_site_hle17_bader_spin_density
 _atom_site_hle17_ddec_charge
 _atom_site_hle17_ddec_spin_density
 _atom_site_hle17_ddec_sum_bond_order
 _atom_site_hle17_magmom
 _atom_site_hse06_10hf_bader_spin_density
 _atom_site_hse06_10hf_ddec_charge
 _atom_site_hse06_10hf_ddec_spin_density
 _atom_site_hse06_10hf_ddec_sum_bond_order
 _atom_site_hse06_10hf_magmom
 _atom_site_hse06_bader_spin_density
 _atom_site_hse06_ddec_charge
 _atom_site_hse06_ddec_spin_density
 _atom_site_hse06_ddec_sum_bond_order
 _atom_site_hse06_magmom
 _atom_site_pbe_bader_spin_density
 _atom_site_pbe_cm5_charge
 _atom_site_pbe_ddec_charge
 _atom_site_pbe_ddec_spin_density
 _atom_site_pbe_ddec_sum_bond_order
 _atom_site_pbe_magmom
Er  Er0  1  0.58519850  0.92426088  0.84691577  1  0  2.172196  0  1.622041  0  0  2.008552  0  2.111129  0  0  2.062092  0  2.06958  0  0  1.48245  1.967735  0  2.144321  0
Er  Er1  1  0.41480213  0.07574243  0.15308607  1  0  2.17226  0  1.621994  0  0  2.008651  0  2.111064  0  0  2.062226  0  2.06946  0  0  1.482464  1.967853  0  2.144218  0
H  H2  1  0.97171806  0.61680251  0.92095288  1  0  0.121041  0  0.956846  0  0  0.132115  0  1.015445  0  0  0.135941  0  1.014533  0  0  0.10458  0.129411  0  1.016333  0
H  H3  1  0.02828062  0.38319442  0.07904080  1  0  0.121006  0  0.956816  0  0  0.132135  0  1.015364  0  0  0.135965  0  1.014447  0  0  0.104573  0.129434  0  1.016243  0
H  H4  1  0.61839220  0.43865896  0.71278739  1  0  0.079223  0  0.934752  0  0  0.094525  0  0.989741  0  0  0.096693  0  0.988316  0  0  0.107795  0.092863  0  0.990935  0
H  H5  1  0.38159865  0.56133699  0.28721652  1  0  0.079151  0  0.934754  0  0  0.094502  0  0.989702  0  0  0.09667  0  0.988274  0  0  0.107808  0.092842  0  0.990897  0
H  H6  1  0.95144482  0.35349602  0.84510895  1  0  0.104145  0  0.96013  0  0  0.125864  0  1.020903  0  0  0.126871  0  1.021997  0  0  0.089852  0.125083  0  1.020193  0
H  H7  1  0.04855766  0.64650936  0.15488955  1  0  0.104158  0  0.960108  0  0  0.125873  0  1.020887  0  0  0.12688  0  1.02198  0  0  0.089853  0.125093  0  1.02018  0
H  H8  1  0.81181575  0.26468467  0.68052062  1  0  0.115002  0  0.942702  0  0  0.13533  0  1.005894  0  0  0.136585  0  1.006455  0  0  0.094652  0.134033  0  1.005921  0
H  H9  1  0.18818298  0.73531652  0.31948027  1  0  0.11503  0  0.942676  0  0  0.135355  0  1.005865  0  0  0.136609  0  1.006426  0  0  0.094676  0.134059  0  1.005897  0
H  H10  1  0.72992525  0.25875414  0.80275524  1  0  0.136321  0  0.958252  0  0  0.154198  0  1.021733  0  0  0.156167  0  1.021454  0  0  0.101051  0.152762  0  1.021995  0
H  H11  1  0.27008021  0.74124392  0.19724775  1  0  0.136274  0  0.958313  0  0  0.154175  0  1.02178  0  0  0.156144  0  1.021504  0  0  0.101044  0.152739  0  1.022046  0
H  H12  1  0.06372187  0.67144969  0.47066303  1  0  0.110834  0  0.956182  0  0  0.122598  0  1.014695  0  0  0.125788  0  1.014715  0  0  0.100183  0.120303  0  1.01484  0
H  H13  1  0.93628488  0.32854415  0.52933816  1  0  0.110811  0  0.956105  0  0  0.122552  0  1.014645  0  0  0.125757  0  1.014651  0  0  0.100177  0.120253  0  1.014785  0
H  H14  1  0.96621944  0.68772030  0.70966442  1  0  0.066304  0  0.970827  0  0  0.080251  0  1.032255  0  0  0.081683  0  1.031919  0  0  0.098929  0.079115  0  1.032618  0
H  H15  1  0.03378602  0.31227353  0.29033567  1  0  0.066333  0  0.970834  0  0  0.080289  0  1.032239  0  0  0.081724  0  1.031902  0  0  0.098938  0.07915  0  1.032608  0
H  H16  1  0.74181355  0.56641559  0.41858119  1  0  0.10599  0  0.965326  0  0  0.129314  0  1.025753  0  0  0.130132  0  1.026528  0  0  0.09133  0.128685  0  1.025278  0
H  H17  1  0.25818333  0.43357507  0.58141722  1  0  0.105936  0  0.965429  0  0  0.129261  0  1.025865  0  0  0.130072  0  1.026639  0  0  0.091315  0.128632  0  1.025392  0
H  H18  1  0.66625679  0.65057361  0.54755143  1  0  0.122925  0  0.940949  0  0  0.14397  0  1.000968  0  0  0.145253  0  1.001274  0  0  0.099472  0.143001  0  1.000834  0
H  H19  1  0.33374902  0.34942130  0.45245160  1  0  0.122898  0  0.940941  0  0  0.143946  0  1.000945  0  0  0.145246  0  1.001233  0  0  0.099459  0.142983  0  1.000804  0
H  H20  1  0.71486078  0.48605127  0.52748679  1  0  0.120565  0  0.942028  0  0  0.143574  0  1.000938  0  0  0.144663  0  1.001066  0  0  0.09791  0.14281  0  1.000878  0
H  H21  1  0.28514218  0.51394259  0.47251625  1  0  0.120601  0  0.94204  0  0  0.143623  0  1.000931  0  0  0.144712  0  1.001059  0  0  0.097941  0.142856  0  1.000878  0
H  H22  1  0.36350355  0.35263405  0.00098843  1  0  0.117626  0  0.985488  0  0  0.127672  0  1.045479  0  0  0.130157  0  1.047109  0  0  0.104483  0.125903  0  1.044459  0
H  H23  1  0.63650624  0.64737451  0.99901150  1  0  0.117592  0  0.985455  0  0  0.127658  0  1.04542  0  0  0.130125  0  1.047052  0  0  0.104484  0.125893  0  1.044399  0
H  H24  1  0.36078543  0.30070312  0.72632735  1  0  0.069783  0  0.952275  0  0  0.083435  0  1.013422  0  0  0.085199  0  1.012715  0  0  0.103187  0.082069  0  1.014121  0
H  H25  1  0.63922631  0.69929912  0.27367116  1  0  0.06973  0  0.952377  0  0  0.083471  0  1.013408  0  0  0.085244  0  1.012697  0  0  0.103213  0.082105  0  1.01411  0
H  H26  1  0.26163917  0.53336474  0.92385657  1  0  0.109803  0  0.945382  0  0  0.132665  0  1.002712  0  0  0.133729  0  1.003436  0  0  0.09245  0.131887  0  1.00228  0
H  H27  1  0.73835980  0.46663323  0.07613575  1  0  0.109727  0  0.945519  0  0  0.132628  0  1.002799  0  0  0.133693  0  1.003522  0  0  0.092415  0.131853  0  1.002361  0
H  H28  1  0.14596802  0.45990122  0.75445148  1  0  0.10768  0  0.948549  0  0  0.130661  0  1.010419  0  0  0.131359  0  1.011216  0  0  0.094863  0.13008  0  1.009974  0
H  H29  1  0.85403035  0.54009042  0.24553894  1  0  0.107621  0  0.948527  0  0  0.130647  0  1.010349  0  0  0.131342  0  1.011147  0  0  0.094858  0.130067  0  1.009901  0
H  H30  1  0.36182197  0.56302972  0.81357567  1  0  0.136514  0  0.952182  0  0  0.154744  0  1.016071  0  0  0.156889  0  1.015113  0  0  0.103151  0.153013  0  1.017265  0
H  H31  1  0.63817414  0.43696719  0.18641580  1  0  0.136593  0  0.952104  0  0  0.154815  0  1.016004  0  0  0.156964  0  1.01504  0  0  0.103187  0.153082  0  1.017199  0
H  H32  1  0.00651092  0.02534890  0.85177615  1  0  0.089281  0  0.948241  0  0  0.097158  0  1.011285  0  0  0.100206  0  1.008431  0  0  0.124338  0.094906  0  1.013313  0
H  H33  1  0.99348079  0.97465439  0.14822400  1  0  0.089253  0  0.948195  0  0  0.097128  0  1.011244  0  0  0.100175  0  1.008392  0  0  0.124317  0.094878  0  1.013269  0
H  H34  1  0.17691129  0.05113059  0.71417848  1  0  0.102803  0  1.006925  0  0  0.112839  0  1.067393  0  0  0.115319  0  1.06748  0  0  0.10908  0.110988  0  1.067598  0
H  H35  1  0.82308138  0.94887164  0.28582155  1  0  0.102856  0  1.006738  0  0  0.112853  0  1.067285  0  0  0.115332  0  1.067371  0  0  0.109066  0.111007  0  1.067479  0
H  H36  1  0.68590849  0.93682589  0.40086138  1  0  0.121819  0  0.991775  0  0  0.127982  0  1.057143  0  0  0.13208  0  1.054911  0  0  0.109813  0.125037  0  1.058963  0
H  H37  1  0.31408201  0.06317321  0.59914163  1  0  0.121788  0  0.99186  0  0  0.127999  0  1.057157  0  0  0.132098  0  1.054921  0  0  0.109806  0.125054  0  1.058974  0
H  H38  1  0.53609192  0.90863013  0.54986914  1  0  0.092698  0  0.969256  0  0  0.100456  0  1.032699  0  0  0.103542  0  1.029823  0  0  0.121945  0.098205  0  1.034782  0
H  H39  1  0.46389794  0.09136685  0.45013230  1  0  0.092608  0  0.969331  0  0  0.100463  0  1.032656  0  0  0.103548  0  1.029774  0  0  0.121956  0.098213  0  1.034736  0
H  H40  1  0.78081207  0.15743512  0.08630066  1  0  0.449255  0  0.84874  0  0  0.418147  0  0.913133  0  0  0.429844  0  0.895853  0  0  0.301354  0.409859  0  0.925346  0
H  H41  1  0.21919146  0.84256081  0.91369880  1  0  0.449245  0  0.84875  0  0  0.418121  0  0.913165  0  0  0.429816  0  0.895889  0  0  0.301361  0.409832  0  0.925382  0
H  H42  1  0.93246622  0.13296392  0.02665137  1  0  0.437498  0  0.864164  0  0  0.40907  0  0.924178  0  0  0.420337  0  0.907716  0  0  0.29423  0.401005  0  0.935948  0
H  H43  1  0.06753922  0.86703413  0.97334990  1  0  0.437574  0  0.864055  0  0  0.409147  0  0.924066  0  0  0.42042  0  0.907596  0  0  0.294277  0.401084  0  0.935837  0
C  C44  1  0.75741705  0.70806134  0.84719330  1  0  0.670047  0  3.95694  0  0  0.626935  0  4.248019  0  0  0.662097  0  4.239034  0  0  0.185771  0.603287  0  4.253107  0
C  C45  1  0.24258837  0.29194092  0.15280916  1  0  0.670289  0  3.956815  0  0  0.627099  0  4.248014  0  0  0.662261  0  4.239035  0  0  0.18585  0.603453  0  4.253093  0
C  C46  1  0.83800481  0.58976009  0.85357553  1  0  -0.299263  0  3.705846  0  0  -0.312761  0  3.96041  0  0  -0.326904  0  3.977275  0  0  -0.114339  -0.303725  0  3.949488  0
C  C47  1  0.16199424  0.41023794  0.14642367  1  0  -0.299319  0  3.705882  0  0  -0.31285  0  3.960489  0  0  -0.327001  0  3.97736  0  0  -0.11436  -0.303821  0  3.949573  0
C  C48  1  0.75087095  0.45534505  0.77896200  1  0  0.111542  0  3.660825  0  0  0.097397  0  3.91697  0  0  0.104926  0  3.933247  0  0  -0.055924  0.092328  0  3.906127  0
C  C49  1  0.24912112  0.54465086  0.22103698  1  0  0.111632  0  3.660873  0  0  0.097441  0  3.917061  0  0  0.104972  0  3.933335  0  0  -0.055948  0.092366  0  3.906229  0
C  C50  1  0.81698292  0.32808894  0.77824191  1  0  -0.32635  0  3.738264  0  0  -0.399169  0  3.975795  0  0  -0.403174  0  3.985458  0  0  -0.243407  -0.396083  0  3.969312  0
C  C51  1  0.18301676  0.67191119  0.22175800  1  0  -0.326335  0  3.738308  0  0  -0.399172  0  3.97585  0  0  -0.403178  0  3.985511  0  0  -0.243405  -0.396082  0  3.969375  0
C  C52  1  0.25379567  0.77385854  0.66484588  1  0  0.695315  0  3.913591  0  0  0.65253  0  4.200103  0  0  0.68819  0  4.190363  0  0  0.192396  0.628416  0  4.206127  0
C  C53  1  0.74619991  0.22614477  0.33515843  1  0  0.695399  0  3.913509  0  0  0.65268  0  4.199943  0  0  0.688338  0  4.190209  0  0  0.192478  0.628562  0  4.205959  0
C  C54  1  0.07766452  0.69555290  0.57154873  1  0  -0.284135  0  3.712149  0  0  -0.297372  0  3.966577  0  0  -0.311562  0  3.985767  0  0  -0.113255  -0.288031  0  3.95343  0
C  C55  1  0.92234441  0.30444408  0.42845033  1  0  -0.284181  0  3.712367  0  0  -0.29741  0  3.966796  0  0  -0.311614  0  3.985987  0  0  -0.113304  -0.288055  0  3.953633  0
C  C56  1  0.94073460  0.65979141  0.60668087  1  0  0.096177  0  3.682342  0  0  0.080509  0  3.941328  0  0  0.086726  0  3.960258  0  0  -0.065348  0.076783  0  3.927935  0
C  C57  1  0.05926804  0.34020138  0.39332095  1  0  0.096148  0  3.682615  0  0  0.080483  0  3.941595  0  0  0.086695  0  3.960534  0  0  -0.065357  0.076752  0  3.92819  0
C  C58  1  0.75743528  0.58741546  0.51953233  1  0  -0.315613  0  3.735096  0  0  -0.39211  0  3.97469  0  0  -0.395314  0  3.985389  0  0  -0.240452  -0.389642  0  3.967103  0
C  C59  1  0.24256925  0.41257944  0.48047045  1  0  -0.315577  0  3.735082  0  0  -0.392082  0  3.974654  0  0  -0.395288  0  3.985336  0  0  -0.240463  -0.389617  0  3.967073  0
C  C60  1  0.44026342  0.17019695  0.89108544  1  0  0.728808  0  3.878489  0  0  0.687683  0  4.15862  0  0  0.724529  0  4.146226  0  0  0.210441  0.66239  0  4.16654  0
C  C61  1  0.55974414  0.82981267  0.10891521  1  0  0.728821  0  3.878578  0  0  0.687683  0  4.158702  0  0  0.724535  0  4.146307  0  0  0.210475  0.662426  0  4.166568  0
C  C62  1  0.38095456  0.30169033  0.90925986  1  0  -0.28331  0  3.677466  0  0  -0.297914  0  3.927858  0  0  -0.312268  0  3.946648  0  0  -0.107887  -0.288173  0  3.915082  0
C  C63  1  0.61905490  0.69831716  0.09073798  1  0  -0.283343  0  3.677286  0  0  -0.297948  0  3.927692  0  0  -0.312282  0  3.946508  0  0  -0.107908  -0.288222  0  3.914921  0
C  C64  1  0.34255130  0.35590030  0.81751519  1  0  0.097692  0  3.670393  0  0  0.083085  0  3.929478  0  0  0.089626  0  3.946792  0  0  -0.059417  0.07873  0  3.917612  0
C  C65  1  0.65745345  0.64409982  0.18248225  1  0  0.097789  0  3.67031  0  0  0.083115  0  3.929421  0  0  0.089647  0  3.946744  0  0  -0.059427  0.078755  0  3.917571  0
C  C66  1  0.27485407  0.48469551  0.82940655  1  0  -0.32445  0  3.739713  0  0  -0.400005  0  3.981995  0  0  -0.402959  0  3.990773  0  0  -0.240906  -0.397766  0  3.976214  0
C  C67  1  0.72514649  0.51530352  0.17058636  1  0  -0.324454  0  3.739724  0  0  -0.400075  0  3.98206  0  0  -0.403029  0  3.99084  0  0  -0.240925  -0.397833  0  3.976274  0
C  C68  1  0.93871509  0.00588578  0.75111305  1  0  0.146288  0  3.695758  0  0  0.120985  0  3.949727  0  0  0.127778  0  3.966809  0  0  0.052505  0.116835  0  3.937691  0
C  C69  1  0.06127951  0.99411435  0.24888761  1  0  0.146337  0  3.695678  0  0  0.121047  0  3.949642  0  0  0.127835  0  3.96673  0  0  0.052516  0.116884  0  3.937623  0
C  C70  1  0.03485466  0.02182048  0.67326715  1  0  -0.156848  0  3.707907  0  0  -0.174642  0  3.950527  0  0  -0.182813  0  3.973654  0  0  -0.081121  -0.169253  0  3.934723  0
C  C71  1  0.96513835  0.97817859  0.32673290  1  0  -0.156938  0  3.70764  0  0  -0.174716  0  3.950289  0  0  -0.182886  0  3.973419  0  0  -0.081133  -0.169331  0  3.934492  0
C  C72  1  0.94988374  0.99483042  0.54303023  1  0  0.094823  0  3.744502  0  0  0.107687  0  3.971399  0  0  0.11145  0  3.993086  0  0  0.013356  0.10556  0  3.956309  0
C  C73  1  0.05010452  0.00516549  0.45696889  1  0  0.094946  0  3.744326  0  0  0.107756  0  3.971271  0  0  0.111516  0  3.992957  0  0  0.013387  0.105628  0  3.956189  0
C  C74  1  0.76542744  0.95645035  0.49936538  1  0  -0.158862  0  3.673199  0  0  -0.176097  0  3.919934  0  0  -0.183504  0  3.939714  0  0  -0.080578  -0.171308  0  3.906682  0
C  C75  1  0.23456525  0.04354767  0.50063347  1  0  -0.158967  0  3.673287  0  0  -0.176206  0  3.920035  0  0  -0.183607  0  3.939808  0  0  -0.080624  -0.171417  0  3.906788  0
C  C76  1  0.67871359  0.94202636  0.58315352  1  0  0.132635  0  3.706885  0  0  0.10705  0  3.958196  0  0  0.113842  0  3.974677  0  0  0.049669  0.102848  0  3.946706  0
C  C77  1  0.32127847  0.05797377  0.41684751  1  0  0.132839  0  3.707004  0  0  0.107188  0  3.958295  0  0  0.113978  0  3.974781  0  0  0.049726  0.102984  0  3.946809  0
N  N78  1  0.76188797  0.96411826  0.70768503  1  0  -0.423154  0  3.21531  0  0  -0.366687  0  3.485951  0  0  -0.382544  0  3.504647  0  0  -0.377573  -0.35564  0  3.472761  0
N  N79  1  0.23810633  0.03588083  0.29231699  1  0  -0.423242  0  3.215453  0  0  -0.366782  0  3.486118  0  0  -0.382643  0  3.504815  0  0  -0.377572  -0.355732  0  3.472934  0
O  O80  1  0.84795033  0.83650750  0.91500004  1  0  -0.723286  0  2.023848  0  0  -0.663445  0  2.261866  0  0  -0.690066  0  2.251917  0  0  -0.362869  -0.644641  0  2.268018  0
O  O81  1  0.15205258  0.16349055  0.08500246  1  0  -0.723419  0  2.023753  0  0  -0.663504  0  2.261753  0  0  -0.690131  0  2.251808  0  0  -0.362857  -0.644703  0  2.2679  0
O  O82  1  0.59804621  0.68659711  0.77704672  1  0  -0.6945  0  1.997682  0  0  -0.647463  0  2.24263  0  0  -0.672671  0  2.235435  0  0  -0.384387  -0.629709  0  2.247119  0
O  O83  1  0.40195597  0.31340300  0.22294938  1  0  -0.694545  0  1.99779  0  0  -0.64752  0  2.242784  0  0  -0.672725  0  2.235588  0  0  -0.384426  -0.629766  0  2.247267  0
O  O84  1  0.28655631  0.81235134  0.78755126  1  0  -0.743356  0  2.057286  0  0  -0.679092  0  2.293322  0  0  -0.706665  0  2.284397  0  0  -0.389323  -0.659644  0  2.299568  0
O  O85  1  0.71343695  0.18765720  0.21244981  1  0  -0.743326  0  2.057153  0  0  -0.679177  0  2.293229  0  0  -0.706754  0  2.284302  0  0  -0.389378  -0.659726  0  2.299459  0
O  O86  1  0.37740219  0.80730108  0.62526766  1  0  -0.690366  0  1.970776  0  0  -0.645165  0  2.214457  0  0  -0.670006  0  2.205662  0  0  -0.364686  -0.62751  0  2.220066  0
O  O87  1  0.62259910  0.19271281  0.37474329  1  0  -0.690412  0  1.970792  0  0  -0.645206  0  2.21439  0  0  -0.670062  0  2.205617  0  0  -0.364671  -0.627563  0  2.220008  0
O  O88  1  0.48471008  0.11112622  0.79373680  1  0  -0.708285  0  2.017751  0  0  -0.656796  0  2.259975  0  0  -0.682075  0  2.250929  0  0  -0.373842  -0.63881  0  2.265854  0
O  O89  1  0.51529432  0.88888128  0.20626352  1  0  -0.70826  0  2.017716  0  0  -0.656797  0  2.25999  0  0  -0.682053  0  2.250872  0  0  -0.373847  -0.638829  0  2.265851  0
O  O90  1  0.44434465  0.11091106  0.97307957  1  0  -0.800838  0  2.116863  0  0  -0.736101  0  2.374246  0  0  -0.763575  0  2.364482  0  0  -0.42135  -0.716138  0  2.380292  0
O  O91  1  0.55565686  0.88910806  0.02692776  1  0  -0.800852  0  2.117032  0  0  -0.736097  0  2.374422  0  0  -0.763574  0  2.364654  0  0  -0.421372  -0.716143  0  2.380455  0
O  O92  1  0.80266755  0.12356275  0.00284057  1  0  -0.930024  0  1.849451  0  0  -0.884175  0  2.05149  0  0  -0.903621  0  2.019174  0  0  -0.654594  -0.869868  0  2.074015  0
O  O93  1  0.19733691  0.87643633  0.99715909  1  0  -0.930068  0  1.849357  0  0  -0.884227  0  2.051427  0  0  -0.903681  0  2.019107  0  0  -0.654623  -0.869922  0  2.073952  0
