# generated using pymatgen
data_UH11C13S(NO3)2
_symmetry_space_group_name_H-M   'P 1'
_cell_length_a   7.56067204
_cell_length_b   8.83221668
_cell_length_c   12.29170779
_cell_angle_alpha   86.38151292
_cell_angle_beta   73.41746148
_cell_angle_gamma   75.99949422
_symmetry_Int_Tables_number   1
_chemical_formula_structural   UH11C13S(NO3)2
_chemical_formula_sum   'U2 H22 C26 S2 N4 O12'
_cell_volume   763.28691648
_cell_formula_units_Z   2
loop_
 _symmetry_equiv_pos_site_id
 _symmetry_equiv_pos_as_xyz
  1  'x, y, z'
loop_
 _atom_site_type_symbol
 _atom_site_label
 _atom_site_symmetry_multiplicity
 _atom_site_fract_x
 _atom_site_fract_y
 _atom_site_fract_z
 _atom_site_occupancy
 _atom_site_hle17_bader_spin_density
 _atom_site_hle17_ddec_charge
 _atom_site_hle17_ddec_spin_density
 _atom_site_hle17_ddec_sum_bond_order
 _atom_site_hle17_magmom
 _atom_site_hse06_10hf_bader_spin_density
 _atom_site_hse06_10hf_ddec_charge
 _atom_site_hse06_10hf_ddec_spin_density
 _atom_site_hse06_10hf_ddec_sum_bond_order
 _atom_site_hse06_10hf_magmom
 _atom_site_hse06_bader_spin_density
 _atom_site_hse06_ddec_charge
 _atom_site_hse06_ddec_spin_density
 _atom_site_hse06_ddec_sum_bond_order
 _atom_site_hse06_magmom
 _atom_site_pbe_bader_spin_density
 _atom_site_pbe_cm5_charge
 _atom_site_pbe_ddec_charge
 _atom_site_pbe_ddec_spin_density
 _atom_site_pbe_ddec_sum_bond_order
 _atom_site_pbe_magmom
U  U0  1  0.44057887  0.42565029  0.15442221  1  0  2.414399  0  4.194344  0  0  2.462096  0  4.866712  0  0  2.569456  0  4.833743  0  0  2.171222  2.385467  0  4.891482  0
U  U1  1  0.55941720  0.57435809  0.84557712  1  0  2.414558  0  4.194021  0  0  2.462121  0  4.866547  0  0  2.569571  0  4.833442  0  0  2.171233  2.385534  0  4.891296  0
H  H2  1  0.76366053  0.37081851  0.97427029  1  0  0.421521  0  0.835689  0  0  0.415781  0  0.878653  0  0  0.425377  0  0.865325  0  0  0.326531  0.409011  0  0.888034  0
H  H3  1  0.23632361  0.62918296  0.02572992  1  0  0.421441  0  0.835892  0  0  0.415744  0  0.878708  0  0  0.425333  0  0.865395  0  0  0.326542  0.40898  0  0.888076  0
H  H4  1  0.38540016  0.88422315  0.06749485  1  0  0.142088  0  0.938429  0  0  0.153417  0  0.998861  0  0  0.156866  0  0.997226  0  0  0.119008  0.150923  0  1.000146  0
H  H5  1  0.61459526  0.11577818  0.93251060  1  0  0.14212  0  0.938387  0  0  0.153429  0  0.998828  0  0  0.15686  0  0.997218  0  0  0.118985  0.150985  0  1.000047  0
H  H6  1  0.30271958  0.09329492  0.06964817  1  0  0.144215  0  0.920451  0  0  0.1571  0  0.974081  0  0  0.160349  0  0.972093  0  0  0.120362  0.154848  0  0.975615  0
H  H7  1  0.69726925  0.90670529  0.93035855  1  0  0.144254  0  0.920462  0  0  0.157095  0  0.974103  0  0  0.160344  0  0.972111  0  0  0.120355  0.154846  0  0.975642  0
H  H8  1  0.11618479  0.78171022  0.16996553  1  0  0.083973  0  0.943976  0  0  0.097812  0  0.997528  0  0  0.100678  0  0.994343  0  0  0.128403  0.095609  0  0.99996  0
H  H9  1  0.88382018  0.21829109  0.83003409  1  0  0.084018  0  0.944092  0  0  0.097899  0  0.997569  0  0  0.100722  0  0.994442  0  0  0.128437  0.095691  0  1.000001  0
H  H10  1  0.87913375  0.98226601  0.29866548  1  0  0.110627  0  0.942063  0  0  0.123261  0  0.995822  0  0  0.12622  0  0.995129  0  0  0.114413  0.121077  0  0.996576  0
H  H11  1  0.12087861  0.01773873  0.70133506  1  0  0.110635  0  0.942204  0  0  0.123317  0  0.99588  0  0  0.126275  0  0.995184  0  0  0.114431  0.121132  0  0.996631  0
H  H12  1  0.83245758  0.95062393  0.51165537  1  0  0.105397  0  0.95534  0  0  0.116687  0  1.0157  0  0  0.119399  0  1.014032  0  0  0.110583  0.11467  0  1.017033  0
H  H13  1  0.16755191  0.04937618  0.48834509  1  0  0.105345  0  0.955369  0  0  0.116664  0  1.015702  0  0  0.119375  0  1.014034  0  0  0.110574  0.114646  0  1.017037  0
H  H14  1  0.11526019  0.56199405  0.73730906  1  0  0.126339  0  0.938995  0  0  0.141938  0  0.988387  0  0  0.145089  0  0.98598  0  0  0.119045  0.139687  0  0.99028  0
H  H15  1  0.88474430  0.43800380  0.26268835  1  0  0.126343  0  0.939005  0  0  0.14192  0  0.988422  0  0  0.14507  0  0.986016  0  0  0.119035  0.139667  0  0.990326  0
H  H16  1  0.91944809  0.79698467  0.66914266  1  0  0.115343  0  0.957029  0  0  0.123906  0  1.021717  0  0  0.127077  0  1.020485  0  0  0.111166  0.121559  0  1.022759  0
H  H17  1  0.08055840  0.20302128  0.33085810  1  0  0.115325  0  0.957074  0  0  0.12389  0  1.021753  0  0  0.127061  0  1.020521  0  0  0.111156  0.121541  0  1.022798  0
H  H18  1  0.35506339  0.30941185  0.69547566  1  0  0.125769  0  0.944325  0  0  0.135005  0  1.005151  0  0  0.138306  0  1.002075  0  0  0.11925  0.132566  0  1.00747  0
H  H19  1  0.64493836  0.69058600  0.30452308  1  0  0.125748  0  0.944287  0  0  0.134974  0  1.005134  0  0  0.138275  0  1.002056  0  0  0.119227  0.132538  0  1.007458  0
H  H20  1  0.57695454  0.11537484  0.55216533  1  0  0.10938  0  0.974523  0  0  0.119584  0  1.034974  0  0  0.122815  0  1.034322  0  0  0.105019  0.117188  0  1.035736  0
H  H21  1  0.42305308  0.88462181  0.44783318  1  0  0.109372  0  0.974479  0  0  0.119565  0  1.034953  0  0  0.122791  0  1.034298  0  0  0.104996  0.117167  0  1.035717  0
H  H22  1  0.59791338  0.16465593  0.34525495  1  0  0.074307  0  0.970989  0  0  0.081789  0  1.037388  0  0  0.084633  0  1.0336  0  0  0.119868  0.079614  0  1.040189  0
H  H23  1  0.40208503  0.83534425  0.65474675  1  0  0.074354  0  0.970868  0  0  0.081823  0  1.037274  0  0  0.084667  0  1.033487  0  0  0.11988  0.079646  0  1.040072  0
C  C24  1  0.42833302  0.99581861  0.05705441  1  0  -0.286992  0  3.627152  0  0  -0.326556  0  3.885662  0  0  -0.331449  0  3.892076  0  0  -0.147974  -0.323078  0  3.881135  0
C  C25  1  0.57165650  0.00418393  0.94295046  1  0  -0.287185  0  3.627199  0  0  -0.326639  0  3.885654  0  0  -0.331519  0  3.892073  0  0  -0.148038  -0.323192  0  3.881092  0
C  C26  1  0.09332828  0.76859978  0.26114573  1  0  0.172814  0  3.670929  0  0  0.146032  0  3.932042  0  0  0.157141  0  3.945234  0  0  0.073182  0.13866  0  3.922959  0
C  C27  1  0.90667257  0.23140155  0.73885546  1  0  0.172792  0  3.670905  0  0  0.14601  0  3.931985  0  0  0.157145  0  3.945189  0  0  0.073163  0.13865  0  3.922889  0
C  C28  1  0.96011477  0.88352723  0.33487488  1  0  -0.093507  0  3.709754  0  0  -0.10738  0  3.960978  0  0  -0.113909  0  3.980119  0  0  -0.073905  -0.103292  0  3.948282  0
C  C29  1  0.03989792  0.11647635  0.66512565  1  0  -0.093529  0  3.709648  0  0  -0.107445  0  3.960868  0  0  -0.113968  0  3.979991  0  0  -0.073919  -0.103357  0  3.948164  0
C  C30  1  0.93458286  0.86608794  0.45012728  1  0  -0.045976  0  3.683338  0  0  -0.069324  0  3.928993  0  0  -0.066533  0  3.946593  0  0  -0.059651  -0.070887  0  3.917036  0
C  C31  1  0.06541785  0.13390875  0.54987251  1  0  -0.045992  0  3.683174  0  0  -0.069385  0  3.928853  0  0  -0.066593  0  3.946454  0  0  -0.059676  -0.070951  0  3.916901  0
C  C32  1  0.04289976  0.73368696  0.49110486  1  0  0.030632  0  3.781038  0  0  0.04743  0  4.008757  0  0  0.045352  0  4.032564  0  0  0.000163  0.048614  0  3.992816  0
C  C33  1  0.95709784  0.26631092  0.50889464  1  0  0.030703  0  3.781004  0  0  0.047502  0  4.008729  0  0  0.045425  0  4.032534  0  0  0.000174  0.048686  0  3.99279  0
C  C34  1  0.17309193  0.62181658  0.41039972  1  0  0.135171  0  3.754256  0  0  0.134212  0  3.996952  0  0  0.139056  0  4.018549  0  0  0.122874  0.130919  0  3.982275  0
C  C35  1  0.82690850  0.37818126  0.58960170  1  0  0.135139  0  3.754395  0  0  0.134175  0  3.997094  0  0  0.139022  0  4.018697  0  0  0.122891  0.130886  0  3.982414  0
C  C36  1  0.28106535  0.48354145  0.45010038  1  0  0.131601  0  3.768381  0  0  0.129607  0  4.011349  0  0  0.135383  0  4.032879  0  0  0.121634  0.125724  0  3.996697  0
C  C37  1  0.71893423  0.51645411  0.54989723  1  0  0.131557  0  3.7685  0  0  0.129587  0  4.011375  0  0  0.135355  0  4.032924  0  0  0.121628  0.125703  0  3.996725  0
C  C38  1  0.26003288  0.46474939  0.56869622  1  0  0.023423  0  3.766078  0  0  0.041682  0  3.994371  0  0  0.038596  0  4.018208  0  0  0.001312  0.043549  0  3.978255  0
C  C39  1  0.73996222  0.53524736  0.43130217  1  0  0.023474  0  3.766194  0  0  0.041791  0  3.994374  0  0  0.038708  0  4.018214  0  0  0.001299  0.043657  0  3.978259  0
C  C40  1  0.12923287  0.58070681  0.64715877  1  0  -0.081969  0  3.710655  0  0  -0.108344  0  3.966359  0  0  -0.110502  0  3.987885  0  0  -0.07174  -0.10659  0  3.951453  0
C  C41  1  0.87076844  0.41928756  0.35283938  1  0  -0.082001  0  3.71062  0  0  -0.108372  0  3.966305  0  0  -0.110531  0  3.987831  0  0  -0.071738  -0.106623  0  3.95141  0
C  C42  1  0.02335585  0.71020551  0.60974213  1  0  -0.108944  0  3.729739  0  0  -0.134691  0  3.993357  0  0  -0.138822  0  4.01635  0  0  -0.08119  -0.131796  0  3.977724  0
C  C43  1  0.97664421  0.28979351  0.39025768  1  0  -0.10896  0  3.72985  0  0  -0.13471  0  3.993474  0  0  -0.13884  0  4.016467  0  0  -0.081212  -0.131815  0  3.977846  0
C  C44  1  0.36921875  0.32869550  0.60516598  1  0  -0.019619  0  3.636572  0  0  -0.046822  0  3.885937  0  0  -0.042269  0  3.901662  0  0  -0.051269  -0.049496  0  3.87513  0
C  C45  1  0.63077814  0.67130005  0.39483457  1  0  -0.019616  0  3.636698  0  0  -0.046829  0  3.886013  0  0  -0.042275  0  3.901735  0  0  -0.051221  -0.049509  0  3.875219  0
C  C46  1  0.49215760  0.22094141  0.52511510  1  0  -0.12522  0  3.724367  0  0  -0.139656  0  3.97874  0  0  -0.148089  0  3.999593  0  0  -0.086204  -0.134284  0  3.964864  0
C  C47  1  0.50784512  0.77905294  0.47488361  1  0  -0.125182  0  3.724418  0  0  -0.139617  0  3.978763  0  0  -0.148043  0  3.999609  0  0  -0.086184  -0.134245  0  3.964886  0
C  C48  1  0.50341726  0.24793736  0.41004129  1  0  0.155239  0  3.713962  0  0  0.127265  0  3.980843  0  0  0.138354  0  3.996165  0  0  0.060095  0.120002  0  3.970214  0
C  C49  1  0.49658264  0.75205702  0.58995631  1  0  0.15522  0  3.713981  0  0  0.127278  0  3.980835  0  0  0.138366  0  3.996159  0  0  0.060114  0.12002  0  3.970194  0
S  S50  1  0.52596768  0.00326065  0.17320675  1  0  1.352766  0  5.506639  0  0  1.275524  0  6.039913  0  0  1.324379  0  6.017213  0  0  0.525603  1.241312  0  6.05396  0
S  S51  1  0.47402736  0.99674186  0.82679709  1  0  1.352952  0  5.506354  0  0  1.275722  0  6.039568  0  0  1.324578  0  6.016859  0  0  0.525657  1.24151  0  6.053623  0
N  N52  1  0.19752278  0.64089707  0.29642484  1  0  -0.414211  0  3.226661  0  0  -0.389515  0  3.520878  0  0  -0.411891  0  3.54492  0  0  -0.354156  -0.373726  0  3.503933  0
N  N53  1  0.80247620  0.35910080  0.70357440  1  0  -0.414148  0  3.226689  0  0  -0.389451  0  3.520917  0  0  -0.411837  0  3.544949  0  0  -0.354109  -0.373674  0  3.50397  0
N  N54  1  0.39968807  0.37407992  0.37256049  1  0  -0.416897  0  3.24471  0  0  -0.39365  0  3.543743  0  0  -0.417176  0  3.568657  0  0  -0.359111  -0.377076  0  3.526132  0
N  N55  1  0.60030852  0.62591678  0.62744087  1  0  -0.416955  0  3.24479  0  0  -0.393744  0  3.543836  0  0  -0.41728  0  3.568759  0  0  -0.359164  -0.37718  0  3.52623  0
O  O56  1  0.23638069  0.36410737  0.14053929  1  0  -0.702215  0  1.555625  0  0  -0.706872  0  1.834888  0  0  -0.728716  0  1.822127  0  0  -0.75854  -0.693449  0  1.844557  0
O  O57  1  0.76361387  0.63590211  0.85946678  1  0  -0.702302  0  1.555514  0  0  -0.706931  0  1.834805  0  0  -0.728796  0  1.822028  0  0  -0.758535  -0.693518  0  1.844483  0
O  O58  1  0.63869869  0.49638180  0.16816135  1  0  -0.692579  0  1.561259  0  0  -0.700427  0  1.842493  0  0  -0.721646  0  1.828969  0  0  -0.751987  -0.687436  0  1.852738  0
O  O59  1  0.36130843  0.50361608  0.83183151  1  0  -0.692559  0  1.561161  0  0  -0.700372  0  1.842419  0  0  -0.72161  0  1.828877  0  0  -0.751986  -0.687392  0  1.852674  0
O  O60  1  0.57902925  0.16116622  0.16300577  1  0  -0.755886  0  2.021977  0  0  -0.734188  0  2.313772  0  0  -0.765822  0  2.302037  0  0  -0.429671  -0.710223  0  2.320405  0
O  O61  1  0.42096297  0.83884101  0.83699351  1  0  -0.755937  0  2.021972  0  0  -0.73422  0  2.313776  0  0  -0.765865  0  2.302035  0  0  -0.429654  -0.710268  0  2.320411  0
O  O62  1  0.37361308  0.99846936  0.27693813  1  0  -0.657027  0  1.916617  0  0  -0.618886  0  2.16684  0  0  -0.640843  0  2.155984  0  0  -0.33314  -0.60265  0  2.17343  0
O  O63  1  0.62639450  0.00153306  0.72306665  1  0  -0.6571  0  1.916397  0  0  -0.618989  0  2.166622  0  0  -0.640947  0  2.155763  0  0  -0.333188  -0.602765  0  2.173231  0
O  O64  1  0.69715127  0.87938580  0.15761447  1  0  -0.623598  0  1.871042  0  0  -0.585875  0  2.097388  0  0  -0.607486  0  2.084678  0  0  -0.331032  -0.569913  0  2.105372  0
O  O65  1  0.30284994  0.12061904  0.84238487  1  0  -0.623593  0  1.871004  0  0  -0.58588  0  2.097359  0  0  -0.60749  0  2.084645  0  0  -0.331006  -0.56992  0  2.105342  0
O  O66  1  0.64009441  0.36909439  0.96501013  1  0  -0.950357  0  1.786648  0  0  -0.967974  0  2.04546  0  0  -1.009393  0  2.02934  0  0  -0.680155  -0.937134  0  2.055477  0
O  O67  1  0.35989334  0.63090829  0.03498203  1  0  -0.950298  0  1.78691  0  0  -0.967889  0  2.045614  0  0  -1.009329  0  2.029524  0  0  -0.680156  -0.937044  0  2.055627  0
