# generated using pymatgen
data_ZnH20C35N(Cl3O)4
_symmetry_space_group_name_H-M   'P 1'
_cell_length_a   15.11933491
_cell_length_b   18.85926363
_cell_length_c   19.04051502
_cell_angle_alpha   91.11480780
_cell_angle_beta   92.82900472
_cell_angle_gamma   92.27095264
_symmetry_Int_Tables_number   1
_chemical_formula_structural   ZnH20C35N(Cl3O)4
_chemical_formula_sum   'Zn2 H40 C70 N2 Cl24 O8'
_cell_volume   5417.08069663
_cell_formula_units_Z   2
loop_
 _symmetry_equiv_pos_site_id
 _symmetry_equiv_pos_as_xyz
  1  'x, y, z'
loop_
 _atom_site_type_symbol
 _atom_site_label
 _atom_site_symmetry_multiplicity
 _atom_site_fract_x
 _atom_site_fract_y
 _atom_site_fract_z
 _atom_site_occupancy
 _atom_site_pbe_bader_charge
 _atom_site_pbe_bader_spin_density
 _atom_site_pbe_cm5_charge
 _atom_site_pbe_ddec_charge
 _atom_site_pbe_ddec_spin_density
 _atom_site_pbe_ddec_sum_bond_order
 _atom_site_pbe_magmom
Zn  Zn0  1  0.50019289  0.41644355  0.50188329  1  1.311574  0  0.692716  0.901047  0  2.208848  0
Zn  Zn1  1  0.50056759  0.58503672  0.49783039  1  1.33143  0  0.696945  0.904539  0  2.260251  0
H  H2  1  0.05907051  0.42751844  0.72197424  1  0.014205  0  0.083659  0.113085  0  1.000587  0
H  H3  1  0.16513363  0.43651294  0.68613838  1  0.04622  0  0.075779  0.103153  0  1.046343  0
H  H4  1  0.15151346  0.46272272  0.77470820  1  0.026086  0  0.085847  0.117682  0  0.99486  0
H  H5  1  0.15617890  0.57259417  0.70610444  1  0.051369  0  0.07873  0.077643  0  1.044446  0
H  H6  1  0.05025430  0.55602675  0.73695693  1  -0.002221  0  0.093583  0.092992  0  1.006802  0
H  H7  1  0.96202915  0.42665306  0.22872338  1  0.032272  0  0.082956  0.114105  0  1.01228  0
H  H8  1  0.86584469  0.39141981  0.26706626  1  0.031687  0  0.075488  0.105258  0  1.03287  0
H  H9  1  0.85544903  0.45144656  0.19653448  1  0.030904  0  0.074928  0.10723  0  1.023497  0
H  H10  1  0.83065810  0.51659947  0.30692306  1  0.052531  0  0.067634  0.05809  0  1.108564  0
H  H11  1  0.92806923  0.54908556  0.27286685  1  0.015506  0  0.089749  0.090089  0  0.984176  0
H  H12  1  0.93477952  0.69666509  0.60407298  1  0.032777  0  0.084594  0.114494  0  0.998322  0
H  H13  1  0.82924099  0.65199974  0.59989623  1  0.013976  0  0.07762  0.105749  0  1.057264  0
H  H14  1  0.86264851  0.70597112  0.67449692  1  0.005036  0  0.086836  0.119775  0  0.993821  0
H  H15  1  0.88079584  0.58004559  0.70678558  1  0.026325  0  0.079993  0.0745  0  1.036727  0
H  H16  1  0.98328842  0.62708684  0.70623019  1  0.017744  0  0.094892  0.095427  0  0.995316  0
H  H17  1  0.12309241  0.61925711  0.33492640  1  0.02295  0  0.083622  0.114382  0  0.994809  0
H  H18  1  0.21125884  0.56209940  0.35373102  1  0.015374  0  0.078126  0.10883  0  1.042649  0
H  H19  1  0.18680891  0.58692698  0.26590494  1  0.033045  0  0.08349  0.111452  0  1.006621  0
H  H20  1  0.12650802  0.46336314  0.28355158  1  0.047594  0  0.080267  0.076171  0  1.036981  0
H  H21  1  0.04391820  0.52182175  0.26076933  1  0.02994  0  0.093897  0.095461  0  1.010579  0
H  H22  1  0.52066452  0.31696532  0.33593099  1  0.057338  0  0.086347  0.127036  0  0.994293  0
H  H23  1  0.46218436  0.23401627  0.31767110  1  0.012145  0  0.074784  0.101991  0  1.033589  0
H  H24  1  0.41651365  0.31455492  0.28868238  1  0.038884  0  0.081942  0.117853  0  1.015046  0
H  H25  1  0.33960279  0.27574880  0.39474900  1  0.060947  0  0.090904  0.101173  0  0.992341  0
H  H26  1  0.40109411  0.35535467  0.41282345  1  0.063295  0  0.092412  0.102466  0  1.063079  0
H  H27  1  0.64880688  0.75387917  0.67203437  1  0.020275  0  0.072547  0.101682  0  1.037377  0
H  H28  1  0.57694061  0.67676722  0.66555356  1  0.09504  0  0.072252  0.1153  0  1.072645  0
H  H29  1  0.69348927  0.66812172  0.67430555  1  0.034092  0  0.081372  0.114515  0  1.025236  0
H  H30  1  0.64455554  0.64174440  0.55119336  1  0.120041  0  0.096015  0.11217  0  1.055105  0
H  H31  1  0.70976095  0.72111791  0.55573634  1  0.046625  0  0.092237  0.099299  0  0.989642  0
H  H32  1  0.54235712  0.28898292  0.69961041  1  0.067376  0  0.071112  0.10363  0  1.054433  0
H  H33  1  0.64533814  0.24691741  0.69844635  1  0.017459  0  0.071435  0.102159  0  1.053288  0
H  H34  1  0.64239146  0.33867259  0.71948124  1  0.041845  0  0.084862  0.12348  0  0.991434  0
H  H35  1  0.68843621  0.31677545  0.59444604  1  0.056252  0  0.101446  0.115834  0  0.95294  0
H  H36  1  0.59875684  0.37149680  0.60366494  1  0.087516  0  0.09799  0.114379  0  1.040543  0
H  H37  1  0.37083137  0.74996807  0.32385994  1  0.030066  0  0.073658  0.098445  0  1.039948  0
H  H38  1  0.43647469  0.67330745  0.32844830  1  0.089663  0  0.084912  0.128652  0  1.015479  0
H  H39  1  0.31941100  0.66367986  0.31615153  1  0.011326  0  0.088992  0.124144  0  1.009424  0
H  H40  1  0.36224690  0.63734292  0.43949334  1  0.070266  0  0.100244  0.119795  0  1.035323  0
H  H41  1  0.30152807  0.71492591  0.43634855  1  0.058266  0  0.093954  0.1007  0  0.980429  0
C  C42  1  0.48604151  0.52144465  0.63117803  1  1.624634  0  0.209442  0.598457  0  4.193376  0
C  C43  1  0.51033807  0.51592671  0.36478900  1  1.643589  0  0.213204  0.606311  0  4.200402  0
C  C44  1  0.96488189  0.55370699  0.61945854  1  -0.044583  0  -0.006294  0.033135  0  3.860332  0
C  C45  1  0.04096422  0.49022271  0.36791127  1  -0.057691  0  -0.010693  0.027338  0  3.88018  0
C  C46  1  0.61375931  0.55108385  0.26920171  1  0.091638  0  0.009673  0.062854  0  4.03739  0
C  C47  1  0.45936155  0.45607148  0.74475418  1  0.120876  0  0.009397  0.071077  0  4.023691  0
C  C48  1  0.45631313  0.58231687  0.74973800  1  0.10291  0  0.007937  0.070178  0  4.016379  0
C  C49  1  0.47181371  0.49354590  0.23516664  1  0.198643  0  0.010223  0.069946  0  4.03536  0
C  C50  1  0.63633972  0.55081381  0.19841988  1  0.097566  0  0.006515  0.041835  0  4.047749  0
C  C51  1  0.47969316  0.45495328  0.81711528  1  0.122794  0  0.002633  0.031115  0  3.990265  0
C  C52  1  0.47021238  0.58019352  0.82311031  1  0.139041  0  0.003069  0.035937  0  3.985014  0
C  C53  1  0.49216607  0.49724344  0.16427405  1  0.05879  0  0.006599  0.047637  0  4.027204  0
C  C54  1  0.57536258  0.52475963  0.14535713  1  0.11446  0  -0.025891  -0.030124  0  4.044617  0
C  C55  1  0.50921586  0.51943041  0.85487004  1  0.008167  0  -0.00764  0.006323  0  3.909807  0
C  C56  1  0.53304754  0.51921930  0.28810503  1  0.067815  0  -0.01304  -0.104833  0  3.923441  0
C  C57  1  0.46636311  0.52067965  0.70787106  1  0.084522  0  -0.024154  -0.130948  0  3.906022  0
C  C58  1  0.60808394  0.46553009  0.03068940  1  0.148402  0  -0.002379  0.02931  0  4.063987  0
C  C59  1  0.58300517  0.58919752  0.95842145  1  0.149506  0  0.010065  0.055096  0  3.982971  0
C  C60  1  0.59682812  0.46365197  0.95728846  1  0.109431  0  0.006386  0.048373  0  3.988796  0
C  C61  1  0.58876978  0.59094576  0.03225250  1  0.097773  0  0.000472  0.03631  0  4.047685  0
C  C62  1  0.56053822  0.52331612  0.92127285  1  0.060878  0  -0.011583  -0.008867  0  3.921997  0
C  C63  1  0.59222851  0.52762662  0.06957713  1  0.049704  0  -0.024254  -0.015453  0  4.033859  0
C  C64  1  0.45623390  0.26345419  0.45992906  1  0.540338  0  0.126734  0.233821  0  3.896783  0
C  C65  1  0.57362491  0.73602925  0.53238207  1  0.486065  0  0.126932  0.231746  0  3.887771  0
C  C66  1  0.56473361  0.27137502  0.55470065  1  0.516698  0  0.129253  0.232706  0  3.86515  0
C  C67  1  0.43801114  0.73390220  0.46386280  1  0.563455  0  0.128457  0.23127  0  3.887726  0
C  C68  1  0.45340376  0.18904857  0.46320628  1  0.031576  0  0.015923  0.010806  0  3.992281  0
C  C69  1  0.57665440  0.81059261  0.53314526  1  0.101111  0  0.015919  0.010203  0  3.989169  0
C  C70  1  0.57226623  0.19728433  0.55071442  1  0.112476  0  0.016874  0.011886  0  3.982603  0
C  C71  1  0.43854803  0.80849679  0.46673539  1  0.034786  0  0.016907  0.009613  0  3.991215  0
C  C72  1  0.51349507  0.15470412  0.50750291  1  0.145399  0  -0.012644  -0.007079  0  4.07853  0
C  C73  1  0.50844986  0.84809338  0.50101732  1  0.122647  0  -0.011933  -0.003082  0  4.077939  0
C  C74  1  0.66873679  0.48670330  0.49799992  1  1.592357  0  0.210797  0.608134  0  4.207857  0
C  C75  1  0.33083319  0.47804214  0.49958404  1  1.604754  0  0.212315  0.610408  0  4.207008  0
C  C76  1  0.47005153  0.03771189  0.55784411  1  0.180372  0  0.009072  0.050067  0  4.038984  0
C  C77  1  0.55572071  0.96518301  0.45256404  1  0.163429  0  0.008582  0.049876  0  4.039818  0
C  C78  1  0.55840643  0.03966596  0.45488624  1  0.083709  0  0.007626  0.046766  0  4.04411  0
C  C79  1  0.46826908  0.96321108  0.55601034  1  0.086741  0  0.008248  0.049282  0  4.040887  0
C  C80  1  0.51065893  0.92680757  0.50313508  1  0.052716  0  -0.023019  -0.031657  0  4.044265  0
C  C81  1  0.51496242  0.07609773  0.50719873  1  0.083991  0  -0.022266  -0.030087  0  4.042889  0
C  C82  1  0.17778935  0.46307978  0.44189723  1  0.013193  0  0.016049  0.08438  0  4.00701  0
C  C83  1  0.81777015  0.51808185  0.55676668  1  0.065548  0  0.017429  0.083594  0  3.966903  0
C  C84  1  0.23090639  0.48054909  0.50219685  1  0.114189  0  -0.027004  -0.145953  0  3.999151  0
C  C85  1  0.76863721  0.49258624  0.49687918  1  0.145635  0  -0.027559  -0.148016  0  4.007039  0
C  C86  1  0.19219329  0.50878902  0.56118482  1  0.06794  0  0.017351  0.085697  0  3.967756  0
C  C87  1  0.81221842  0.47440413  0.43642005  1  0.039942  0  0.015486  0.083997  0  3.994032  0
C  C88  1  0.09888787  0.51474554  0.56431438  1  -0.032099  0  -0.010168  -0.034208  0  3.957267  0
C  C89  1  0.90432697  0.48826696  0.43152534  1  0.017294  0  -0.009745  -0.029019  0  3.973027  0
C  C90  1  0.04840645  0.50369805  0.49839139  1  0.018211  0  -0.000329  0.010924  0  3.933475  0
C  C91  1  0.95399757  0.50791972  0.49590280  1  -0.042218  0  -0.000182  0.013681  0  3.93821  0
C  C92  1  0.08935434  0.48375203  0.43492274  1  0.030642  0  -0.010684  -0.026938  0  3.990638  0
C  C93  1  0.91119307  0.52816240  0.55843367  1  0.037786  0  -0.011203  -0.031388  0  3.988202  0
C  C94  1  0.05368500  0.53730618  0.62596025  1  0.054393  0  -0.004712  0.038581  0  3.856669  0
C  C95  1  0.94956515  0.48994550  0.36598715  1  0.044608  0  -0.007635  0.036052  0  3.874071  0
C  C96  1  0.09720979  0.53708129  0.69961522  1  0.018066  0  -0.173172  -0.158144  0  3.996365  0
C  C97  1  0.11980063  0.46147384  0.72146034  1  -0.060929  0  -0.247823  -0.35046  0  3.964826  0
C  C98  1  0.89809879  0.50191674  0.29705125  1  0.002578  0  -0.176671  -0.156725  0  4.013324  0
C  C99  1  0.89537361  0.43927289  0.24429633  1  -0.072915  0  -0.25267  -0.352518  0  3.967982  0
C  C100  1  0.92804918  0.60517846  0.67210431  1  0.029219  0  -0.169845  -0.156503  0  3.998322  0
C  C101  1  0.88598713  0.66837841  0.63534428  1  -0.047816  0  -0.248247  -0.355187  0  3.96177  0
C  C102  1  0.09142030  0.50887115  0.30331099  1  -0.020038  0  -0.171751  -0.1548  0  3.991585  0
C  C103  1  0.15697955  0.57277284  0.31549462  1  -0.05568  0  -0.249185  -0.355175  0  3.967258  0
C  C104  1  0.40742033  0.29895407  0.40079934  1  0.007103  0  -0.171191  -0.198876  0  3.970537  0
C  C105  1  0.45480032  0.29015827  0.33163674  1  -0.05916  0  -0.246296  -0.336889  0  3.927651  0
C  C106  1  0.64579619  0.69699037  0.57000445  1  -0.009377  0  -0.169978  -0.195349  0  3.962907  0
C  C107  1  0.64071937  0.69951267  0.65047256  1  -0.11507  0  -0.256806  -0.352097  0  3.93977  0
C  C108  1  0.61857774  0.31669303  0.60849067  1  -0.008343  0  -0.166244  -0.188164  0  3.950532  0
C  C109  1  0.61161362  0.29566079  0.68571063  1  -0.089937  0  -0.256444  -0.352077  0  3.95904  0
C  C110  1  0.36489641  0.69260877  0.42305181  1  0.016052  0  -0.166954  -0.190828  0  3.9533  0
C  C111  1  0.37385285  0.69554303  0.34292307  1  -0.089344  0  -0.248214  -0.341958  0  3.920923  0
N  N112  1  0.50821201  0.30229144  0.50765874  1  -1.192369  0  -0.296075  -0.286959  0  3.362488  0
N  N113  1  0.50482368  0.69986649  0.49751038  1  -1.213629  0  -0.295385  -0.285336  0  3.363773  0
Cl  Cl114  1  0.22482292  0.41322409  0.37704848  1  -0.198075  0  0.027726  -0.035129  0  1.65944  0
Cl  Cl115  1  0.75724061  0.52251878  0.63233339  1  -0.206774  0  0.032445  -0.026444  0  1.591601  0
Cl  Cl116  1  0.41644521  0.08266440  0.62130479  1  -0.171047  0  0.008693  -0.035459  0  1.541477  0
Cl  Cl117  1  0.60694268  0.92006953  0.38785303  1  -0.161155  0  0.007523  -0.037897  0  1.542675  0
Cl  Cl118  1  0.61432963  0.08705588  0.39377763  1  -0.159593  0  0.010325  -0.03483  0  1.550949  0
Cl  Cl119  1  0.41390106  0.91576912  0.61798415  1  -0.164925  0  0.0069  -0.038398  0  1.544869  0
Cl  Cl120  1  0.26805545  0.53968725  0.62721704  1  -0.194106  0  0.030197  -0.037647  0  1.759013  0
Cl  Cl121  1  0.74998802  0.42621622  0.37147430  1  -0.195259  0  0.024051  -0.028769  0  1.642313  0
Cl  Cl122  1  0.68411013  0.59293513  0.33180576  1  -0.160737  0  0.02414  -0.017658  0  1.670234  0
Cl  Cl123  1  0.41333521  0.38126094  0.70249929  1  -0.14604  0  0.03129  -0.007171  0  1.662931  0
Cl  Cl124  1  0.41905439  0.65959484  0.71448937  1  -0.14631  0  0.020076  -0.022246  0  1.668745  0
Cl  Cl125  1  0.36875742  0.46265645  0.25761987  1  -0.168417  0  0.017923  -0.038272  0  1.660472  0
Cl  Cl126  1  0.73889287  0.58277288  0.17580838  1  -0.17349  0  0.016406  -0.034246  0  1.623444  0
Cl  Cl127  1  0.45028977  0.38003363  0.86180143  1  -0.155314  0  0.006132  -0.044868  0  1.679688  0
Cl  Cl128  1  0.42484274  0.64470552  0.87336567  1  -0.151381  0  0.006338  -0.04464  0  1.691263  0
Cl  Cl129  1  0.41423388  0.46963929  0.09951482  1  -0.180335  0  -0.001996  -0.054446  0  1.563416  0
Cl  Cl130  1  0.64051850  0.39179106  0.07533750  1  -0.168119  0  0.001396  -0.039536  0  1.542285  0
Cl  Cl131  1  0.61462943  0.66443139  0.91544577  1  -0.144228  0  0.013231  -0.028699  0  1.661524  0
Cl  Cl132  1  0.64011403  0.39487219  0.91175080  1  -0.155504  0  0.01128  -0.03286  0  1.66214  0
Cl  Cl133  1  0.58769954  0.67115871  0.07653398  1  -0.17361  0  -2.4e-05  -0.044481  0  1.575497  0
Cl  Cl134  1  0.37803446  0.13864904  0.41037006  1  -0.185426  0  0.020675  -0.034916  0  1.538084  0
Cl  Cl135  1  0.66577066  0.85809709  0.57341501  1  -0.183323  0  0.022187  -0.034487  0  1.54612  0
Cl  Cl136  1  0.65606745  0.15605796  0.59689810  1  -0.178358  0  0.023913  -0.030361  0  1.549502  0
Cl  Cl137  1  0.35213488  0.85334441  0.42807668  1  -0.188692  0  0.020683  -0.038334  0  1.543398  0
O  O138  1  0.50628670  0.46328600  0.60317517  1  -1.17553  0  -0.313249  -0.55821  0  2.42191  0
O  O139  1  0.50069170  0.57655170  0.39305577  1  -1.136763  0  -0.306219  -0.530382  0  2.397149  0
O  O140  1  0.50455139  0.45586940  0.39246309  1  -1.1543  0  -0.299054  -0.5401  0  2.297318  0
O  O141  1  0.48728106  0.58143448  0.60144378  1  -1.148468  0  -0.312387  -0.535714  0  2.421689  0
O  O142  1  0.63292087  0.42489232  0.49889963  1  -1.148065  0  -0.306175  -0.534809  0  2.403531  0
O  O143  1  0.36967394  0.53684006  0.48816730  1  -1.168872  0  -0.303477  -0.551562  0  2.372497  0
O  O144  1  0.36663312  0.41860174  0.50758606  1  -1.148884  0  -0.311155  -0.538112  0  2.342769  0
O  O145  1  0.63005460  0.54501791  0.49721541  1  -1.178906  0  -0.308174  -0.564196  0  2.394059  0
