# generated using pymatgen
data_Cu2H10C13(IN2)2
_symmetry_space_group_name_H-M   'P 1'
_cell_length_a   4.03614323
_cell_length_b   8.68587680
_cell_length_c   21.87481108
_cell_angle_alpha   90.30391086
_cell_angle_beta   90.00012224
_cell_angle_gamma   89.99970914
_symmetry_Int_Tables_number   1
_chemical_formula_structural   Cu2H10C13(IN2)2
_chemical_formula_sum   'Cu4 H20 C26 I4 N8'
_cell_volume   766.86415082
_cell_formula_units_Z   2
loop_
 _symmetry_equiv_pos_site_id
 _symmetry_equiv_pos_as_xyz
  1  'x, y, z'
loop_
 _atom_site_type_symbol
 _atom_site_label
 _atom_site_symmetry_multiplicity
 _atom_site_fract_x
 _atom_site_fract_y
 _atom_site_fract_z
 _atom_site_occupancy
 _atom_site_hle17_bader_spin_density
 _atom_site_hle17_ddec_charge
 _atom_site_hle17_ddec_spin_density
 _atom_site_hle17_ddec_sum_bond_order
 _atom_site_hle17_magmom
 _atom_site_hse06_10hf_bader_spin_density
 _atom_site_hse06_10hf_ddec_charge
 _atom_site_hse06_10hf_ddec_spin_density
 _atom_site_hse06_10hf_ddec_sum_bond_order
 _atom_site_hse06_10hf_magmom
 _atom_site_hse06_bader_spin_density
 _atom_site_hse06_ddec_charge
 _atom_site_hse06_ddec_spin_density
 _atom_site_hse06_ddec_sum_bond_order
 _atom_site_hse06_magmom
 _atom_site_pbe_bader_spin_density
 _atom_site_pbe_cm5_charge
 _atom_site_pbe_ddec_charge
 _atom_site_pbe_ddec_spin_density
 _atom_site_pbe_ddec_sum_bond_order
 _atom_site_pbe_magmom
Cu  Cu0  1  0.21676786  0.40579232  0.84135425  1  0  0.336752  0  2.191445  0  0  0.241112  0  2.695177  0  0  0.243017  0  2.649933  0  0  0.359956  0.24244  0  2.724353  0
Cu  Cu1  1  0.71677586  0.59420836  0.15864757  1  0  0.336719  0  2.191453  0  0  0.241083  0  2.695198  0  0  0.24302  0  2.649933  0  0  0.359972  0.242419  0  2.724374  0
Cu  Cu2  1  0.62767816  0.02704872  0.54036634  1  0  0.238614  0  2.198656  0  0  0.157689  0  2.687162  0  0  0.170461  0  2.629548  0  0  0.243194  0.151054  0  2.72594  0
Cu  Cu3  1  0.12769052  0.97294642  0.45963541  1  0  0.238658  0  2.198565  0  0  0.157726  0  2.687086  0  0  0.170493  0  2.629461  0  0  0.243231  0.151089  0  2.725858  0
H  H4  1  0.72703938  0.78716068  0.67788206  1  0  0.128472  0  0.986691  0  0  0.137139  0  1.050351  0  0  0.140575  0  1.049472  0  0  0.095913  0.134552  0  1.051327  0
H  H5  1  0.22704623  0.21283426  0.32211700  1  0  0.1284  0  0.986763  0  0  0.137066  0  1.050438  0  0  0.140501  0  1.049558  0  0  0.095877  0.134475  0  1.051404  0
H  H6  1  0.55135154  0.93374600  0.78417810  1  0  0.110756  0  0.972676  0  0  0.119748  0  1.038697  0  0  0.12333  0  1.035397  0  0  0.112716  0.117505  0  1.040924  0
H  H7  1  0.05134912  0.06625050  0.21582179  1  0  0.110822  0  0.972592  0  0  0.119786  0  1.03865  0  0  0.123372  0  1.035354  0  0  0.112717  0.117543  0  1.040871  0
H  H8  1  0.22031286  0.97968170  0.86508446  1  0  0.115393  0  0.995447  0  0  0.126193  0  1.054587  0  0  0.129834  0  1.054223  0  0  0.09018  0.123331  0  1.055491  0
H  H9  1  0.72031932  0.02031676  0.13491095  1  0  0.115399  0  0.995425  0  0  0.126204  0  1.054551  0  0  0.129839  0  1.054197  0  0  0.090181  0.12334  0  1.055464  0
H  H10  1  0.95259149  0.99573296  0.96688258  1  0  0.090669  0  0.956265  0  0  0.102854  0  1.017026  0  0  0.105332  0  1.014997  0  0  0.100461  0.101054  0  1.018436  0
H  H11  1  0.45258812  0.00428104  0.03311438  1  0  0.090652  0  0.956477  0  0  0.102858  0  1.017184  0  0  0.105334  0  1.015157  0  0  0.100489  0.101055  0  1.018598  0
H  H12  1  0.80164755  0.74916805  0.02197706  1  0  0.101296  0  0.975719  0  0  0.106358  0  1.048009  0  0  0.11109  0  1.045102  0  0  0.0932  0.102822  0  1.050436  0
H  H13  1  0.30163248  0.25084742  0.97802349  1  0  0.101342  0  0.975736  0  0  0.106367  0  1.048042  0  0  0.111115  0  1.045095  0  0  0.093226  0.102831  0  1.050469  0
H  H14  1  0.91560586  0.49807367  0.96841534  1  0  0.069592  0  0.95874  0  0  0.077693  0  1.027316  0  0  0.080253  0  1.025071  0  0  0.108414  0.075824  0  1.028966  0
H  H15  1  0.41560462  0.50193688  0.03158799  1  0  0.069526  0  0.958714  0  0  0.077623  0  1.027326  0  0  0.080186  0  1.02508  0  0  0.108368  0.075751  0  1.028978  0
H  H16  1  0.24088016  0.28838231  0.73679044  1  0  0.090768  0  1.002694  0  0  0.092705  0  1.081318  0  0  0.099622  0  1.074945  0  0  0.083429  0.087638  0  1.086018  0
H  H17  1  0.74091260  0.71162063  0.26321002  1  0  0.090689  0  1.002783  0  0  0.092623  0  1.08141  0  0  0.099534  0  1.07506  0  0  0.083406  0.08756  0  1.086099  0
H  H18  1  0.31636639  0.07543149  0.66187497  1  0  0.071606  0  0.957135  0  0  0.07902  0  1.0241  0  0  0.082148  0  1.02135  0  0  0.098694  0.076758  0  1.026077  0
H  H19  1  0.81640713  0.92456782  0.33812552  1  0  0.071662  0  0.957129  0  0  0.079056  0  1.024119  0  0  0.082184  0  1.021367  0  0  0.098674  0.076796  0  1.026084  0
H  H20  1  0.83718584  0.35542638  0.54304829  1  0  0.077732  0  0.943391  0  0  0.084846  0  1.009245  0  0  0.088103  0  1.00616  0  0  0.103772  0.082226  0  1.011863  0
H  H21  1  0.33721653  0.64456368  0.45695171  1  0  0.077664  0  0.943368  0  0  0.0848  0  1.009224  0  0  0.088056  0  1.00614  0  0  0.103726  0.082174  0  1.011848  0
H  H22  1  0.78644344  0.58041918  0.61213115  1  0  0.101164  0  0.997379  0  0  0.111855  0  1.060447  0  0  0.115003  0  1.059871  0  0  0.086684  0.109432  0  1.061232  0
H  H23  1  0.28646105  0.41957331  0.38786793  1  0  0.101118  0  0.997371  0  0  0.111839  0  1.060405  0  0  0.114988  0  1.059826  0  0  0.086682  0.109415  0  1.061198  0
C  C24  1  0.48363255  0.58423879  0.72412481  1  0  0.173082  0  3.735989  0  0  0.163891  0  3.99467  0  0  0.171787  0  4.00935  0  0  0.105355  0.159073  0  3.985189  0
C  C25  1  0.98364100  0.41576011  0.27587622  1  0  0.172873  0  3.736062  0  0  0.163748  0  3.994723  0  0  0.171625  0  4.009427  0  0  0.10534  0.158925  0  3.985246  0
C  C26  1  0.59704690  0.73861685  0.71674638  1  0  -0.204253  0  3.713357  0  0  -0.225452  0  3.972436  0  0  -0.234416  0  3.991789  0  0  -0.104041  -0.219631  0  3.960171  0
C  C27  1  0.09705290  0.26138068  0.28325490  1  0  -0.204138  0  3.713235  0  0  -0.225356  0  3.972302  0  0  -0.234308  0  3.991653  0  0  -0.104022  -0.219525  0  3.960016  0
C  C28  1  0.50960929  0.81559275  0.76944639  1  0  0.009539  0  3.649855  0  0  -0.037613  0  3.911132  0  0  -0.027886  0  3.922866  0  0  0.015601  -0.045449  0  3.903931  0
C  C29  1  0.00960573  0.18440156  0.23055301  1  0  0.009435  0  3.649667  0  0  -0.037666  0  3.910938  0  0  -0.027948  0  3.92268  0  0  0.015618  -0.045508  0  3.903727  0
C  C30  1  0.21298293  0.72986249  0.86459074  1  0  0.322406  0  3.756093  0  0  0.29347  0  4.013221  0  0  0.307121  0  4.029525  0  0  0.220276  0.282287  0  4.00424  0
C  C31  1  0.71297683  0.27013480  0.13540740  1  0  0.322214  0  3.755986  0  0  0.293225  0  4.013182  0  0  0.306877  0  4.029488  0  0  0.220174  0.282051  0  4.004194  0
C  C32  1  0.15582621  0.87531396  0.88975441  1  0  -0.190176  0  3.720162  0  0  -0.207858  0  3.968371  0  0  -0.21679  0  3.988106  0  0  -0.092392  -0.20207  0  3.956097  0
C  C33  1  0.65582887  0.12469152  0.11024374  1  0  -0.190054  0  3.720168  0  0  -0.207708  0  3.968372  0  0  -0.216635  0  3.98811  0  0  -0.092351  -0.201918  0  3.956098  0
C  C34  1  0.00627276  0.88324937  0.94693082  1  0  0.002988  0  3.733646  0  0  -0.014767  0  3.980685  0  0  -0.008063  0  3.99655  0  0  -0.076874  -0.018879  0  3.969762  0
C  C35  1  0.50626757  0.11675648  0.05306726  1  0  0.002825  0  3.733833  0  0  -0.014952  0  3.980851  0  0  -0.008251  0  3.996729  0  0  -0.076976  -0.019061  0  3.969926  0
C  C36  1  0.91754950  0.74737925  0.97694771  1  0  -0.138974  0  3.753072  0  0  -0.152342  0  4.004146  0  0  -0.160362  0  4.025385  0  0  -0.096863  -0.147376  0  3.990188  0
C  C37  1  0.41754093  0.25263363  0.02305335  1  0  -0.138983  0  3.753144  0  0  -0.152303  0  4.004221  0  0  -0.160318  0  4.025465  0  0  -0.096813  -0.147338  0  3.990262  0
C  C38  1  0.98366521  0.60795203  0.94802955  1  0  0.128226  0  3.71295  0  0  0.100887  0  3.963925  0  0  0.108014  0  3.97931  0  0  0.037277  0.096396  0  3.953635  0
C  C39  1  0.48366284  0.39205261  0.05197241  1  0  0.128383  0  3.713128  0  0  0.100996  0  3.96408  0  0  0.10812  0  3.979476  0  0  0.037321  0.096505  0  3.953793  0
C  C40  1  0.51210578  0.45468356  0.68181332  1  0  0.078617  0  3.764482  0  0  0.090044  0  3.996669  0  0  0.095046  0  4.015171  0  0  0.00768  0.086622  0  3.984183  0
C  C41  1  0.01213136  0.54531534  0.31818656  1  0  0.078566  0  3.764346  0  0  0.090014  0  3.996487  0  0  0.095019  0  4.014992  0  0  0.007693  0.086593  0  3.983992  0
C  C42  1  0.37869955  0.30880688  0.69472869  1  0  -0.142392  0  3.715859  0  0  -0.159539  0  3.960738  0  0  -0.166119  0  3.97905  0  0  -0.090091  -0.15509  0  3.948777  0
C  C43  1  0.87872267  0.69119343  0.30527184  1  0  -0.142097  0  3.715868  0  0  -0.159243  0  3.960702  0  0  -0.165824  0  3.979004  0  0  -0.089995  -0.154786  0  3.948712  0
C  C44  1  0.42057414  0.18926257  0.65324014  1  0  0.117525  0  3.695059  0  0  0.09205  0  3.938574  0  0  0.09796  0  3.956023  0  0  0.031828  0.087926  0  3.927315  0
C  C45  1  0.92060874  0.81073305  0.34675902  1  0  0.117328  0  3.695492  0  0  0.091864  0  3.939003  0  0  0.097759  0  3.956446  0  0  0.031771  0.087715  0  3.927762  0
C  C46  1  0.70892750  0.34525535  0.58676652  1  0  0.119953  0  3.693802  0  0  0.093059  0  3.940863  0  0  0.099453  0  3.957593  0  0  0.034947  0.088629  0  3.930331  0
C  C47  1  0.20896019  0.65473617  0.41323297  1  0  0.120024  0  3.693739  0  0  0.093098  0  3.940816  0  0  0.099475  0  3.957538  0  0  0.034993  0.088676  0  3.930266  0
C  C48  1  0.67829380  0.47086796  0.62577760  1  0  -0.145894  0  3.701742  0  0  -0.163838  0  3.943757  0  0  -0.170675  0  3.964272  0  0  -0.088064  -0.159545  0  3.930592  0
C  C49  1  0.17831509  0.52912824  0.37422189  1  0  -0.14578  0  3.701821  0  0  -0.16374  0  3.943802  0  0  -0.170577  0  3.964322  0  0  -0.088037  -0.159452  0  3.930637  0
I  I50  1  0.71849040  0.22919758  0.85346432  1  0  -0.468655  0  1.664585  0  0  -0.411471  0  2.124316  0  0  -0.433306  0  2.088894  0  0  -0.205616  -0.395832  0  2.148948  0
I  I51  1  0.21849474  0.77080312  0.14653613  1  0  -0.468682  0  1.664605  0  0  -0.411498  0  2.124338  0  0  -0.433341  0  2.088921  0  0  -0.205623  -0.395863  0  2.148968  0
I  I52  1  0.62567260  0.15958420  0.43275705  1  0  -0.358114  0  1.807515  0  0  -0.307582  0  2.271954  0  0  -0.322869  0  2.226942  0  0  -0.165592  -0.295878  0  2.303621  0
I  I53  1  0.12566253  0.84041094  0.56724515  1  0  -0.35815  0  1.807477  0  0  -0.307629  0  2.271917  0  0  -0.322913  0  2.226905  0  0  -0.165615  -0.29593  0  2.30359  0
N  N54  1  0.33414610  0.56920541  0.77896641  1  0  -0.244179  0  3.130499  0  0  -0.211091  0  3.438136  0  0  -0.213861  0  3.441474  0  0  -0.260328  -0.211373  0  3.436626  0
N  N55  1  0.83415639  0.43079039  0.22103453  1  0  -0.244035  0  3.130441  0  0  -0.211058  0  3.438189  0  0  -0.213829  0  3.441544  0  0  -0.260363  -0.211342  0  3.436685  0
N  N56  1  0.35228407  0.71054447  0.80621468  1  0  0.009107  0  3.57182  0  0  0.090102  0  3.789104  0  0  0.077331  0  3.813617  0  0  -0.13232  0.101227  0  3.772605  0
N  N57  1  0.85228819  0.28945246  0.19378490  1  0  0.009202  0  3.571635  0  0  0.090178  0  3.78903  0  0  0.07741  0  3.813544  0  0  -0.132319  0.1013  0  3.77253  0
N  N58  1  0.13306092  0.59792674  0.89305736  1  0  -0.336886  0  3.319115  0  0  -0.278242  0  3.618187  0  0  -0.287234  0  3.621504  0  0  -0.357274  -0.272605  0  3.616282  0
N  N59  1  0.63306060  0.40207876  0.10694353  1  0  -0.336814  0  3.319086  0  0  -0.278077  0  3.618081  0  0  -0.28708  0  3.621419  0  0  -0.3572  -0.272446  0  3.616176  0
N  N60  1  0.58403433  0.20487934  0.59971951  1  0  -0.26472  0  3.356875  0  0  -0.190888  0  3.639844  0  0  -0.20388  0  3.650488  0  0  -0.360123  -0.183029  0  3.633155  0
N  N61  1  0.08406045  0.79511364  0.40027993  1  0  -0.26478  0  3.356874  0  0  -0.190954  0  3.639864  0  0  -0.2039  0  3.650462  0  0  -0.360144  -0.183085  0  3.633143  0
