# generated using pymatgen
data_ZnH46C38(NO3)3
_symmetry_space_group_name_H-M   'P 1'
_cell_length_a   16.56231240
_cell_length_b   16.36621282
_cell_length_c   19.06905309
_cell_angle_alpha   86.32755698
_cell_angle_beta   89.03144349
_cell_angle_gamma   88.42250120
_symmetry_Int_Tables_number   1
_chemical_formula_structural   ZnH46C38(NO3)3
_chemical_formula_sum   'Zn2 H92 C76 N6 O18'
_cell_volume   5155.73893170
_cell_formula_units_Z   2
loop_
 _symmetry_equiv_pos_site_id
 _symmetry_equiv_pos_as_xyz
  1  'x, y, z'
loop_
 _atom_site_type_symbol
 _atom_site_label
 _atom_site_symmetry_multiplicity
 _atom_site_fract_x
 _atom_site_fract_y
 _atom_site_fract_z
 _atom_site_occupancy
 _atom_site_pbe_bader_charge
 _atom_site_pbe_bader_spin_density
 _atom_site_pbe_cm5_charge
 _atom_site_pbe_ddec_charge
 _atom_site_pbe_ddec_spin_density
 _atom_site_pbe_ddec_sum_bond_order
 _atom_site_pbe_magmom
Zn  Zn0  1  0.49561608  0.41120039  0.50242452  1  1.307471  0  0.683359  0.871775  0  2.371982  0
Zn  Zn1  1  0.51216267  0.59106917  0.48276222  1  1.301483  0  0.678038  0.869071  0  2.33184  0
H  H2  1  0.42234924  0.38541576  0.28440353  1  0.076179  0  0.101502  0.110315  0  1.016489  0
H  H3  1  0.75454870  0.33013071  0.52821393  1  0.081546  0  0.101889  0.106087  0  1.003651  0
H  H4  1  0.98393819  0.58177672  0.58922246  1  0.009511  0  0.098118  0.095023  0  1.014899  0
H  H5  1  0.00547683  0.39667598  0.62517613  1  0.045776  0  0.098733  0.093667  0  1.01209  0
H  H6  1  0.89299395  0.32672435  0.57930635  1  0.046671  0  0.09768  0.094878  0  1.003715  0
H  H7  1  0.09534077  0.64359922  0.53445826  1  0.059561  0  0.097245  0.093022  0  1.011969  0
H  H8  1  0.13493575  0.41294926  0.65295299  1  0.048828  0  0.099079  0.097976  0  1.004167  0
H  H9  1  0.85760861  0.57748749  0.63206186  1  0.050835  0  0.099634  0.09641  0  1.00888  0
H  H10  1  0.45934972  0.34905563  0.70211409  1  0.071842  0  0.109286  0.088724  0  0.959947  0
H  H11  1  0.53849979  0.31031968  0.64937493  1  0.056099  0  0.099391  0.067995  0  0.991104  0
H  H12  1  0.42581176  0.20351324  0.74418502  1  0.046717  0  0.090973  0.089625  0  0.973698  0
H  H13  1  0.46159712  0.62847690  0.71924255  1  0.089595  0  0.101635  0.111965  0  1.001794  0
H  H14  1  0.50940770  0.16699130  0.69580267  1  0.013441  0  0.08205  0.071708  0  1.006626  0
H  H15  1  0.60295865  0.25128762  0.76635681  1  0.030535  0  0.082415  0.109575  0  1.016377  0
H  H16  1  0.54875615  0.17906951  0.82088297  1  0.008665  0  0.083025  0.108076  0  1.00619  0
H  H17  1  0.51897565  0.28425047  0.81607182  1  0.017919  0  0.086428  0.120078  0  1.00292  0
H  H18  1  0.73112416  0.63855045  0.43932459  1  0.059959  0  0.109274  0.089659  0  0.957999  0
H  H19  1  0.67891118  0.68021767  0.51082358  1  0.04253  0  0.09957  0.064332  0  1.001824  0
H  H20  1  0.78978160  0.77697388  0.40653345  1  0.039824  0  0.092051  0.090556  0  0.968011  0
H  H21  1  0.74015620  0.81748349  0.47969152  1  0.052325  0  0.085773  0.078487  0  1.003135  0
H  H22  1  0.81643906  0.71658486  0.56187660  1  0.031585  0  0.083547  0.108317  0  1.00982  0
H  H23  1  0.88460397  0.77613956  0.50863714  1  0.025675  0  0.084004  0.109229  0  1.008061  0
H  H24  1  0.39682603  0.72039880  0.50496337  1  0.127498  0  0.122045  0.116422  0  1.023885  0
H  H25  1  0.86555377  0.67368457  0.48910805  1  0.037001  0  0.085703  0.112015  0  1.006922  0
H  H26  1  0.42340700  0.97337251  0.67647854  1  0.03981  0  0.105737  0.074614  0  0.965731  0
H  H27  1  0.50921483  0.02363014  0.64020534  1  0.035177  0  0.09669  0.055867  0  1.009763  0
H  H28  1  0.47681815  0.84012290  0.63272679  1  0.018345  0  0.09134  0.088316  0  0.984989  0
H  H29  1  0.56283089  0.88968897  0.59718207  1  0.028569  0  0.084789  0.075274  0  1.016917  0
H  H30  1  0.60139281  0.92817197  0.71821207  1  0.014118  0  0.084737  0.108357  0  1.004692  0
H  H31  1  0.59219127  0.82041936  0.71591366  1  0.061013  0  0.0916  0.122946  0  0.993657  0
H  H32  1  0.51423500  0.87990885  0.75461238  1  0.02388  0  0.08512  0.10829  0  1.004724  0
H  H33  1  0.70339617  0.01270955  0.44317475  1  0.057554  0  0.105314  0.075216  0  0.96585  0
H  H34  1  0.65706831  0.96065315  0.51705141  1  0.051756  0  0.095565  0.054236  0  1.003808  0
H  H35  1  0.51389796  0.28474390  0.40453568  1  0.133706  0  0.124078  0.1173  0  1.015155  0
H  H36  1  0.65503787  0.14774453  0.48762823  1  0.006318  0  0.091556  0.088926  0  0.982835  0
H  H37  1  0.61292103  0.09590615  0.56288481  1  -0.007184  0  0.08526  0.076127  0  1.011154  0
H  H38  1  0.75182360  0.03895649  0.59705712  1  -0.013956  0  0.084201  0.107566  0  1.005562  0
H  H39  1  0.74995968  0.14765671  0.58869216  1  0.047178  0  0.090626  0.121277  0  0.997126  0
H  H40  1  0.79404309  0.09075825  0.52101354  1  0.022966  0  0.085314  0.108477  0  1.003729  0
H  H41  1  0.65915336  0.94877957  0.30015174  1  0.061557  0  0.106639  0.077172  0  0.95545  0
H  H42  1  0.55920247  0.96531763  0.33315263  1  0.032383  0  0.099375  0.064498  0  1.021678  0
H  H43  1  0.62233590  0.81341556  0.26022185  1  0.033436  0  0.091102  0.085005  0  0.987876  0
H  H44  1  0.52729478  0.81995835  0.30297156  1  0.050383  0  0.094402  0.093946  0  0.974246  0
H  H45  1  0.48730928  0.94342606  0.22423538  1  0.020349  0  0.087491  0.114657  0  0.998412  0
H  H46  1  0.56647218  0.59893941  0.26158803  1  0.106223  0  0.107694  0.127262  0  1.025092  0
H  H47  1  0.51140247  0.85772954  0.17473092  1  0.00934  0  0.087411  0.111766  0  1.01646  0
H  H48  1  0.58155495  0.93717156  0.17873397  1  0.018547  0  0.084738  0.107711  0  1.009636  0
H  H49  1  0.28304663  0.07597254  0.65611805  1  0.031268  0  0.104986  0.072523  0  0.960124  0
H  H50  1  0.30099043  0.07126034  0.56405140  1  0.051832  0  0.098496  0.064  0  0.997348  0
H  H51  1  0.25411454  0.22670997  0.63981487  1  0.03816  0  0.094727  0.093778  0  0.969903  0
H  H52  1  0.27490694  0.22472042  0.54899563  1  0.047462  0  0.094773  0.093763  0  0.971172  0
H  H53  1  0.15912379  0.12961688  0.53554218  1  0.003001  0  0.084847  0.108276  0  1.006735  0
H  H54  1  0.12553780  0.22238228  0.57106118  1  0.014532  0  0.088663  0.117275  0  1.001519  0
H  H55  1  0.13655815  0.13173894  0.62680109  1  0.010469  0  0.082758  0.103936  0  1.010023  0
H  H56  1  0.58011183  0.09767734  0.31654355  1  0.049033  0  0.101858  0.065341  0  1.001199  0
H  H57  1  0.62241953  0.42012941  0.70101867  1  0.107472  0  0.111656  0.128294  0  1.005989  0
H  H58  1  0.59911526  0.18456803  0.36438165  1  0.037331  0  0.102829  0.063636  0  0.98969  0
H  H59  1  0.47518142  0.17705424  0.24694854  1  0.031438  0  0.092049  0.087674  0  0.972063  0
H  H60  1  0.49210858  0.26472277  0.29369310  1  0.033761  0  0.091825  0.085646  0  1.015933  0
H  H61  1  0.63749414  0.26574179  0.25125537  1  0.027551  0  0.088954  0.116664  0  0.993866  0
H  H62  1  0.57020855  0.27415018  0.18005363  1  0.054207  0  0.08943  0.123851  0  1.018227  0
H  H63  1  0.62042074  0.17899011  0.20246287  1  0.006382  0  0.082968  0.104496  0  1.007318  0
H  H64  1  0.30859367  0.89912323  0.58712090  1  0.055497  0  0.101893  0.067352  0  0.993696  0
H  H65  1  0.34057341  0.79576669  0.57680707  1  0.058106  0  0.10413  0.064994  0  0.99495  0
H  H66  1  0.20902627  0.88939121  0.49046016  1  0.038689  0  0.094184  0.089758  0  0.967668  0
H  H67  1  0.23691383  0.78513497  0.48387494  1  0.0189  0  0.092574  0.086101  0  0.98504  0
H  H68  1  0.72108296  0.57995097  0.57919478  1  0.088094  0  0.103408  0.102405  0  1.026743  0
H  H69  1  0.19194512  0.75375628  0.61016167  1  0.025377  0  0.086507  0.114988  0  1.010802  0
H  H70  1  0.11172964  0.80016979  0.56046424  1  0.031382  0  0.087289  0.114341  0  1.004526  0
H  H71  1  0.16593824  0.85901635  0.61782080  1  -0.009715  0  0.084271  0.107072  0  1.007485  0
H  H72  1  0.45186620  0.31789012  0.10904281  1  0.037928  0  0.091158  0.126765  0  1.000507  0
H  H73  1  0.39591078  0.30599718  0.18951841  1  0.038552  0  0.091018  0.126558  0  1.007463  0
H  H74  1  0.36123716  0.37456691  0.11943766  1  0.049849  0  0.096474  0.137844  0  0.993456  0
H  H75  1  0.39293612  0.59444853  0.88106267  1  0.062542  0  0.096699  0.137898  0  0.994741  0
H  H76  1  0.48106686  0.64150390  0.90787859  1  0.040743  0  0.090117  0.126507  0  0.996649  0
H  H77  1  0.43130784  0.68023043  0.83023602  1  0.027448  0  0.090784  0.125515  0  0.999358  0
H  H78  1  0.65339314  0.65640315  0.18634039  1  0.014206  0  0.102361  0.064202  0  0.969963  0
H  H79  1  0.27793279  0.40986269  0.61020405  1  0.117551  0  0.106997  0.116501  0  1.00366  0
H  H80  1  0.56048439  0.70393754  0.15706448  1  0.04852  0  0.099374  0.061678  0  0.971815  0
H  H81  1  0.71544515  0.67437212  0.07017131  1  0.010447  0  0.095678  0.089261  0  0.964667  0
H  H82  1  0.62180960  0.70040549  0.03094354  1  0.049447  0  0.094494  0.088235  0  0.9699  0
H  H83  1  0.61361750  0.83295066  0.08752142  1  0.005367  0  0.084658  0.107355  0  1.026099  0
H  H84  1  0.70824648  0.82495629  0.04326423  1  0.043628  0  0.089008  0.116325  0  0.999625  0
H  H85  1  0.70236943  0.80799912  0.13602638  1  0.03677  0  0.085547  0.109862  0  1.006567  0
H  H86  1  0.74196764  0.35688488  0.89054023  1  0.068405  0  0.103963  0.074539  0  0.957683  0
H  H87  1  0.73214184  0.46329872  0.86698177  1  0.05488  0  0.094179  0.052077  0  1.001931  0
H  H88  1  0.76430795  0.32939178  0.76282754  1  0.049319  0  0.08787  0.080999  0  0.978951  0
H  H89  1  0.76131343  0.43586419  0.74031035  1  0.016703  0  0.085377  0.080425  0  1.007439  0
H  H90  1  0.24039915  0.64166894  0.49583690  1  0.076304  0  0.100678  0.100318  0  1.018293  0
H  H91  1  0.88145857  0.45374822  0.81801795  1  0.006842  0  0.084231  0.110303  0  1.000984  0
H  H92  1  0.90458173  0.38528486  0.75184328  1  0.033102  0  0.081396  0.109828  0  1.030283  0
H  H93  1  0.88524300  0.34659543  0.83959037  1  0.026228  0  0.082388  0.104736  0  1.006478  0
C  C94  1  0.65360294  0.46341843  0.50841487  1  1.58966  0  0.2058  0.58782  0  4.20194  0
C  C95  1  0.10404092  0.52718429  0.59423089  1  -0.012083  0  -0.013469  0.110455  0  4.058079  0
C  C96  1  0.85503348  0.38235006  0.57955813  1  -0.068929  0  -0.092853  -0.140575  0  3.981834  0
C  C97  1  0.13590567  0.59306635  0.55227838  1  -0.048313  0  -0.09355  -0.139536  0  3.987742  0
C  C98  1  0.77850383  0.38408987  0.55039829  1  -0.010627  0  -0.08665  -0.09394  0  3.996523  0
C  C99  1  0.21638980  0.59207640  0.53026903  1  -0.058608  0  -0.088663  -0.098619  0  4.009482  0
C  C100  1  0.97371452  0.45585664  0.61645218  1  -0.043731  0  -0.092276  -0.137707  0  4.006656  0
C  C101  1  0.01685731  0.52445053  0.60372615  1  -0.027261  0  -0.091811  -0.132896  0  4.006526  0
C  C102  1  0.44709823  0.75864505  0.48757258  1  0.504595  0  0.022218  -0.050601  0  3.96242  0
C  C103  1  0.49338039  0.24667882  0.44993636  1  0.449808  0  0.023821  -0.050091  0  3.960978  0
C  C104  1  0.44030143  0.84378604  0.48355871  1  0.553403  0  0.090351  0.187045  0  4.06083  0
C  C105  1  0.35120189  0.51744856  0.52082046  1  1.576785  0  0.212856  0.591103  0  4.18365  0
C  C106  1  0.48186532  0.16309647  0.44636726  1  0.570037  0  0.090757  0.190579  0  4.06218  0
C  C107  1  0.50938854  0.89143702  0.46304186  1  -0.014891  0  -0.011888  -0.125808  0  3.961406  0
C  C108  1  0.45820655  0.11508752  0.50856050  1  0.004657  0  -0.011512  -0.128239  0  3.968619  0
C  C109  1  0.49492964  0.49752779  0.35771764  1  1.574244  0  0.219149  0.602302  0  4.157291  0
C  C110  1  0.52623311  0.52737698  0.62516786  1  1.580002  0  0.212212  0.590054  0  4.174648  0
C  C111  1  0.57298347  0.84588503  0.43025054  1  0.584147  0  0.084421  0.090303  0  4.016606  0
C  C112  1  0.42813191  0.16172545  0.56460705  1  0.534639  0  0.08637  0.092869  0  4.019292  0
C  C113  1  0.57551866  0.75977605  0.43788031  1  1.10302  0  0.198067  0.268395  0  4.107548  0
C  C114  1  0.44351060  0.24597887  0.56427969  1  1.146256  0  0.20127  0.273951  0  4.099955  0
C  C115  1  0.51630578  0.97888616  0.47358145  1  0.526685  0  0.078538  0.121724  0  3.961818  0
C  C116  1  0.73202746  0.45701374  0.54628731  1  -0.021274  0  -0.020188  -0.031938  0  3.963678  0
C  C117  1  0.46581680  0.02545125  0.51546959  1  0.603172  0  0.08204  0.134756  0  3.957135  0
C  C118  1  0.45647272  0.42794703  0.24988384  1  -0.034056  0  -0.100821  -0.19604  0  3.968005  0
C  C119  1  0.49823780  0.57903375  0.74469947  1  -0.074453  0  -0.096048  -0.186185  0  3.956346  0
C  C120  1  0.46013121  0.41846277  0.17751766  1  0.042602  0  0.000177  0.166474  0  3.965759  0
C  C121  1  0.49896824  0.56790854  0.81792033  1  0.058739  0  -0.002991  0.160421  0  3.966732  0
C  C122  1  0.50758507  0.47284097  0.13516379  1  0.020828  0  -0.018594  -0.160734  0  3.949763  0
C  C123  1  0.54709228  0.50317735  0.84911535  1  0.021267  0  -0.016248  -0.159901  0  3.95572  0
C  C124  1  0.54551765  0.53861150  0.16511311  1  0.454543  0  0.08894  0.236606  0  4.067262  0
C  C125  1  0.59574917  0.45333006  0.80654104  1  0.517257  0  0.088248  0.234884  0  4.054393  0
C  C126  1  0.53859001  0.54879535  0.23703388  1  -0.015658  0  -0.108707  -0.251836  0  3.991007  0
C  C127  1  0.26690678  0.52475643  0.54942499  1  0.023803  0  -0.01866  -0.028401  0  3.966156  0
C  C128  1  0.59021238  0.46284311  0.73362654  1  -0.073851  0  -0.094819  -0.225113  0  3.98149  0
C  C129  1  0.49585740  0.49145996  0.27949683  1  -0.035955  0  -0.01295  0.018572  0  3.998443  0
C  C130  1  0.54024912  0.52470380  0.70272415  1  -0.009072  0  -0.012201  0.010794  0  4.002268  0
C  C131  1  0.53940189  0.48133613  0.92495328  1  0.951834  0  0.243466  0.275938  0  3.999679  0
C  C132  1  0.51899360  0.46497733  0.05920940  1  0.982761  0  0.244278  0.279926  0  4.006386  0
C  C133  1  0.47993579  0.29535713  0.67447630  1  0.391762  0  -0.064403  0.042959  0  3.841645  0
C  C134  1  0.48649215  0.21941188  0.72441432  1  -0.033225  0  -0.175671  -0.142852  0  4.003949  0
C  C135  1  0.54224974  0.23411390  0.78512119  1  -0.031822  0  -0.246396  -0.349015  0  3.977501  0
C  C136  1  0.70468649  0.69543168  0.45819122  1  0.416725  0  -0.065613  0.039993  0  3.852015  0
C  C137  1  0.76765144  0.76109504  0.46026849  1  -0.044632  0  -0.173304  -0.141225  0  3.989717  0
C  C138  1  0.76006181  0.52533458  0.57858648  1  -0.026354  0  -0.085312  -0.094325  0  4.001633  0
C  C139  1  0.83747931  0.73032757  0.50746757  1  -0.097196  0  -0.244375  -0.350795  0  3.983006  0
C  C140  1  0.46937093  0.97173082  0.63428641  1  0.418143  0  -0.0652  0.034142  0  3.873439  0
C  C141  1  0.51733461  0.89101791  0.63980665  1  -0.00844  0  -0.174482  -0.141186  0  3.981403  0
C  C142  1  0.55860226  0.87923327  0.71103259  1  -0.08935  0  -0.241486  -0.34682  0  3.974587  0
C  C143  1  0.65390566  0.01696680  0.48206989  1  0.402877  0  -0.064747  0.037756  0  3.873289  0
C  C144  1  0.66209601  0.09271548  0.52354108  1  0.018589  0  -0.173175  -0.138996  0  3.976004  0
C  C145  1  0.74394683  0.09242776  0.55956741  1  -0.039483  0  -0.241873  -0.347398  0  3.975628  0
C  C146  1  0.60585442  0.91810116  0.32320648  1  0.412085  0  -0.066367  0.02857  0  3.871631  0
C  C147  1  0.57370927  0.85663954  0.27463756  1  -0.037268  0  -0.17143  -0.142416  0  3.980328  0
C  C148  1  0.53661175  0.90119257  0.20948005  1  -0.040924  0  -0.243136  -0.353194  0  3.988498  0
C  C149  1  0.23707984  0.46095936  0.59466950  1  -0.073445  0  -0.083272  -0.089716  0  3.979257  0
C  C150  1  0.30316360  0.11124586  0.60830094  1  0.412635  0  -0.064734  0.033893  0  3.874075  0
C  C151  1  0.25065993  0.18828644  0.59476264  1  -0.012827  0  -0.170516  -0.140856  0  3.977359  0
C  C152  1  0.16320861  0.16677092  0.58138970  1  -0.032738  0  -0.242533  -0.349155  0  3.991038  0
C  C153  1  0.55258250  0.15413750  0.33560027  1  0.432148  0  -0.064007  0.035074  0  3.877987  0
C  C154  1  0.52153919  0.20935893  0.27432010  1  -0.041909  0  -0.171537  -0.146219  0  3.988554  0
C  C155  1  0.59117187  0.23322466  0.22417478  1  -0.064616  0  -0.241846  -0.348112  0  3.965035  0
C  C156  1  0.31378276  0.85095891  0.54942437  1  0.38568  0  -0.063502  0.034369  0  3.870617  0
C  C157  1  0.23130480  0.83407014  0.52078452  1  -0.00068  0  -0.167397  -0.134845  0  3.987246  0
C  C158  1  0.17207978  0.81044210  0.58062448  1  -0.041018  0  -0.243266  -0.353551  0  3.981911  0
C  C159  1  0.41507555  0.35041405  0.14742223  1  -0.049334  0  -0.239052  -0.417653  0  3.984333  0
C  C160  1  0.83608572  0.52357926  0.60802103  1  -0.072384  0  -0.092098  -0.139103  0  3.9839  0
C  C161  1  0.44846004  0.62408483  0.86162778  1  -0.059817  0  -0.23866  -0.411086  0  3.981236  0
C  C162  1  0.61329962  0.66649639  0.14076684  1  0.432344  0  -0.060928  0.042287  0  3.891708  0
C  C163  1  0.65769644  0.70760280  0.07813129  1  0.019567  0  -0.164955  -0.128207  0  3.983594  0
C  C164  1  0.67132507  0.79825686  0.08680598  1  -0.085048  0  -0.243115  -0.354323  0  3.986708  0
C  C165  1  0.72504405  0.40190484  0.84765228  1  0.391363  0  -0.066832  0.036451  0  3.898336  0
C  C166  1  0.77727436  0.38944670  0.78246790  1  -0.013147  0  -0.174495  -0.142247  0  3.986408  0
C  C167  1  0.86703258  0.39392468  0.79890131  1  -0.082155  0  -0.244706  -0.34631  0  3.981633  0
C  C168  1  0.15722686  0.46273477  0.61766390  1  -0.050711  0  -0.092804  -0.135869  0  3.979661  0
C  C169  1  0.88721565  0.45360501  0.60470096  1  -0.034143  0  -0.009454  0.116879  0  4.045908  0
N  N170  1  0.59547225  0.45746622  0.03339582  1  -0.556341  0  -0.162435  -0.160199  0  3.19217  0
N  N171  1  0.46396575  0.46629330  0.94996222  1  -0.541579  0  -0.164065  -0.161907  0  3.198948  0
N  N172  1  0.60589112  0.46767907  0.96461683  1  -0.555942  0  -0.1493  -0.139586  0  3.21502  0
N  N173  1  0.45338194  0.45961734  0.01903980  1  -0.57405  0  -0.159234  -0.153378  0  3.205629  0
N  N174  1  0.51467691  0.71776991  0.46838313  1  -1.245368  0  -0.326647  -0.262263  0  3.567701  0
N  N175  1  0.47783417  0.28618197  0.50861895  1  -1.248784  0  -0.32668  -0.263421  0  3.569979  0
O  O176  1  0.61966644  0.39722341  0.49508712  1  -1.169459  0  -0.334706  -0.561658  0  2.277236  0
O  O177  1  0.63843605  0.71650578  0.41053821  1  -1.076722  0  -0.196876  -0.240915  0  2.506354  0
O  O178  1  0.42373994  0.98625787  0.56994142  1  -1.066682  0  -0.195191  -0.231187  0  2.626703  0
O  O179  1  0.58088065  0.01789310  0.44093213  1  -1.065772  0  -0.195421  -0.233138  0  2.640334  0
O  O180  1  0.63371960  0.88097467  0.39008421  1  -1.066833  0  -0.194861  -0.21947  0  2.572404  0
O  O181  1  0.38683146  0.12862997  0.62186266  1  -1.063948  0  -0.194059  -0.223619  0  2.600569  0
O  O182  1  0.48957896  0.12679829  0.38458171  1  -1.058963  0  -0.185286  -0.202859  0  2.574601  0
O  O183  1  0.36787467  0.88215674  0.49414069  1  -1.060077  0  -0.182389  -0.198595  0  2.578972  0
O  O184  1  0.58614077  0.58996953  0.11860023  1  -1.078442  0  -0.182405  -0.209887  0  2.594146  0
O  O185  1  0.64006883  0.38861052  0.83722157  1  -1.088232  0  -0.205001  -0.252932  0  2.540726  0
O  O186  1  0.38664824  0.58225882  0.49802149  1  -1.178953  0  -0.319191  -0.56025  0  2.310584  0
O  O187  1  0.62617693  0.53571180  0.49293159  1  -1.186611  0  -0.315684  -0.570778  0  2.395518  0
O  O188  1  0.38027502  0.44468427  0.52169481  1  -1.163011  0  -0.316999  -0.54246  0  2.375741  0
O  O189  1  0.48350730  0.43147741  0.39517659  1  -1.173613  0  -0.316484  -0.556861  0  2.331166  0
O  O190  1  0.51715755  0.59685113  0.59197777  1  -1.160934  0  -0.325241  -0.551695  0  2.272972  0
O  O191  1  0.50699893  0.56775351  0.37985414  1  -1.154694  0  -0.31692  -0.539952  0  2.328904  0
O  O192  1  0.52346996  0.45770207  0.59959350  1  -1.175444  0  -0.306084  -0.556827  0  2.379264  0
O  O193  1  0.42033849  0.28974076  0.61956894  1  -1.082331  0  -0.192996  -0.243567  0  2.531881  0
