# generated using pymatgen
data_NdH9C8NO9
_symmetry_space_group_name_H-M   'P 1'
_cell_length_a   6.50210700
_cell_length_b   12.65067161
_cell_length_c   14.90210000
_cell_angle_alpha   107.40993010
_cell_angle_beta   97.12676477
_cell_angle_gamma   103.85149060
_symmetry_Int_Tables_number   1
_chemical_formula_structural   NdH9C8NO9
_chemical_formula_sum   'Nd4 H36 C32 N4 O36'
_cell_volume   1109.99385505
_cell_formula_units_Z   4
loop_
 _symmetry_equiv_pos_site_id
 _symmetry_equiv_pos_as_xyz
  1  'x, y, z'
loop_
 _atom_site_type_symbol
 _atom_site_label
 _atom_site_symmetry_multiplicity
 _atom_site_fract_x
 _atom_site_fract_y
 _atom_site_fract_z
 _atom_site_occupancy
 _atom_site_hle17_bader_spin_density
 _atom_site_hle17_ddec_charge
 _atom_site_hle17_ddec_spin_density
 _atom_site_hle17_ddec_sum_bond_order
 _atom_site_hle17_magmom
 _atom_site_hse06_10hf_bader_spin_density
 _atom_site_hse06_10hf_ddec_charge
 _atom_site_hse06_10hf_ddec_spin_density
 _atom_site_hse06_10hf_ddec_sum_bond_order
 _atom_site_hse06_10hf_magmom
 _atom_site_hse06_bader_spin_density
 _atom_site_hse06_ddec_charge
 _atom_site_hse06_ddec_spin_density
 _atom_site_hse06_ddec_sum_bond_order
 _atom_site_hse06_magmom
 _atom_site_pbe_bader_charge
 _atom_site_pbe_bader_spin_density
 _atom_site_pbe_cm5_charge
 _atom_site_pbe_ddec_charge
 _atom_site_pbe_ddec_spin_density
 _atom_site_pbe_ddec_sum_bond_order
 _atom_site_pbe_magmom
Nd  Nd0  1  0.14560130  0.83753460  0.30338381  1  0  2.250521  0  1.626227  0  0  2.06744  0  2.110305  0  0  2.173505  0  1.945769  0  2.241594  0  1.455058  2.035607  0  2.142769  0
Nd  Nd1  1  0.85441048  0.16247020  0.69662093  1  0  2.250437  0  1.626318  0  0  2.067349  0  2.110452  0  0  2.173448  0  1.945859  0  2.241675  0  1.455092  2.035522  0  2.142908  0
Nd  Nd2  1  0.34886270  0.66324871  0.69595452  1  0  2.268654  0  1.607793  0  0  2.09051  0  2.086397  0  0  2.193256  0  1.926407  0  2.250158  0  1.449857  2.059221  0  2.11853  0
Nd  Nd3  1  0.65112359  0.33674916  0.30404105  1  0  2.268617  0  1.607828  0  0  2.09041  0  2.086513  0  0  2.193207  0  1.926453  0  2.250117  0  1.449901  2.059157  0  2.118594  0
H  H4  1  0.88919934  0.68834394  0.06343966  1  0  0.072605  0  1.000499  0  0  0.079145  0  1.067704  0  0  0.082307  0  1.065088  0  0.119827  0  0.116205  0.076779  0  1.069961  0
H  H5  1  0.11080628  0.31164960  0.93655854  1  0  0.072578  0  1.000418  0  0  0.079053  0  1.067715  0  0  0.082209  0  1.065119  0  0.119964  0  0.116138  0.076686  0  1.069973  0
H  H6  1  0.90727556  0.68535299  0.89516476  1  0  0.129655  0  0.939438  0  0  0.135641  0  1.003776  0  0  0.140157  0  1.000545  0  0.143429  0  0.11882  0.132489  0  1.005894  0
H  H7  1  0.09272137  0.31463882  0.10483320  1  0  0.129671  0  0.939467  0  0  0.135653  0  1.003813  0  0  0.140157  0  1.000614  0  0.143516  0  0.11882  0.132513  0  1.005901  0
H  H8  1  0.33083407  0.03343056  0.02099829  1  0  0.109081  0  0.987109  0  0  0.115923  0  1.054369  0  0  0.119528  0  1.052041  0  0.107644  0  0.109914  0.113388  0  1.055942  0
H  H9  1  0.66915451  0.96656298  0.97899697  1  0  0.109115  0  0.987133  0  0  0.115996  0  1.05433  0  0  0.11961  0  1.051972  0  0.108054  0  0.109943  0.113462  0  1.055902  0
H  H10  1  0.59759838  0.81567026  0.94144749  1  0  0.070795  0  0.995416  0  0  0.077431  0  1.06303  0  0  0.080423  0  1.060534  0  0.126773  0  0.11547  0.075127  0  1.065292  0
H  H11  1  0.40241891  0.18432762  0.05855445  1  0  0.070795  0  0.995416  0  0  0.07742  0  1.063052  0  0  0.080412  0  1.060559  0  0.126547  0  0.115478  0.075116  0  1.065315  0
H  H12  1  0.57757374  0.81662999  0.10897148  1  0  0.129442  0  0.93718  0  0  0.135159  0  1.002188  0  0  0.139507  0  0.999202  0  0.131659  0  0.119741  0.132068  0  1.004289  0
H  H13  1  0.42244295  0.18336961  0.89103154  1  0  0.129402  0  0.937317  0  0  0.135201  0  1.002222  0  0  0.13955  0  0.999235  0  0.131719  0  0.11975  0.132111  0  1.004322  0
H  H14  1  0.17459255  0.46421580  0.98095783  1  0  0.10972  0  0.985687  0  0  0.117795  0  1.051024  0  0  0.121375  0  1.048764  0  0.135756  0  0.11086  0.115276  0  1.052548  0
H  H15  1  0.82538669  0.53578900  0.01904381  1  0  0.109669  0  0.985603  0  0  0.117706  0  1.050988  0  0  0.121287  0  1.048727  0  0.136204  0  0.110829  0.115186  0  1.052514  0
H  H16  1  0.74568667  0.93013280  0.31960154  1  0  0.437245  0  0.853522  0  0  0.408897  0  0.912507  0  0  0.41912  0  0.897547  0  0.642303  0  0.309073  0.401718  0  0.923174  0
H  H17  1  0.25433165  0.06987547  0.68040444  1  0  0.437182  0  0.853572  0  0  0.408844  0  0.912559  0  0  0.419073  0  0.897584  0  0.64224  0  0.309066  0.401664  0  0.923228  0
H  H18  1  0.84162491  0.98139127  0.24217374  1  0  0.451792  0  0.845362  0  0  0.418281  0  0.911859  0  0  0.430733  0  0.893742  0  0.654644  0  0.295964  0.409622  0  0.924467  0
H  H19  1  0.15838687  0.01861354  0.75782966  1  0  0.451836  0  0.845294  0  0  0.418291  0  0.911861  0  0  0.430746  0  0.893738  0  0.654682  0  0.295951  0.40963  0  0.924473  0
H  H20  1  0.92469096  0.85716504  0.46859566  1  0  0.442154  0  0.815297  0  0  0.418288  0  0.880696  0  0  0.427852  0  0.869334  0  0.634182  0  0.32015  0.411429  0  0.88909  0
H  H21  1  0.07531867  0.14284150  0.53140807  1  0  0.442125  0  0.815292  0  0  0.418231  0  0.880728  0  0  0.427793  0  0.869404  0  0.634254  0  0.320147  0.411376  0  0.88911  0
H  H22  1  0.72379873  0.80575066  0.38682878  1  0  0.435683  0  0.847116  0  0  0.410148  0  0.906484  0  0  0.420567  0  0.891325  0  0.629823  0  0.311485  0.402894  0  0.917152  0
H  H23  1  0.27621257  0.19425328  0.61317370  1  0  0.435687  0  0.846948  0  0  0.410151  0  0.906459  0  0  0.420574  0  0.891292  0  0.629714  0  0.311497  0.402897  0  0.917128  0
H  H24  1  0.30980328  0.66167831  0.36813006  1  0  0.44  0  0.80471  0  0  0.418645  0  0.863387  0  0  0.428404  0  0.852445  0  0.617517  0  0.330006  0.411543  0  0.872139  0
H  H25  1  0.69019206  0.33832476  0.63187335  1  0  0.44002  0  0.80484  0  0  0.418659  0  0.863521  0  0  0.428415  0  0.85258  0  0.617443  0  0.330036  0.411556  0  0.87227  0
H  H26  1  0.05790511  0.63001044  0.36316095  1  0  0.436403  0  0.864698  0  0  0.402648  0  0.932716  0  0  0.414067  0  0.916437  0  0.64605  0  0.30328  0.39445  0  0.944569  0
H  H27  1  0.94208867  0.36999263  0.63684036  1  0  0.436371  0  0.864753  0  0  0.402637  0  0.932732  0  0  0.414056  0  0.916454  0  0.6461  0  0.303271  0.39444  0  0.944585  0
H  H28  1  0.66417064  0.52572648  0.75868865  1  0  0.444857  0  0.855906  0  0  0.411013  0  0.923877  0  0  0.423148  0  0.906087  0  0.652357  0  0.293279  0.402558  0  0.936288  0
H  H29  1  0.33583115  0.47427139  0.24131044  1  0  0.444844  0  0.855933  0  0  0.410995  0  0.92391  0  0  0.423131  0  0.906118  0  0.652341  0  0.29329  0.402537  0  0.936328  0
H  H30  1  0.75773454  0.57941894  0.68131707  1  0  0.43524  0  0.862578  0  0  0.405096  0  0.925314  0  0  0.416141  0  0.90907  0  0.646804  0  0.301884  0.397295  0  0.936939  0
H  H31  1  0.24225391  0.42057720  0.31868018  1  0  0.435227  0  0.862585  0  0  0.405077  0  0.92533  0  0  0.416122  0  0.909087  0  0.646821  0  0.301884  0.397274  0  0.936962  0
H  H32  1  0.62646831  0.63043227  0.54309583  1  0  0.441774  0  0.831269  0  0  0.413108  0  0.900368  0  0  0.423579  0  0.884838  0  0.638306  0  0.3121  0.405679  0  0.911483  0
H  H33  1  0.37352255  0.36955694  0.45689845  1  0  0.441798  0  0.83143  0  0  0.413109  0  0.900386  0  0  0.423578  0  0.884863  0  0.638419  0  0.312131  0.405678  0  0.911503  0
H  H34  1  0.79193096  0.73471104  0.62385007  1  0  0.453527  0  0.795299  0  0  0.432601  0  0.8523  0  0  0.441622  0  0.842208  0  0.649924  0  0.33215  0.426281  0  0.859606  0
H  H35  1  0.20805667  0.26528077  0.37614201  1  0  0.453567  0  0.795293  0  0  0.432567  0  0.852411  0  0  0.44159  0  0.842264  0  0.649806  0  0.332147  0.426247  0  0.859717  0
H  H36  1  0.41280502  0.85939374  0.62623222  1  0  0.425249  0  0.872748  0  0  0.395462  0  0.935093  0  0  0.406215  0  0.919436  0  0.633901  0  0.297585  0.387691  0  0.946564  0
H  H37  1  0.58719092  0.14060759  0.37376676  1  0  0.425317  0  0.872667  0  0  0.395512  0  0.935031  0  0  0.406266  0  0.919374  0  0.633926  0  0.29761  0.387741  0  0.946504  0
H  H38  1  0.26860281  0.76070277  0.52925417  1  0  0.432114  0  0.85907  0  0  0.406615  0  0.913322  0  0  0.416214  0  0.899599  0  0.63791  0  0.298918  0.39989  0  0.923092  0
H  H39  1  0.73139420  0.23929770  0.47074398  1  0  0.432167  0  0.858994  0  0  0.406666  0  0.913249  0  0  0.416265  0  0.899525  0  0.637975  0  0.298963  0.39994  0  0.923019  0
C  C40  1  0.98871227  0.76186693  0.04997321  1  0  0.135612  0  3.723271  0  0  0.107002  0  3.983194  0  0  0.111588  0  4.00292  0  0.478473  0  0.053034  0.103634  0  3.972374  0
C  C41  1  0.01128204  0.23812575  0.95002415  1  0  0.135572  0  3.723494  0  0  0.107027  0  3.983353  0  0  0.111613  0  4.003074  0  0.478261  0  0.053056  0.103657  0  3.972533  0
C  C42  1  0.99706229  0.76162959  0.95693985  1  0  -0.102977  0  3.659447  0  0  -0.125771  0  3.909881  0  0  -0.129174  0  3.927462  0  -0.021276  0  -0.067013  -0.123311  0  3.897644  0
C  C43  1  0.00293344  0.23836568  0.04305825  1  0  -0.103134  0  3.659477  0  0  -0.125877  0  3.909911  0  0  -0.12928  0  3.927478  0  -0.021007  0  -0.06707  -0.123414  0  3.897679  0
C  C44  1  0.12450591  0.86039246  0.94558077  1  0  -0.00543  0  3.699553  0  0  0.012807  0  3.935079  0  0  0.010897  0  3.952741  0  -0.077335  0  0.009399  0.014131  0  3.922623  0
C  C45  1  0.87548315  0.13960195  0.05441541  1  0  -0.005321  0  3.699617  0  0  0.012801  0  3.935315  0  0  0.010894  0  3.952974  0  -0.077914  0  0.009393  0.014123  0  3.92286  0
C  C46  1  0.23271135  0.95541686  0.02827113  1  0  -0.106723  0  3.673992  0  0  -0.141109  0  3.924853  0  0  -0.144133  0  3.943621  0  0.00552  0  -0.06718  -0.138851  0  3.911688  0
C  C47  1  0.76727912  0.04458015  0.97172779  1  0  -0.106869  0  3.674048  0  0  -0.141219  0  3.92498  0  0  -0.144241  0  3.943749  0  0.005168  0  -0.06719  -0.138962  0  3.911816  0
C  C48  1  0.21945333  0.94767919  0.11852866  1  0  0.105583  0  3.752622  0  0  0.10967  0  3.998706  0  0  0.110255  0  4.018465  0  0.50498  0  0.11782  0.109059  0  3.987018  0
C  C49  1  0.78054193  0.05231522  0.88146785  1  0  0.105722  0  3.752327  0  0  0.109686  0  3.998534  0  0  0.110271  0  4.018293  0  0.504943  0  0.117854  0.109074  0  3.986848  0
C  C50  1  0.15054392  0.86714440  0.84788726  1  0  0.687154  0  3.890316  0  0  0.635209  0  4.191499  0  0  0.669427  0  4.18297  0  1.638211  0  0.224946  0.612091  0  4.197573  0
C  C51  1  0.84945129  0.13286127  0.15211412  1  0  0.687199  0  3.89024  0  0  0.63523  0  4.191554  0  0  0.669448  0  4.183023  0  1.638234  0  0.224849  0.612113  0  4.197631  0
C  C52  1  0.33626725  0.04640867  0.21006607  1  0  0.681267  0  3.863912  0  0  0.631499  0  4.155423  0  0  0.666626  0  4.148462  0  1.584239  0  0.239416  0.60765  0  4.162401  0
C  C53  1  0.66373502  0.95359007  0.78993058  1  0  0.681121  0  3.863818  0  0  0.631489  0  4.155189  0  0  0.666612  0  4.148229  0  1.584261  0  0.239478  0.607641  0  4.162163  0
C  C54  1  0.50238822  0.74027543  0.95392923  1  0  0.136352  0  3.724266  0  0  0.108749  0  3.984637  0  0  0.113048  0  4.004329  0  0.458183  0  0.055193  0.105604  0  3.973662  0
C  C55  1  0.49762166  0.25972590  0.04607252  1  0  0.136369  0  3.724431  0  0  0.108723  0  3.984886  0  0  0.113024  0  4.004573  0  0.458341  0  0.055167  0.105576  0  3.973913  0
C  C56  1  0.49228133  0.73978517  0.04683501  1  0  -0.099659  0  3.654777  0  0  -0.123628  0  3.905973  0  0  -0.126631  0  3.923788  0  -0.000478  0  -0.064936  -0.121459  0  3.893575  0
C  C57  1  0.50772917  0.26021444  0.95316835  1  0  -0.09959  0  3.654865  0  0  -0.123606  0  3.906053  0  0  -0.126607  0  3.923862  0  -0.00054  0  -0.064821  -0.121443  0  3.893669  0
C  C58  1  0.36992189  0.63920417  0.05740328  1  0  -0.009969  0  3.69833  0  0  0.00922  0  3.932924  0  0  0.006646  0  3.951149  0  -0.036742  0  0.006642  0.010998  0  3.920076  0
C  C59  1  0.63008072  0.36079803  0.94259963  1  0  -0.009921  0  3.698297  0  0  0.009269  0  3.932874  0  0  0.006695  0  3.951096  0  -0.036752  0  0.006624  0.011047  0  3.920024  0
C  C60  1  0.26920038  0.54346084  0.97427445  1  0  -0.105491  0  3.673237  0  0  -0.141278  0  3.923285  0  0  -0.144079  0  3.942467  0  -0.024166  0  -0.069181  -0.13916  0  3.909828  0
C  C61  1  0.73079138  0.45654137  0.02572788  1  0  -0.10535  0  3.673105  0  0  -0.141127  0  3.923096  0  0  -0.143927  0  3.942271  0  -0.02471  0  -0.069115  -0.139009  0  3.909639  0
C  C62  1  0.28539042  0.55185854  0.88441979  1  0  0.106461  0  3.748465  0  0  0.11182  0  3.994729  0  0  0.111944  0  4.014413  0  0.50666  0  0.118808  0.11152  0  3.982935  0
C  C63  1  0.71460182  0.44814453  0.11558211  1  0  0.106252  0  3.74849  0  0  0.111738  0  3.994607  0  0  0.111867  0  4.014276  0  0.506589  0  0.118741  0.11144  0  3.982813  0
C  C64  1  0.34110340  0.62986839  0.15411752  1  0  0.687628  0  3.889461  0  0  0.63691  0  4.187956  0  0  0.671192  0  4.179415  0  1.622047  0  0.225069  0.613784  0  4.194049  0
C  C65  1  0.65890158  0.37013815  0.84588797  1  0  0.687508  0  3.889694  0  0  0.636771  0  4.188217  0  0  0.671053  0  4.179679  0  1.62204  0  0.224963  0.613645  0  4.194305  0
C  C66  1  0.17463379  0.45188733  0.79310632  1  0  0.680869  0  3.856933  0  0  0.629163  0  4.150938  0  0  0.664373  0  4.143582  0  1.590163  0  0.240222  0.605293  0  4.158021  0
C  C67  1  0.82535952  0.54811487  0.20689676  1  0  0.68104  0  3.856791  0  0  0.629202  0  4.150955  0  0  0.66442  0  4.143583  0  1.59026  0  0.24022  0.605332  0  4.158041  0
C  C68  1  0.41054963  0.02512381  0.51954768  1  0  0.562085  0  3.919382  0  0  0.516026  0  4.216326  0  0  0.54524  0  4.213537  0  1.587422  0  0.226096  0.496026  0  4.221355  0
C  C69  1  0.58947111  0.97487753  0.48045533  1  0  0.562484  0  3.919012  0  0  0.516312  0  4.216069  0  0  0.545551  0  4.213239  0  1.609781  0  0.226216  0.496312  0  4.221102  0
C  C70  1  0.09071097  0.47876605  0.47804542  1  0  0.557287  0  3.927338  0  0  0.511327  0  4.22301  0  0  0.54051  0  4.220326  0  1.617099  0  0.222427  0.491313  0  4.227962  0
C  C71  1  0.90925213  0.52122057  0.52193260  1  0  0.557604  0  3.927171  0  0  0.511589  0  4.22293  0  0  0.540772  0  4.220253  0  1.592074  0  0.222576  0.491575  0  4.227883  0
N  N72  1  0.10161270  0.85065650  0.12936831  1  0  -0.415411  0  3.250703  0  0  -0.364161  0  3.512846  0  0  -0.382704  0  3.53226  0  -1.229281  0  -0.37926  -0.356223  0  3.50139  0
N  N73  1  0.89838768  0.14933878  0.87063072  1  0  -0.415258  0  3.250791  0  0  -0.363985  0  3.512964  0  0  -0.382528  0  3.532378  0  -1.229087  0  -0.379203  -0.356046  0  3.501506  0
N  N74  1  0.39776743  0.65033903  0.87395329  1  0  -0.40803  0  3.232894  0  0  -0.359742  0  3.495468  0  0  -0.376957  0  3.514092  0  -1.244478  0  -0.364044  -0.352379  0  3.484397  0
N  N75  1  0.60222959  0.34966144  0.12604822  1  0  -0.40809  0  3.233077  0  0  -0.359804  0  3.495615  0  0  -0.377026  0  3.514232  0  -1.244415  0  -0.364125  -0.352446  0  3.484547  0
O  O76  1  0.12774519  0.77202732  0.78102389  1  0  -0.736004  0  2.023489  0  0  -0.683646  0  2.283949  0  0  -0.715958  0  2.269267  0  -1.207132  0  -0.401848  -0.666205  0  2.291484  0
O  O77  1  0.87224454  0.22797401  0.21897005  1  0  -0.736038  0  2.023713  0  0  -0.683663  0  2.284249  0  0  -0.715977  0  2.269564  0  -1.207216  0  -0.40175  -0.666229  0  2.291783  0
O  O78  1  0.19500816  0.96726026  0.84205272  1  0  -0.612793  0  1.948216  0  0  -0.555877  0  2.166515  0  0  -0.581095  0  2.157684  0  -1.177889  0  -0.301404  -0.537763  0  2.171542  0
O  O79  1  0.80498981  0.03274194  0.15795129  1  0  -0.612756  0  1.94789  0  0  -0.555849  0  2.166214  0  0  -0.581068  0  2.157387  0  -1.177687  0  -0.301393  -0.537737  0  2.171238  0
O  O80  1  0.40232596  0.14677832  0.20515425  1  0  -0.69898  0  2.01747  0  0  -0.642275  0  2.266712  0  0  -0.675292  0  2.254154  0  -1.192096  0  -0.378652  -0.624681  0  2.272984  0
O  O81  1  0.59767536  0.85321868  0.79484257  1  0  -0.698939  0  2.017332  0  0  -0.64229  0  2.266525  0  0  -0.675299  0  2.253973  0  -1.192078  0  -0.378695  -0.62469  0  2.272796  0
O  O82  1  0.35933452  0.02194317  0.28719830  1  0  -0.704837  0  2.029695  0  0  -0.645368  0  2.266529  0  0  -0.678122  0  2.254829  0  -1.183907  0  -0.357933  -0.627598  0  2.273198  0
O  O83  1  0.64066512  0.97805644  0.71279843  1  0  -0.704767  0  2.029623  0  0  -0.645345  0  2.266412  0  0  -0.67812  0  2.254757  0  -1.184013  0  -0.357984  -0.627572  0  2.273072  0
O  O84  1  0.36556475  0.72360043  0.22310868  1  0  -0.750895  0  2.040194  0  0  -0.698492  0  2.301371  0  0  -0.731218  0  2.286549  0  -1.219077  0  -0.405293  -0.681001  0  2.309032  0
O  O85  1  0.63443894  0.27640091  0.77689474  1  0  -0.750769  0  2.040068  0  0  -0.698352  0  2.301255  0  0  -0.731079  0  2.286422  0  -1.218913  0  -0.405233  -0.680861  0  2.308917  0
O  O86  1  0.29257858  0.52897296  0.15826127  1  0  -0.615413  0  1.949651  0  0  -0.559617  0  2.170926  0  0  -0.584524  0  2.161791  0  -1.180131  0  -0.303583  -0.541798  0  2.176177  0
O  O87  1  0.70743489  0.47102925  0.84174358  1  0  -0.615395  0  1.949855  0  0  -0.559589  0  2.171133  0  0  -0.584502  0  2.161998  0  -1.180195  0  -0.303517  -0.541771  0  2.176383  0
O  O88  1  0.10817461  0.35174636  0.79833907  1  0  -0.696227  0  2.026831  0  0  -0.639764  0  2.277243  0  0  -0.67299  0  2.265255  0  -1.198537  0  -0.375032  -0.622169  0  2.283273  0
O  O89  1  0.89182275  0.64825758  0.20166199  1  0  -0.696364  0  2.026776  0  0  -0.639843  0  2.277158  0  0  -0.67307  0  2.265175  0  -1.198555  0  -0.375048  -0.622248  0  2.283191  0
O  O90  1  0.15356859  0.47537058  0.71539612  1  0  -0.703072  0  2.06691  0  0  -0.643118  0  2.306113  0  0  -0.675506  0  2.294545  0  -1.179858  0  -0.352626  -0.625309  0  2.312863  0
O  O91  1  0.84642662  0.52463508  0.28460459  1  0  -0.703071  0  2.066973  0  0  -0.643067  0  2.306237  0  0  -0.675459  0  2.294664  0  -1.179899  0  -0.352586  -0.625262  0  2.312989  0
O  O92  1  0.22424795  0.98781666  0.46640543  1  0  -0.645315  0  2.073594  0  0  -0.594938  0  2.318443  0  0  -0.623895  0  2.306204  0  -1.174963  0  -0.350774  -0.579448  0  2.325294  0
O  O93  1  0.77578304  0.01218641  0.53360461  1  0  -0.645624  0  2.073305  0  0  -0.595244  0  2.318263  0  0  -0.624213  0  2.306007  0  -1.174807  0  -0.35096  -0.579752  0  2.325117  0
O  O94  1  0.46705635  0.10142640  0.60341374  1  0  -0.674403  0  2.130688  0  0  -0.609993  0  2.361156  0  0  -0.640687  0  2.35092  0  -1.193583  0  -0.347491  -0.592825  0  2.366843  0
O  O95  1  0.53297675  0.89858620  0.39659145  1  0  -0.674549  0  2.130699  0  0  -0.610056  0  2.361155  0  0  -0.640738  0  2.350901  0  -1.194036  0  -0.34747  -0.592891  0  2.366843  0
O  O96  1  0.27699076  0.51226591  0.53153528  1  0  -0.642238  0  2.051432  0  0  -0.588708  0  2.291441  0  0  -0.617572  0  2.27929  0  -1.185063  0  -0.348011  -0.572892  0  2.298258  0
O  O97  1  0.72301258  0.48773197  0.46846322  1  0  -0.64197  0  2.052318  0  0  -0.588458  0  2.292415  0  0  -0.617318  0  2.280267  0  -1.184983  0  -0.347886  -0.572655  0  2.299232  0
O  O98  1  0.03744107  0.41230423  0.39097108  1  0  -0.66622  0  2.154823  0  0  -0.603714  0  2.391918  0  0  -0.634217  0  2.382262  0  -1.187484  0  -0.35411  -0.58661  0  2.397266  0
O  O99  1  0.96254996  0.58770230  0.60902962  1  0  -0.666645  0  2.153896  0  0  -0.60416  0  2.391033  0  0  -0.634664  0  2.381364  0  -1.18721  0  -0.354292  -0.587048  0  2.396384  0
O  O100  1  0.86364123  0.93412593  0.28452169  1  0  -0.938085  0  1.831286  0  0  -0.887688  0  2.029477  0  0  -0.914147  0  1.98951  0  -1.295653  0  -0.653862  -0.874719  0  2.053485  0
O  O101  1  0.13637352  0.06588147  0.71548320  1  0  -0.93803  0  1.831277  0  0  -0.88763  0  2.029429  0  0  -0.914092  0  1.989458  0  -1.295615  0  -0.653835  -0.874673  0  2.053463  0
O  O102  1  0.86562483  0.79474053  0.40629005  1  0  -0.850603  0  1.810184  0  0  -0.801332  0  1.99382  0  0  -0.824716  0  1.961291  0  -1.236987  0  -0.615473  -0.789165  0  2.013466  0
O  O103  1  0.13438337  0.20526341  0.59371294  1  0  -0.850592  0  1.809939  0  0  -0.801273  0  1.993743  0  0  -0.824661  0  1.961245  0  -1.23701  0  -0.615509  -0.789108  0  2.013382  0
O  O104  1  0.19913219  0.69319286  0.39538065  1  0  -0.869853  0  1.857187  0  0  -0.814394  0  2.042654  0  0  -0.839575  0  2.010579  0  -1.249184  0  -0.589546  -0.800746  0  2.063142  0
O  O105  1  0.80086611  0.30681280  0.60462090  1  0  -0.869864  0  1.857326  0  0  -0.81439  0  2.042755  0  0  -0.839572  0  2.010685  0  -1.249157  0  -0.589568  -0.800743  0  2.063239  0
O  O106  1  0.63352769  0.56696487  0.71282093  1  0  -0.945781  0  1.84058  0  0  -0.897448  0  2.043689  0  0  -0.92329  0  2.003231  0  -1.304696  0  -0.657088  -0.884516  0  2.068291  0
O  O107  1  0.36646554  0.43302867  0.28717323  1  0  -0.945746  0  1.840677  0  0  -0.897381  0  2.043769  0  0  -0.923246  0  2.003349  0  -1.304761  0  -0.65707  -0.884454  0  2.068374  0
O  O108  1  0.63837123  0.70473570  0.59259571  1  0  -0.87113  0  1.817863  0  0  -0.821167  0  2.005679  0  0  -0.843922  0  1.973076  0  -1.260132  0  -0.607752  -0.809185  0  2.025615  0
O  O109  1  0.36161593  0.29525524  0.40739680  1  0  -0.871161  0  1.817955  0  0  -0.82112  0  2.005877  0  0  -0.843881  0  1.973222  0  -1.260132  0  -0.607757  -0.80914  0  2.025816  0
O  O110  1  0.27734166  0.79414546  0.59910777  1  0  -0.881329  0  1.821412  0  0  -0.835995  0  1.993631  0  0  -0.859062  0  1.957753  0  -1.272067  0  -0.628869  -0.824067  0  2.015601  0
O  O111  1  0.72265488  0.20585415  0.40089080  1  0  -0.881421  0  1.82127  0  0  -0.836063  0  1.993541  0  0  -0.859137  0  1.957659  0  -1.272138  0  -0.62891  -0.82414  0  2.015513  0
