# generated using pymatgen
data_ZnAg2H8C8N6O11
_symmetry_space_group_name_H-M   'P 1'
_cell_length_a   6.20545473
_cell_length_b   8.62011908
_cell_length_c   14.63225907
_cell_angle_alpha   73.39348196
_cell_angle_beta   88.79028352
_cell_angle_gamma   89.39991379
_symmetry_Int_Tables_number   1
_chemical_formula_structural   ZnAg2H8C8N6O11
_chemical_formula_sum   'Zn2 Ag4 H16 C16 N12 O22'
_cell_volume   749.88346269
_cell_formula_units_Z   2
loop_
 _symmetry_equiv_pos_site_id
 _symmetry_equiv_pos_as_xyz
  1  'x, y, z'
loop_
 _atom_site_type_symbol
 _atom_site_label
 _atom_site_symmetry_multiplicity
 _atom_site_fract_x
 _atom_site_fract_y
 _atom_site_fract_z
 _atom_site_occupancy
 _atom_site_hle17_bader_spin_density
 _atom_site_hle17_ddec_charge
 _atom_site_hle17_ddec_spin_density
 _atom_site_hle17_ddec_sum_bond_order
 _atom_site_hle17_magmom
 _atom_site_hse06_10hf_bader_spin_density
 _atom_site_hse06_10hf_ddec_charge
 _atom_site_hse06_10hf_ddec_spin_density
 _atom_site_hse06_10hf_ddec_sum_bond_order
 _atom_site_hse06_10hf_magmom
 _atom_site_hse06_bader_spin_density
 _atom_site_hse06_ddec_charge
 _atom_site_hse06_ddec_spin_density
 _atom_site_hse06_ddec_sum_bond_order
 _atom_site_hse06_magmom
 _atom_site_pbe_bader_spin_density
 _atom_site_pbe_cm5_charge
 _atom_site_pbe_ddec_charge
 _atom_site_pbe_ddec_spin_density
 _atom_site_pbe_ddec_sum_bond_order
 _atom_site_pbe_magmom
Zn  Zn0  1  0.46668768  0.56536086  0.85800901  1  0  1.089058  0  1.78828  0  0  0.910296  0  2.242922  0  0  0.952154  0  2.190847  0  0  0.703337  0.880936  0  2.278747  0
Zn  Zn1  1  0.53331149  0.43463883  0.14199057  1  0  1.089042  0  1.788296  0  0  0.910272  0  2.242929  0  0  0.952131  0  2.190855  0  0  0.70333  0.880914  0  2.278754  0
Ag  Ag2  1  0.28660866  0.00264105  0.23656193  1  0  0.555712  0  1.332353  0  0  0.40806  0  1.749438  0  0  0.437931  0  1.704226  0  0  0.482452  0.387322  0  1.780835  0
Ag  Ag3  1  0.71339369  0.99736107  0.76343790  1  0  0.555719  0  1.332366  0  0  0.408064  0  1.74945  0  0  0.437941  0  1.704227  0  0  0.482464  0.387328  0  1.780846  0
Ag  Ag4  1  0.38117545  0.43190294  0.60838360  1  0  0.565265  0  1.316134  0  0  0.410131  0  1.754274  0  0  0.440697  0  1.707549  0  0  0.479275  0.388852  0  1.786999  0
Ag  Ag5  1  0.61882691  0.56809918  0.39161691  1  0  0.565253  0  1.316137  0  0  0.410105  0  1.754271  0  0  0.440674  0  1.707545  0  0  0.479276  0.388843  0  1.786966  0
H  H6  1  0.83664499  0.51225407  0.76261917  1  0  0.43011  0  0.871908  0  0  0.399455  0  0.932856  0  0  0.4113  0  0.916055  0  0  0.292496  0.391151  0  0.944602  0
H  H7  1  0.16335578  0.48774683  0.23738224  1  0  0.430145  0  0.871873  0  0  0.39952  0  0.932761  0  0  0.411365  0  0.915962  0  0  0.292542  0.391214  0  0.94451  0
H  H8  1  0.31948526  0.79825815  0.71321165  1  0  0.434029  0  0.864262  0  0  0.401251  0  0.929757  0  0  0.412882  0  0.912959  0  0  0.294427  0.393045  0  0.941589  0
H  H9  1  0.68051714  0.20174155  0.28678926  1  0  0.434036  0  0.864249  0  0  0.401261  0  0.929747  0  0  0.412891  0  0.91295  0  0  0.294418  0.393058  0  0.941575  0
H  H10  1  0.01067602  0.58306241  0.87126568  1  0  0.436697  0  0.857235  0  0  0.406123  0  0.918557  0  0  0.417045  0  0.902683  0  0  0.290287  0.398384  0  0.929792  0
H  H11  1  0.98932313  0.41693849  0.12873438  1  0  0.436697  0  0.857236  0  0  0.40612  0  0.918563  0  0  0.417042  0  0.902687  0  0  0.290283  0.398381  0  0.929798  0
H  H12  1  0.80727562  0.37439123  0.86256565  1  0  0.429058  0  0.871779  0  0  0.396427  0  0.937139  0  0  0.407687  0  0.920947  0  0  0.292465  0.388503  0  0.948515  0
H  H13  1  0.19272517  0.62560845  0.13743528  1  0  0.429069  0  0.871764  0  0  0.39642  0  0.937157  0  0  0.407681  0  0.920963  0  0  0.292454  0.388496  0  0.948534  0
H  H14  1  0.54825254  0.73725983  0.67669410  1  0  0.436071  0  0.864866  0  0  0.401425  0  0.933625  0  0  0.413505  0  0.915927  0  0  0.292323  0.392827  0  0.946233  0
H  H15  1  0.45174825  0.26273986  0.32330683  1  0  0.436059  0  0.864881  0  0  0.401416  0  0.933636  0  0  0.413496  0  0.915937  0  0  0.29232  0.392816  0  0.946245  0
H  H16  1  0.12651647  0.71868523  0.91262047  1  0  0.434455  0  0.861515  0  0  0.400107  0  0.929452  0  0  0.411607  0  0.912585  0  0  0.292674  0.391953  0  0.941414  0
H  H17  1  0.87348268  0.28131566  0.08738028  1  0  0.434471  0  0.861493  0  0  0.400124  0  0.929428  0  0  0.411623  0  0.912563  0  0  0.292685  0.391969  0  0.941392  0
H  H18  1  0.21385966  0.02570704  0.85784870  1  0  0.394707  0  0.900153  0  0  0.36035  0  0.981851  0  0  0.373737  0  0.969139  0  0  0.298951  0.351033  0  0.990577  0
H  H19  1  0.78613953  0.97429144  0.14215108  1  0  0.394669  0  0.900198  0  0  0.360294  0  0.981931  0  0  0.373682  0  0.969212  0  0  0.298908  0.350976  0  0.990656  0
H  H20  1  0.69200730  0.87104213  0.50336153  1  0  0.393222  0  0.91161  0  0  0.358582  0  0.994882  0  0  0.371514  0  0.981594  0  0  0.29502  0.349601  0  1.003345  0
H  H21  1  0.30799348  0.12895756  0.49663872  1  0  0.393282  0  0.911535  0  0  0.358601  0  0.994856  0  0  0.371533  0  0.981569  0  0  0.295032  0.349619  0  1.003321  0
C  C22  1  0.28785651  0.09159877  0.01382235  1  0  -0.015079  0  3.760932  0  0  -0.023345  0  4.018222  0  0  -0.02471  0  4.03709  0  0  0.090033  -0.022685  0  4.005818  0
C  C23  1  0.71214103  0.90840212  0.98617704  1  0  -0.015137  0  3.760998  0  0  -0.023372  0  4.018278  0  0  -0.024747  0  4.03716  0  0  0.089984  -0.022713  0  4.005875  0
C  C24  1  0.33046767  0.22167522  0.93324822  1  0  -0.030583  0  3.776588  0  0  -0.033425  0  4.025127  0  0  -0.038204  0  4.044246  0  0  0.089864  -0.030472  0  4.012612  0
C  C25  1  0.66953148  0.77832568  0.06675047  1  0  -0.03054  0  3.776669  0  0  -0.033445  0  4.025304  0  0  -0.038222  0  4.044427  0  0  0.08991  -0.030489  0  4.012779  0
C  C26  1  0.21069878  0.92579851  0.02104156  1  0  0.639113  0  3.941957  0  0  0.578046  0  4.2535  0  0  0.611187  0  4.246818  0  0  0.211377  0.555661  0  4.25735  0
C  C27  1  0.78930202  0.07419997  0.97895889  1  0  0.639117  0  3.941956  0  0  0.578067  0  4.253473  0  0  0.611212  0  4.246792  0  0  0.211404  0.555683  0  4.257324  0
C  C28  1  0.31385738  0.24792760  0.83001510  1  0  0.664284  0  3.828178  0  0  0.607733  0  4.122222  0  0  0.643848  0  4.11146  0  0  0.237524  0.583134  0  4.129146  0
C  C29  1  0.68614348  0.75206727  0.16998389  1  0  0.664416  0  3.828259  0  0  0.607828  0  4.122372  0  0  0.643946  0  4.111606  0  0  0.237568  0.583234  0  4.129288  0
C  C30  1  0.03811939  0.71254383  0.50700239  1  0  -0.014831  0  3.754259  0  0  -0.020863  0  4.011942  0  0  -0.023308  0  4.032258  0  0  0.088675  -0.019446  0  3.998595  0
C  C31  1  0.96188138  0.28745707  0.49299834  1  0  -0.014846  0  3.754152  0  0  -0.020888  0  4.011859  0  0  -0.023333  0  4.032173  0  0  0.088671  -0.019471  0  3.998515  0
C  C32  1  0.02919100  0.84250549  0.42330791  1  0  -0.049337  0  3.761406  0  0  -0.05337  0  4.01601  0  0  -0.057897  0  4.036405  0  0  0.081511  -0.050679  0  4.002697  0
C  C33  1  0.97080821  0.15749177  0.57669275  1  0  -0.049305  0  3.761334  0  0  -0.053413  0  4.016005  0  0  -0.057935  0  4.036393  0  0  0.081474  -0.050719  0  4.002691  0
C  C34  1  0.87199067  0.97600969  0.38996707  1  0  0.640164  0  3.864375  0  0  0.58552  0  4.16742  0  0  0.61917  0  4.159621  0  0  0.228648  0.562694  0  4.172259  0
C  C35  1  0.12800852  0.02398879  0.61003271  1  0  0.640115  0  3.864387  0  0  0.585474  0  4.16742  0  0  0.619126  0  4.15962  0  0  0.228654  0.562646  0  4.172258  0
C  C36  1  0.88888322  0.65835163  0.59091252  1  0  0.645992  0  3.925405  0  0  0.586647  0  4.236198  0  0  0.620207  0  4.228802  0  0  0.215619  0.56387  0  4.24061  0
C  C37  1  0.11111596  0.34164804  0.40908910  1  0  0.646016  0  3.925372  0  0  0.586691  0  4.236144  0  0  0.620251  0  4.228748  0  0  0.215601  0.563914  0  4.240559  0
N  N38  1  0.40811577  0.34281503  0.96431584  1  0  -0.221156  0  3.216755  0  0  -0.1732  0  3.499174  0  0  -0.182657  0  3.513762  0  0  -0.20947  -0.166592  0  3.489402  0
N  N39  1  0.59188338  0.65718587  0.03568286  1  0  -0.221076  0  3.216789  0  0  -0.173087  0  3.499208  0  0  -0.182543  0  3.513797  0  0  -0.209432  -0.166481  0  3.489434  0
N  N40  1  0.21138549  0.83446799  0.37163780  1  0  -0.175726  0  3.264365  0  0  -0.115513  0  3.564931  0  0  -0.12606  0  3.57851  0  0  -0.234368  -0.108118  0  3.555606  0
N  N41  1  0.78861527  0.16553292  0.62836224  1  0  -0.17577  0  3.264445  0  0  -0.11551  0  3.564989  0  0  -0.126059  0  3.578567  0  0  -0.234378  -0.108115  0  3.555663  0
N  N42  1  0.32678773  0.70772939  0.41991974  1  0  -0.064206  0  3.171394  0  0  -0.019552  0  3.474529  0  0  -0.024508  0  3.487929  0  0  -0.122041  -0.016067  0  3.465244  0
N  N43  1  0.67321303  0.29227151  0.58008098  1  0  -0.064204  0  3.171427  0  0  -0.019576  0  3.474558  0  0  -0.024532  0  3.48796  0  0  -0.122035  -0.01609  0  3.465274  0
N  N44  1  0.22519901  0.63342208  0.50222600  1  0  -0.223246  0  3.263743  0  0  -0.162233  0  3.558853  0  0  -0.174996  0  3.574834  0  0  -0.239741  -0.153377  0  3.547968  0
N  N45  1  0.77480014  0.36657881  0.49777475  1  0  -0.223199  0  3.263669  0  0  -0.162159  0  3.558751  0  0  -0.174923  0  3.574734  0  0  -0.239706  -0.153303  0  3.547868  0
N  N46  1  0.41023715  0.29332490  0.05861316  1  0  -0.065455  0  3.153369  0  0  -0.018964  0  3.441127  0  0  -0.023986  0  3.454475  0  0  -0.098843  -0.015581  0  3.432141  0
N  N47  1  0.58976037  0.70667720  0.94138603  1  0  -0.065501  0  3.153378  0  0  -0.019033  0  3.44116  0  0  -0.024054  0  3.454506  0  0  -0.098854  -0.01565  0  3.432174  0
N  N48  1  0.33775784  0.14160786  0.09043835  1  0  -0.187074  0  3.239063  0  0  -0.132899  0  3.541154  0  0  -0.143465  0  3.553338  0  0  -0.237805  -0.125558  0  3.532911  0
N  N49  1  0.66223970  0.85839303  0.90956104  1  0  -0.187058  0  3.239065  0  0  -0.132883  0  3.541157  0  0  -0.143447  0  3.553343  0  0  -0.23781  -0.125543  0  3.532915  0
O  O50  1  0.79264939  0.49417569  0.83227970  1  0  -0.841146  0  1.931927  0  0  -0.767627  0  2.129847  0  0  -0.792141  0  2.094946  0  0  -0.559255  -0.750279  0  2.153903  0
O  O51  1  0.20735137  0.50582520  0.16772171  1  0  -0.841189  0  1.931865  0  0  -0.767675  0  2.129793  0  0  -0.79219  0  2.094894  0  0  -0.559282  -0.750327  0  2.153855  0
O  O52  1  0.36299642  0.38448702  0.77565296  1  0  -0.561643  0  2.109644  0  0  -0.48099  0  2.375436  0  0  -0.507715  0  2.359226  0  0  -0.279228  -0.462678  0  2.386398  0
O  O53  1  0.63700601  0.61551027  0.22434630  1  0  -0.561704  0  2.109661  0  0  -0.481024  0  2.375446  0  0  -0.507753  0  2.359238  0  0  -0.279258  -0.462717  0  2.386407  0
O  O54  1  0.25234745  0.12948304  0.79815332  1  0  -0.5262  0  2.1283  0  0  -0.482157  0  2.377547  0  0  -0.504443  0  2.360536  0  0  -0.305123  -0.466886  0  2.389018  0
O  O55  1  0.74765339  0.87051304  0.20184548  1  0  -0.526272  0  2.128477  0  0  -0.482179  0  2.377722  0  0  -0.504466  0  2.360712  0  0  -0.30512  -0.466909  0  2.389191  0
O  O56  1  0.17230244  0.89800693  0.94081843  1  0  -0.613878  0  2.082573  0  0  -0.545475  0  2.306186  0  0  -0.573305  0  2.299069  0  0  -0.296282  -0.526125  0  2.310686  0
O  O57  1  0.82769512  0.10199275  0.05918185  1  0  -0.613878  0  2.082577  0  0  -0.545473  0  2.306177  0  0  -0.573301  0  2.299057  0  0  -0.296305  -0.526125  0  2.31068  0
O  O58  1  0.18825870  0.82616161  0.10181021  1  0  -0.600289  0  2.027243  0  0  -0.55003  0  2.273414  0  0  -0.574336  0  2.263393  0  0  -0.300912  -0.533152  0  2.279934  0
O  O59  1  0.81174206  0.17383929  0.89818983  1  0  -0.600283  0  2.027237  0  0  -0.550034  0  2.273389  0  0  -0.574342  0  2.263368  0  0  -0.300905  -0.533154  0  2.279908  0
O  O60  1  0.90762943  0.08906091  0.31635192  1  0  -0.557691  0  1.993209  0  0  -0.497125  0  2.218091  0  0  -0.52059  0  2.206744  0  0  -0.282824  -0.480974  0  2.225635  0
O  O61  1  0.09236976  0.91093755  0.68364923  1  0  -0.557581  0  1.993135  0  0  -0.497066  0  2.218024  0  0  -0.520541  0  2.206684  0  0  -0.282809  -0.480912  0  2.225566  0
O  O62  1  0.69499879  0.97277393  0.44131735  1  0  -0.52772  0  2.096832  0  0  -0.475258  0  2.321499  0  0  -0.498646  0  2.309364  0  0  -0.319728  -0.459085  0  2.329049  0
O  O63  1  0.30500040  0.02722455  0.55868311  1  0  -0.527888  0  2.09697  0  0  -0.475262  0  2.321494  0  0  -0.498652  0  2.309358  0  0  -0.319747  -0.459089  0  2.329044  0
O  O64  1  0.70824440  0.73615879  0.58588987  1  0  -0.633606  0  2.079881  0  0  -0.568653  0  2.317211  0  0  -0.595382  0  2.304839  0  0  -0.304665  -0.550011  0  2.325195  0
O  O65  1  0.29175478  0.26384089  0.41411039  1  0  -0.633627  0  2.079862  0  0  -0.568683  0  2.317207  0  0  -0.595413  0  2.304835  0  0  -0.304658  -0.550039  0  2.32519  0
O  O66  1  0.94532530  0.54173596  0.65942068  1  0  -0.572756  0  1.983661  0  0  -0.518243  0  2.211165  0  0  -0.542678  0  2.201597  0  0  -0.296022  -0.501294  0  2.217422  0
O  O67  1  0.05467871  0.45826375  0.34058021  1  0  -0.572762  0  1.983654  0  0  -0.518269  0  2.211129  0  0  -0.542702  0  2.201561  0  0  -0.296023  -0.501321  0  2.217389  0
O  O68  1  0.46216122  0.74559901  0.73393278  1  0  -0.853891  0  1.984154  0  0  -0.779821  0  2.225601  0  0  -0.803052  0  2.183674  0  0  -0.577936  -0.763328  0  2.254708  0
O  O69  1  0.53783795  0.25440068  0.26606748  1  0  -0.85388  0  1.984143  0  0  -0.779814  0  2.225557  0  0  -0.803046  0  2.183632  0  0  -0.577923  -0.763321  0  2.254663  0
O  O70  1  0.14752346  0.61900642  0.89284458  1  0  -0.852413  0  1.897241  0  0  -0.791409  0  2.108234  0  0  -0.81239  0  2.072608  0  0  -0.59272  -0.776587  0  2.133012  0
O  O71  1  0.85247730  0.38099449  0.10715477  1  0  -0.852418  0  1.897222  0  0  -0.791415  0  2.108216  0  0  -0.812396  0  2.072592  0  0  -0.59273  -0.776592  0  2.132996  0
