# generated using pymatgen
data_CsH5C7SN4
_symmetry_space_group_name_H-M   'P 1'
_cell_length_a   6.72989055
_cell_length_b   7.22545042
_cell_length_c   21.53560702
_cell_angle_alpha   90.00219617
_cell_angle_beta   89.99842195
_cell_angle_gamma   109.37770779
_symmetry_Int_Tables_number   1
_chemical_formula_structural   CsH5C7SN4
_chemical_formula_sum   'Cs4 H20 C28 S4 N16'
_cell_volume   987.87896110
_cell_formula_units_Z   4
loop_
 _symmetry_equiv_pos_site_id
 _symmetry_equiv_pos_as_xyz
  1  'x, y, z'
loop_
 _atom_site_type_symbol
 _atom_site_label
 _atom_site_symmetry_multiplicity
 _atom_site_fract_x
 _atom_site_fract_y
 _atom_site_fract_z
 _atom_site_occupancy
 _atom_site_hle17_bader_spin_density
 _atom_site_hle17_ddec_charge
 _atom_site_hle17_ddec_spin_density
 _atom_site_hle17_ddec_sum_bond_order
 _atom_site_hle17_magmom
 _atom_site_hse06_10hf_bader_spin_density
 _atom_site_hse06_10hf_ddec_charge
 _atom_site_hse06_10hf_ddec_spin_density
 _atom_site_hse06_10hf_ddec_sum_bond_order
 _atom_site_hse06_10hf_magmom
 _atom_site_hse06_bader_spin_density
 _atom_site_hse06_ddec_charge
 _atom_site_hse06_ddec_spin_density
 _atom_site_hse06_ddec_sum_bond_order
 _atom_site_hse06_magmom
 _atom_site_pbe_bader_spin_density
 _atom_site_pbe_cm5_charge
 _atom_site_pbe_ddec_charge
 _atom_site_pbe_ddec_spin_density
 _atom_site_pbe_ddec_sum_bond_order
 _atom_site_pbe_magmom
Cs  Cs0  1  0.21926518  0.40741516  0.55062776  1  0  0.817398  0  0.688208  0  0  0.72889  0  0.969143  0  0  0.743305  0  0.95033  0  0  0.79954  0.718553  0  0.982389  0
Cs  Cs1  1  0.78071635  0.09258353  0.05063152  1  0  0.817415  0  0.688236  0  0  0.728911  0  0.969144  0  0  0.743326  0  0.950331  0  0  0.799557  0.718574  0  0.98239  0
Cs  Cs2  1  0.78069302  0.59255073  0.44937239  1  0  0.817459  0  0.688147  0  0  0.728983  0  0.96905  0  0  0.743396  0  0.950234  0  0  0.799549  0.718648  0  0.982296  0
Cs  Cs3  1  0.21928460  0.90742612  0.94937095  1  0  0.817393  0  0.688253  0  0  0.72889  0  0.969177  0  0  0.743307  0  0.950361  0  0  0.799567  0.718554  0  0.982422  0
H  H4  1  0.62142076  0.09591957  0.72614168  1  0  0.109116  0  0.93789  0  0  0.12141  0  0.995812  0  0  0.124277  0  0.994394  0  0  0.108313  0.119342  0  0.996916  0
H  H5  1  0.37855036  0.40408986  0.22613441  1  0  0.109147  0  0.938166  0  0  0.121461  0  0.99604  0  0  0.12433  0  0.994621  0  0  0.108366  0.11939  0  0.99715  0
H  H6  1  0.37857923  0.90410776  0.27385104  1  0  0.109066  0  0.938057  0  0  0.121393  0  0.995925  0  0  0.124262  0  0.994506  0  0  0.108323  0.119324  0  0.997031  0
H  H7  1  0.62148479  0.59592388  0.77386063  1  0  0.109117  0  0.938231  0  0  0.121471  0  0.996098  0  0  0.124337  0  0.994678  0  0  0.108357  0.119403  0  0.997205  0
H  H8  1  0.36632254  0.05723811  0.81237668  1  0  0.073912  0  0.975345  0  0  0.081546  0  1.045578  0  0  0.084185  0  1.044262  0  0  0.094335  0.079567  0  1.046719  0
H  H9  1  0.63366534  0.44277770  0.31236959  1  0  0.073882  0  0.975313  0  0  0.081486  0  1.045562  0  0  0.084127  0  1.044243  0  0  0.094222  0.079507  0  1.046707  0
H  H10  1  0.63371821  0.94281533  0.18762764  1  0  0.073822  0  0.975577  0  0  0.081413  0  1.045835  0  0  0.084055  0  1.044521  0  0  0.094218  0.079435  0  1.04697  0
H  H11  1  0.36642297  0.55724732  0.68761617  1  0  0.073743  0  0.975647  0  0  0.081396  0  1.045878  0  0  0.084047  0  1.044555  0  0  0.094261  0.079414  0  1.047018  0
H  H12  1  0.97807346  0.91729725  0.79175777  1  0  0.082168  0  0.992725  0  0  0.087609  0  1.066032  0  0  0.090656  0  1.064848  0  0  0.088754  0.085392  0  1.066923  0
H  H13  1  0.02189523  0.58271463  0.29174114  1  0  0.082014  0  0.992944  0  0  0.0876  0  1.066126  0  0  0.090656  0  1.064931  0  0  0.088819  0.085383  0  1.067015  0
H  H14  1  0.02194968  0.08272839  0.20826234  1  0  0.082179  0  0.992756  0  0  0.087652  0  1.066022  0  0  0.090703  0  1.064835  0  0  0.088819  0.085434  0  1.066909  0
H  H15  1  0.97818673  0.41732958  0.70823115  1  0  0.08198  0  0.992894  0  0  0.08747  0  1.066169  0  0  0.090521  0  1.06498  0  0  0.088764  0.085258  0  1.067055  0
H  H16  1  0.85129825  0.81482858  0.68413410  1  0  0.095309  0  0.938568  0  0  0.109649  0  0.990392  0  0  0.111962  0  0.990054  0  0  0.102997  0.107939  0  0.990818  0
H  H17  1  0.14868122  0.68517295  0.18412639  1  0  0.095339  0  0.938607  0  0  0.109597  0  0.990519  0  0  0.111907  0  0.990182  0  0  0.102909  0.107871  0  0.990965  0
H  H18  1  0.14868645  0.18514885  0.31589159  1  0  0.095273  0  0.938395  0  0  0.109609  0  0.990255  0  0  0.111922  0  0.989909  0  0  0.102911  0.107894  0  0.990686  0
H  H19  1  0.85133537  0.31483066  0.81584822  1  0  0.095473  0  0.938558  0  0  0.109873  0  0.990293  0  0  0.112206  0  0.989928  0  0  0.103081  0.108103  0  0.990794  0
H  H20  1  0.10906072  0.85986302  0.59756663  1  0  0.10803  0  0.952133  0  0  0.114622  0  1.020593  0  0  0.118117  0  1.018271  0  0  0.115814  0.112056  0  1.022371  0
H  H21  1  0.89093184  0.64013605  0.09755456  1  0  0.108051  0  0.951972  0  0  0.114662  0  1.020449  0  0  0.118157  0  1.018127  0  0  0.115766  0.112095  0  1.022228  0
H  H22  1  0.89088445  0.14007945  0.40245163  1  0  0.10821  0  0.952007  0  0  0.114714  0  1.02057  0  0  0.118206  0  1.018253  0  0  0.115787  0.112148  0  1.022348  0
H  H23  1  0.10906054  0.35985012  0.90242701  1  0  0.107925  0  0.952002  0  0  0.114544  0  1.020497  0  0  0.118039  0  1.018173  0  0  0.115771  0.111976  0  1.022274  0
C  C24  1  0.37854319  0.98104079  0.65748322  1  0  0.156178  0  3.805784  0  0  0.148803  0  4.056258  0  0  0.152529  0  4.078789  0  0  0.091572  0.146191  0  4.041136  0
C  C25  1  0.62144347  0.51896674  0.15747624  1  0  0.156119  0  3.805557  0  0  0.148873  0  4.055891  0  0  0.152602  0  4.078418  0  0  0.091695  0.146265  0  4.040761  0
C  C26  1  0.62142417  0.01891766  0.34252389  1  0  0.155766  0  3.806239  0  0  0.14875  0  4.056239  0  0  0.152476  0  4.078768  0  0  0.091611  0.146139  0  4.041114  0
C  C27  1  0.37857766  0.48105744  0.84251833  1  0  0.155855  0  3.805428  0  0  0.148588  0  4.055789  0  0  0.152288  0  4.078357  0  0  0.09151  0.145975  0  4.040674  0
C  C28  1  0.45243905  0.03682684  0.71753903  1  0  -0.125212  0  3.723858  0  0  -0.147194  0  3.973676  0  0  -0.149218  0  3.992984  0  0  -0.081152  -0.145785  0  3.960742  0
C  C29  1  0.54752951  0.46317550  0.21753485  1  0  -0.125298  0  3.723694  0  0  -0.147353  0  3.973485  0  0  -0.149377  0  3.99279  0  0  -0.081268  -0.145945  0  3.960551  0
C  C30  1  0.54755031  0.96319176  0.28246484  1  0  -0.124929  0  3.723918  0  0  -0.147019  0  3.973619  0  0  -0.149046  0  3.992933  0  0  -0.081087  -0.145609  0  3.960682  0
C  C31  1  0.45250954  0.53683674  0.78246158  1  0  -0.125233  0  3.723691  0  0  -0.147345  0  3.973552  0  0  -0.149357  0  3.992867  0  0  -0.081273  -0.145938  0  3.960619  0
C  C32  1  0.30745783  0.01379067  0.76558563  1  0  -0.051058  0  3.773123  0  0  -0.059517  0  4.013645  0  0  -0.062043  0  4.037034  0  0  -0.085112  -0.057819  0  3.997998  0
C  C33  1  0.69252636  0.48620919  0.26557795  1  0  -0.050889  0  3.772784  0  0  -0.059292  0  4.013318  0  0  -0.06182  0  4.036708  0  0  -0.084976  -0.057597  0  3.997674  0
C  C34  1  0.69255348  0.98623508  0.23441870  1  0  -0.050966  0  3.77275  0  0  -0.059421  0  4.013357  0  0  -0.061952  0  4.03675  0  0  -0.085045  -0.057722  0  3.997711  0
C  C35  1  0.30753652  0.51380724  0.73440827  1  0  -0.050616  0  3.773164  0  0  -0.059097  0  4.013624  0  0  -0.061635  0  4.03702  0  0  -0.084891  -0.057395  0  3.997976  0
C  C36  1  0.09123396  0.93490984  0.75393773  1  0  -0.071333  0  3.759371  0  0  -0.082588  0  4.000225  0  0  -0.084462  0  4.022179  0  0  -0.086586  -0.081236  0  3.985441  0
C  C37  1  0.90873457  0.56509637  0.25392366  1  0  -0.071181  0  3.759561  0  0  -0.082592  0  4.000398  0  0  -0.084473  0  4.022355  0  0  -0.086558  -0.081235  0  3.985606  0
C  C38  1  0.90877180  0.06512922  0.24608146  1  0  -0.071403  0  3.759625  0  0  -0.082695  0  4.000485  0  0  -0.084572  0  4.022441  0  0  -0.086548  -0.081338  0  3.985697  0
C  C39  1  0.09132816  0.43493183  0.74605420  1  0  -0.071003  0  3.759746  0  0  -0.082282  0  4.000561  0  0  -0.084162  0  4.022538  0  0  -0.086429  -0.080925  0  3.985745  0
C  C40  1  0.01949588  0.87876576  0.69363386  1  0  -0.053551  0  3.759468  0  0  -0.06321  0  4.002215  0  0  -0.065418  0  4.02404  0  0  -0.086037  -0.061721  0  3.987496  0
C  C41  1  0.98048526  0.62122137  0.19361704  1  0  -0.053621  0  3.759259  0  0  -0.063212  0  4.002043  0  0  -0.065419  0  4.023872  0  0  -0.086015  -0.061712  0  3.987325  0
C  C42  1  0.98048358  0.12120141  0.30638626  1  0  -0.053311  0  3.75929  0  0  -0.062962  0  4.002019  0  0  -0.065167  0  4.023846  0  0  -0.08594  -0.061471  0  3.987297  0
C  C43  1  0.01954612  0.37879829  0.80635942  1  0  -0.054061  0  3.759556  0  0  -0.063793  0  4.002367  0  0  -0.066018  0  4.02419  0  0  -0.086305  -0.062258  0  3.987652  0
C  C44  1  0.16271346  0.90213916  0.64491995  1  0  -0.15347  0  3.741093  0  0  -0.172957  0  3.990539  0  0  -0.17595  0  4.011271  0  0  -0.085622  -0.170857  0  3.976593  0
C  C45  1  0.83725656  0.59784556  0.14490579  1  0  -0.153434  0  3.740829  0  0  -0.173006  0  3.990232  0  0  -0.176002  0  4.010963  0  0  -0.085572  -0.170905  0  3.976283  0
C  C46  1  0.83725470  0.09782959  0.35509877  1  0  -0.153797  0  3.740835  0  0  -0.173328  0  3.990179  0  0  -0.176324  0  4.01091  0  0  -0.085749  -0.171229  0  3.976238  0
C  C47  1  0.16274912  0.40215668  0.85507579  1  0  -0.153137  0  3.740928  0  0  -0.172723  0  3.99037  0  0  -0.175708  0  4.011117  0  0  -0.085536  -0.17062  0  3.976401  0
C  C48  1  0.67116784  0.16724944  0.58391225  1  0  0.295523  0  3.882423  0  0  0.262823  0  4.179342  0  0  0.281526  0  4.190325  0  0  0.189155  0.250301  0  4.17156  0
C  C49  1  0.32879506  0.33275801  0.08390981  1  0  0.295489  0  3.882731  0  0  0.262821  0  4.179607  0  0  0.281527  0  4.190586  0  0  0.189212  0.250299  0  4.171823  0
C  C50  1  0.32878391  0.83269884  0.41609115  1  0  0.295843  0  3.881635  0  0  0.263139  0  4.1786  0  0  0.281846  0  4.189575  0  0  0.189219  0.250618  0  4.170818  0
C  C51  1  0.67118580  0.66727392  0.91610055  1  0  0.295502  0  3.882703  0  0  0.262806  0  4.1796  0  0  0.281514  0  4.190575  0  0  0.189115  0.25028  0  4.171827  0
S  S52  1  0.71629309  0.40278930  0.60676967  1  0  -0.608367  0  1.906304  0  0  -0.59059  0  2.229271  0  0  -0.607116  0  2.224267  0  0  -0.344249  -0.578431  0  2.232312  0
S  S53  1  0.28372467  0.09721791  0.10675856  1  0  -0.608393  0  1.906458  0  0  -0.590574  0  2.229337  0  0  -0.607098  0  2.224328  0  0  -0.344304  -0.578412  0  2.232374  0
S  S54  1  0.28367294  0.59715738  0.39322862  1  0  -0.60852  0  1.905887  0  0  -0.590793  0  2.228944  0  0  -0.607312  0  2.223919  0  0  -0.344386  -0.57863  0  2.231981  0
S  S55  1  0.71630320  0.90280032  0.89323556  1  0  -0.608334  0  1.906385  0  0  -0.590543  0  2.229355  0  0  -0.607068  0  2.22435  0  0  -0.344271  -0.578378  0  2.232388  0
N  N56  1  0.52601578  0.00103931  0.60837511  1  0  -0.057995  0  3.528101  0  0  0.025299  0  3.748189  0  0  0.011685  0  3.771001  0  0  -0.123714  0.034162  0  3.732951  0
N  N57  1  0.47394554  0.49896213  0.10837384  1  0  -0.057878  0  3.528055  0  0  0.025365  0  3.74809  0  0  0.011744  0  3.770905  0  0  -0.123769  0.034226  0  3.732858  0
N  N58  1  0.47393517  0.99891488  0.39162644  1  0  -0.057842  0  3.527948  0  0  0.025293  0  3.748032  0  0  0.011685  0  3.770815  0  0  -0.123639  0.034149  0  3.732812  0
N  N59  1  0.52603911  0.50106387  0.89163467  1  0  -0.057974  0  3.52814  0  0  0.025306  0  3.748188  0  0  0.011694  0  3.771005  0  0  -0.123684  0.034169  0  3.732951  0
N  N60  1  0.53802722  0.84055698  0.57746017  1  0  -0.159784  0  2.950596  0  0  -0.153847  0  3.241962  0  0  -0.152868  0  3.251702  0  0  -0.173672  -0.154372  0  3.23541  0
N  N61  1  0.46193044  0.65944395  0.07746109  1  0  -0.160013  0  2.95042  0  0  -0.154055  0  3.241778  0  0  -0.153074  0  3.251518  0  0  -0.173684  -0.154579  0  3.235225  0
N  N62  1  0.46191336  0.15939730  0.42253998  1  0  -0.159945  0  2.950864  0  0  -0.153958  0  3.242218  0  0  -0.152977  0  3.251957  0  0  -0.173778  -0.154482  0  3.235665  0
N  N63  1  0.53806202  0.34057903  0.92254556  1  0  -0.159834  0  2.950738  0  0  -0.153889  0  3.242105  0  0  -0.152909  0  3.251845  0  0  -0.173682  -0.154412  0  3.235548  0
N  N64  1  0.68458856  0.90623522  0.53591879  1  0  -0.079747  0  3.094998  0  0  -0.063987  0  3.404438  0  0  -0.060863  0  3.413204  0  0  -0.180317  -0.065581  0  3.398234  0
N  N65  1  0.31537065  0.59376346  0.03592006  1  0  -0.07953  0  3.09473  0  0  -0.063778  0  3.404171  0  0  -0.060653  0  3.412938  0  0  -0.180292  -0.065371  0  3.397963  0
N  N66  1  0.31535794  0.09371901  0.46408322  1  0  -0.079538  0  3.095014  0  0  -0.06377  0  3.404406  0  0  -0.060649  0  3.413177  0  0  -0.180139  -0.065363  0  3.398198  0
N  N67  1  0.68462100  0.40626541  0.96408705  1  0  -0.07965  0  3.095114  0  0  -0.063906  0  3.404558  0  0  -0.060781  0  3.413325  0  0  -0.180222  -0.065499  0  3.39835  0
N  N68  1  0.76967715  0.10349289  0.53777959  1  0  -0.377112  0  2.992985  0  0  -0.346749  0  3.288468  0  0  -0.360296  0  3.298979  0  0  -0.344005  -0.33769  0  3.281278  0
N  N69  1  0.23028468  0.39651080  0.03777993  1  0  -0.377216  0  2.993046  0  0  -0.346876  0  3.288544  0  0  -0.360424  0  3.299052  0  0  -0.344133  -0.337816  0  3.281353  0
N  N70  1  0.23026666  0.89645400  0.46222335  1  0  -0.377372  0  2.993029  0  0  -0.347024  0  3.288534  0  0  -0.360574  0  3.299039  0  0  -0.344137  -0.337966  0  3.281346  0
N  N71  1  0.76970857  0.60352248  0.96222765  1  0  -0.377146  0  2.993299  0  0  -0.346791  0  3.288775  0  0  -0.360339  0  3.299282  0  0  -0.344114  -0.337732  0  3.281587  0
