# generated using pymatgen
data_AlH6C10O5F
_symmetry_space_group_name_H-M   'P 1'
_cell_length_a   6.65395091
_cell_length_b   14.48917679
_cell_length_c   15.71783264
_cell_angle_alpha   89.99859360
_cell_angle_beta   90.49099217
_cell_angle_gamma   90.14700343
_symmetry_Int_Tables_number   1
_chemical_formula_structural   AlH6C10O5F
_chemical_formula_sum   'Al4 H24 C40 O20 F4'
_cell_volume   1515.29987875
_cell_formula_units_Z   4
loop_
 _symmetry_equiv_pos_site_id
 _symmetry_equiv_pos_as_xyz
  1  'x, y, z'
loop_
 _atom_site_type_symbol
 _atom_site_label
 _atom_site_symmetry_multiplicity
 _atom_site_fract_x
 _atom_site_fract_y
 _atom_site_fract_z
 _atom_site_occupancy
 _atom_site_pbe_bader_charge
 _atom_site_pbe_bader_spin_density
 _atom_site_pbe_cm5_charge
 _atom_site_pbe_ddec_charge
 _atom_site_pbe_ddec_spin_density
 _atom_site_pbe_ddec_sum_bond_order
 _atom_site_pbe_magmom
Al  Al0  1  0.01164042  0.99879249  0.50196039  1  2.504137  0  0.400773  1.643946  0  2.579655  0
Al  Al1  1  0.51122653  0.00190063  0.50055167  1  2.502361  0  0.398501  1.650154  0  2.572263  0
Al  Al2  1  0.99708482  0.49937460  0.99886237  1  2.502235  0  0.397356  1.636436  0  2.58789  0
Al  Al3  1  0.49636524  0.50125128  0.99759479  1  2.500816  0  0.396992  1.638883  0  2.58661  0
H  H4  1  0.26612854  0.87819047  0.49115287  1  0.627917  0  0.357396  0.441933  0  0.837799  0
H  H5  1  0.76720242  0.11956189  0.47731320  1  0.639972  0  0.356367  0.440254  0  0.842272  0
H  H6  1  0.24456208  0.61401334  0.03584086  1  0.631603  0  0.348213  0.423072  0  0.872449  0
H  H7  1  0.74186750  0.38382559  0.02778518  1  0.620999  0  0.349184  0.424288  0  0.869843  0
H  H8  1  0.47026548  0.64082993  0.76212125  1  0.103961  0  0.119664  0.146813  0  0.977269  0
H  H9  1  0.09888098  0.80755917  0.91178596  1  0.046459  0  0.09137  0.093027  0  0.996696  0
H  H10  1  0.23467375  0.73110465  0.84481643  1  0.080526  0  0.097888  0.114142  0  1.005048  0
H  H11  1  0.22952744  0.85231911  0.72820494  1  0.096895  0  0.098239  0.118623  0  1.006295  0
H  H12  1  0.09535746  0.92738317  0.79718985  1  0.063171  0  0.093921  0.098417  0  0.999818  0
H  H13  1  0.97599690  0.36203108  0.23955276  1  0.105703  0  0.117592  0.14567  0  0.981216  0
H  H14  1  0.58154907  0.18794372  0.08488688  1  0.06542  0  0.095711  0.102384  0  0.984192  0
H  H15  1  0.72621340  0.26354358  0.15132058  1  0.067925  0  0.094374  0.104266  0  1.009534  0
H  H16  1  0.72619882  0.14442696  0.26779786  1  0.076797  0  0.097985  0.115409  0  1.001082  0
H  H17  1  0.58007053  0.06936870  0.20180046  1  0.054285  0  0.098493  0.107734  0  0.977617  0
H  H18  1  0.52620386  0.37312503  0.75605797  1  0.124084  0  0.118368  0.145816  0  0.98207  0
H  H19  1  0.92321975  0.19168488  0.90587821  1  0.030594  0  0.092429  0.096854  0  0.988254  0
H  H20  1  0.77733269  0.26615367  0.83956215  1  0.063399  0  0.097239  0.113246  0  0.998481  0
H  H21  1  0.78831143  0.14715817  0.72150489  1  0.073128  0  0.101061  0.122871  0  0.99176  0
H  H22  1  0.93205491  0.07330027  0.78911109  1  0.039652  0  0.094232  0.100367  0  1.001066  0
H  H23  1  0.47418655  0.63123227  0.24489991  1  0.123578  0  0.116867  0.144072  0  0.982889  0
H  H24  1  0.22478054  0.73233414  0.15690971  1  0.076177  0  0.094327  0.103878  0  1.008464  0
H  H25  1  0.07892070  0.80813634  0.09144305  1  0.047358  0  0.094054  0.098568  0  0.9938  0
H  H26  1  0.07849899  0.92547338  0.20943960  1  0.060968  0  0.097954  0.107267  0  0.978047  0
H  H27  1  0.22515464  0.85008990  0.27456670  1  0.101761  0  0.099055  0.117539  0  0.998523  0
C  C28  1  0.76253685  0.88295596  0.39139322  1  1.595051  0  0.26839  0.664017  0  4.108156  0
C  C29  1  0.75343838  0.89179454  0.61675621  1  1.595319  0  0.270379  0.666775  0  4.105561  0
C  C30  1  0.25730378  0.11615508  0.61057392  1  1.607513  0  0.270654  0.66546  0  4.100643  0
C  C31  1  0.26385917  0.11056984  0.38518460  1  1.593771  0  0.267966  0.662781  0  4.107581  0
C  C32  1  0.74279455  0.61017786  0.11502688  1  1.581887  0  0.26734  0.647136  0  4.100588  0
C  C33  1  0.75506447  0.61265241  0.88685550  1  1.591919  0  0.272803  0.651652  0  4.097716  0
C  C34  1  0.25186712  0.39329202  0.88258536  1  1.572062  0  0.271593  0.646645  0  4.100684  0
C  C35  1  0.24278777  0.38524346  0.11035290  1  1.577799  0  0.26798  0.646874  0  4.100641  0
C  C36  1  0.75589981  0.68299222  0.81813050  1  0.001271  0  -0.006013  -0.050519  0  3.997807  0
C  C37  1  0.75424411  0.82082489  0.68519666  1  -0.002037  0  -0.014918  -0.191802  0  3.968669  0
C  C38  1  0.91235377  0.74612487  0.80869248  1  0.00785  0  -0.010057  0.038541  0  3.899486  0
C  C39  1  0.59910282  0.75521184  0.69509328  1  0.465106  0  0.107153  0.27062  0  4.045931  0
C  C40  1  0.91006344  0.81291388  0.74476333  1  -0.010745  0  0.000313  0.083273  0  3.894443  0
C  C41  1  0.59604342  0.68902150  0.75920917  1  0.029368  0  -0.093553  -0.24067  0  3.993155  0
C  C42  1  0.10933581  0.78010530  0.84672003  1  -0.070508  0  -0.151557  -0.1916  0  3.865621  0
C  C43  1  0.10692829  0.85594806  0.77422895  1  -0.045424  0  -0.148613  -0.194682  0  3.847066  0
C  C44  1  0.25172758  0.31626076  0.18024620  1  -0.008247  0  -0.008536  -0.054304  0  3.993085  0
C  C45  1  0.25818487  0.18087683  0.31610151  1  0.056942  0  -0.014363  -0.190029  0  3.953489  0
C  C46  1  0.40599653  0.25189584  0.18887900  1  -0.000449  0  -0.009845  0.042788  0  3.89242  0
C  C47  1  0.10518511  0.24777060  0.30683608  1  0.404809  0  0.107847  0.273655  0  4.035505  0
C  C48  1  0.40717729  0.18656931  0.25416381  1  -0.055982  0  0.000718  0.082989  0  3.891141  0
C  C49  1  0.09931497  0.31274376  0.24176277  1  0.090158  0  -0.095749  -0.24012  0  3.994229  0
C  C50  1  0.59791304  0.21563634  0.14972226  1  -0.078243  0  -0.151926  -0.196502  0  3.878506  0
C  C51  1  0.59844002  0.14109825  0.22331245  1  -0.006948  0  -0.149284  -0.196288  0  3.855949  0
C  C52  1  0.24904988  0.32450504  0.81264386  1  -0.003853  0  -0.00638  -0.05511  0  3.996453  0
C  C53  1  0.25726194  0.18777287  0.67830499  1  -0.010827  0  -0.014022  -0.193782  0  3.95845  0
C  C54  1  0.09882455  0.25796074  0.80335333  1  -0.068074  0  -0.008976  0.042631  0  3.894467  0
C  C55  1  0.40632807  0.25677694  0.68821688  1  0.448492  0  0.10819  0.273592  0  4.042219  0
C  C56  1  0.10440081  0.19215119  0.73860043  1  0.03833  0  0.002247  0.087336  0  3.891535  0
C  C57  1  0.40511774  0.32247174  0.75270551  1  0.045405  0  -0.093632  -0.237495  0  3.991543  0
C  C58  1  0.90707259  0.21950283  0.84107300  1  0.007924  0  -0.151201  -0.193483  0  3.874057  0
C  C59  1  0.91306304  0.14494783  0.76754924  1  -0.013827  0  -0.149245  -0.199118  0  3.854724  0
C  C60  1  0.75034255  0.67796203  0.18597215  1  -0.017083  0  -0.008592  -0.054389  0  3.995954  0
C  C61  1  0.75727182  0.81205628  0.32283801  1  0.031403  0  -0.014234  -0.190342  0  3.955946  0
C  C62  1  0.90481450  0.74249077  0.19517126  1  0.034071  0  -0.010366  0.0406  0  3.897859  0
C  C63  1  0.60415706  0.74496228  0.31315978  1  0.408771  0  0.107814  0.274164  0  4.038615  0
C  C64  1  0.90626049  0.80721951  0.26090924  1  -0.009029  0  0.001017  0.085188  0  3.893216  0
C  C65  1  0.59788550  0.68059995  0.24748926  1  0.02914  0  -0.095299  -0.239156  0  3.994401  0
C  C66  1  0.09615194  0.77976759  0.15600087  1  -0.035247  0  -0.151813  -0.194604  0  3.8772  0
C  C67  1  0.09713236  0.85355231  0.23024303  1  -0.088989  0  -0.148865  -0.196148  0  3.85307  0
O  O68  1  0.93514541  0.91581362  0.41004576  1  -1.258132  0  -0.231599  -0.580616  0  2.308478  0
O  O69  1  0.58615035  0.92823940  0.59713033  1  -1.243213  0  -0.231392  -0.585288  0  2.344463  0
O  O70  1  0.42299732  0.09734276  0.57490690  1  -1.247878  0  -0.232638  -0.593349  0  2.361648  0
O  O71  1  0.09835181  0.08956288  0.42006887  1  -1.247853  0  -0.234023  -0.600326  0  2.372918  0
O  O72  1  0.08784925  0.07899257  0.59397903  1  -1.253192  0  -0.227312  -0.572034  0  2.315268  0
O  O73  1  0.43612906  0.07732413  0.40329207  1  -1.246321  0  -0.231083  -0.579212  0  2.303786  0
O  O74  1  0.59630424  0.90523266  0.42477964  1  -1.247374  0  -0.23501  -0.601129  0  2.370801  0
O  O75  1  0.92295935  0.90985681  0.58354117  1  -1.253881  0  -0.227677  -0.578408  0  2.313489  0
O  O76  1  0.26221640  0.94405029  0.50165214  1  -1.426022  0  -0.44838  -1.002914  0  2.208727  0
O  O77  1  0.76303897  0.05649194  0.49778897  1  -1.440031  0  -0.448286  -1.00113  0  2.202452  0
O  O78  1  0.90892835  0.59344668  0.07831662  1  -1.25635  0  -0.233676  -0.593483  0  2.336198  0
O  O79  1  0.58744116  0.59499843  0.92186756  1  -1.262158  0  -0.232166  -0.587725  0  2.337341  0
O  O80  1  0.41919523  0.43213177  0.89963123  1  -1.260096  0  -0.232153  -0.580462  0  2.336959  0
O  O81  1  0.07176356  0.42091169  0.09380774  1  -1.260103  0  -0.238408  -0.597567  0  2.332704  0
O  O82  1  0.08736252  0.40694182  0.92152351  1  -1.252935  0  -0.229397  -0.582251  0  2.329153  0
O  O83  1  0.40708857  0.40209357  0.07198309  1  -1.259469  0  -0.235001  -0.596038  0  2.329981  0
O  O84  1  0.57187522  0.57554124  0.09581694  1  -1.259981  0  -0.239844  -0.599285  0  2.327103  0
O  O85  1  0.92378718  0.57699244  0.90620408  1  -1.247559  0  -0.227405  -0.572799  0  2.321772  0
O  O86  1  0.24671877  0.55754956  0.00280004  1  -1.436477  0  -0.448135  -0.989541  0  2.206503  0
O  O87  1  0.74545370  0.44314221  0.99931782  1  -1.426307  0  -0.448178  -0.991156  0  2.202666  0
F  F88  1  0.44415573  0.75338640  0.63770668  1  -0.633432  0  -0.096044  -0.139654  0  1.340719  0
F  F89  1  0.95425617  0.25227539  0.36481954  1  -0.642083  0  -0.097438  -0.140175  0  1.341609  0
F  F90  1  0.55993874  0.26230502  0.63174269  1  -0.628416  0  -0.097718  -0.137876  0  1.342661  0
F  F91  1  0.45367013  0.73982251  0.37125955  1  -0.631471  0  -0.098007  -0.140079  0  1.342889  0
