# generated using pymatgen
data_Cu3H15C17(N2Cl)4
_symmetry_space_group_name_H-M   'P 1'
_cell_length_a   9.88210110
_cell_length_b   10.53728064
_cell_length_c   11.79720384
_cell_angle_alpha   94.13226958
_cell_angle_beta   91.93050349
_cell_angle_gamma   115.91796904
_symmetry_Int_Tables_number   1
_chemical_formula_structural   Cu3H15C17(N2Cl)4
_chemical_formula_sum   'Cu6 H30 C34 N16 Cl8'
_cell_volume   1099.10666411
_cell_formula_units_Z   2
loop_
 _symmetry_equiv_pos_site_id
 _symmetry_equiv_pos_as_xyz
  1  'x, y, z'
loop_
 _atom_site_type_symbol
 _atom_site_label
 _atom_site_symmetry_multiplicity
 _atom_site_fract_x
 _atom_site_fract_y
 _atom_site_fract_z
 _atom_site_occupancy
 _atom_site_hle17_ddec_charge
 _atom_site_hle17_ddec_spin_density
 _atom_site_hle17_ddec_sum_bond_order
 _atom_site_hle17_magmom
 _atom_site_hse06_10hf_ddec_charge
 _atom_site_hse06_10hf_ddec_spin_density
 _atom_site_hse06_10hf_ddec_sum_bond_order
 _atom_site_hse06_10hf_magmom
 _atom_site_hse06_ddec_charge
 _atom_site_hse06_ddec_spin_density
 _atom_site_hse06_ddec_sum_bond_order
 _atom_site_hse06_magmom
 _atom_site_pbe_cm5_charge
 _atom_site_pbe_ddec_charge
 _atom_site_pbe_ddec_spin_density
 _atom_site_pbe_ddec_sum_bond_order
 _atom_site_pbe_magmom
Cu  Cu0  1  0.56042013  0.14220653  0.41162850  1  0.713283  0.636908  2.029879  0.445  0.691969  0.737249  2.458519  0.562  0.786677  0.82556  2.377095  0.652  0.588148  0.638188  0.663054  2.510684  0.497
Cu  Cu1  1  0.43949759  0.85740402  0.58865307  1  0.713707  0.637621  2.033571  0.446  0.692511  0.737492  2.462336  0.561  0.786791  0.825638  2.381192  0.652  0.589125  0.639008  0.663312  2.514336  0.497
Cu  Cu2  1  0.62437877  0.86478250  0.24327952  1  0.707254  -0.551734  1.913379  -0.416  0.684616  -0.697221  2.319409  -0.552  0.803518  -0.842026  2.236189  -0.682  0.643876  0.61905  -0.59063  2.376803  -0.467
Cu  Cu3  1  0.37545710  0.13529547  0.75704831  1  0.707258  -0.551521  1.912144  -0.416  0.684814  -0.697209  2.318417  -0.552  0.803848  -0.841762  2.234969  -0.682  0.643387  0.619036  -0.590708  2.375928  -0.467
Cu  Cu4  1  0.85198942  0.01948783  0.00069347  1  0.551142  -0.199571  1.913373  -0.158  0.399939  -0.089318  2.442117  -0.074  0.369835  -0.013934  2.416258  -0.011  0.384051  0.432373  -0.140442  2.449166  -0.116
Cu  Cu5  1  0.14837257  0.97983674  0.99881596  1  0.550351  -0.198095  1.914534  -0.157  0.399464  -0.089409  2.443167  -0.074  0.369238  -0.013907  2.41726  -0.011  0.384118  0.431979  -0.140231  2.45008  -0.116
H  H6  1  0.47673613  0.37079547  0.51767178  1  0.082047  0.000941  0.957593  0.002  0.088592  0.001151  1.026529  0.002  0.089814  0.000878  1.025912  0.001  0.108181  0.087365  0.00128  1.027751  0.002
H  H7  1  0.52313067  0.62866924  0.48240500  1  0.082015  0.000932  0.957553  0.002  0.088412  0.001147  1.026549  0.002  0.089662  0.000874  1.025872  0.001  0.108197  0.087144  0.001275  1.027846  0.002
H  H8  1  0.25684560  0.43073622  0.48739941  1  0.105749  0.000953  0.993573  0.001  0.11452  0.000922  1.056609  0.001  0.117106  0.000678  1.056706  0.001  0.09375  0.112481  0.001068  1.057173  0.001
H  H9  1  0.74326817  0.56915200  0.51266187  1  0.105493  0.00095  0.994209  0.001  0.114273  0.000923  1.05714  0.001  0.116919  0.000679  1.057188  0.001  0.093669  0.11221  0.001068  1.057742  0.001
H  H10  1  0.06258964  0.29506231  0.32543676  1  0.105242  0.00024  0.925594  0.0  0.118758  -5.7e-05  0.977899  0.0  0.121825  -8.5e-05  0.97572  0.0  0.106795  0.116425  -1.8e-05  0.97987  0.0
H  H11  1  0.93758299  0.70512204  0.67441782  1  0.105633  0.000228  0.925951  0.0  0.119351  -7e-05  0.977967  0.0  0.122426  -9.3e-05  0.975773  0.0  0.106989  0.117019  -3.1e-05  0.979937  0.0
H  H12  1  0.10320782  0.12044785  0.19396139  1  0.104419  0.000465  1.00591  0.001  0.111772  0.000446  1.078793  0.001  0.120909  0.000285  1.069294  0.001  0.089374  0.104552  0.000555  1.086252  0.001
H  H13  1  0.89690194  0.87970375  0.80585187  1  0.103926  0.000443  1.005856  0.001  0.111381  0.000443  1.078968  0.001  0.120574  0.000283  1.069381  0.001  0.089394  0.104127  0.00055  1.086471  0.001
H  H14  1  0.46136918  0.78176047  0.00812484  1  0.097054  0.00017  0.937318  0.0  0.102595  0.000226  1.015501  0.0  0.104128  0.000202  1.013944  0.0  0.095805  0.101827  0.00018  1.015804  0.0
H  H15  1  0.53895864  0.21823313  0.99182506  1  0.09677  0.000172  0.937507  0.0  0.102275  0.000228  1.015791  0.0  0.103821  0.000203  1.014223  0.0  0.095923  0.101497  0.000182  1.016123  0.0
H  H16  1  0.34733128  0.84107543  0.92953667  1  0.10937  0.000303  0.96503  0.0  0.124846  0.000229  1.02479  0.0  0.128336  0.00019  1.022717  0.0  0.091746  0.122408  0.000233  1.026552  0.0
H  H17  1  0.65324688  0.15915125  0.07037614  1  0.109655  0.000298  0.964874  0.0  0.124962  0.000223  1.024713  0.0  0.128414  0.000187  1.02276  0.0  0.091718  0.122535  0.000226  1.026444  0.0
H  H18  1  0.21310064  0.58292608  0.94100766  1  0.069239  5e-05  0.941359  0.0  0.086216  3.9e-05  1.003661  0.0  0.086854  2.1e-05  1.004606  0.0  0.089989  0.085728  3.9e-05  1.003143  0.0
H  H19  1  0.78706609  0.41715868  0.05885086  1  0.069348  5.3e-05  0.941213  0.0  0.086261  4.1e-05  1.003516  0.0  0.086902  2.2e-05  1.00446  0.0  0.089977  0.085752  4e-05  1.003024  0.0
H  H20  1  0.11691398  0.67269384  0.00808998  1  0.074668  -3.3e-05  0.9376  0.0  0.092613  -4.9e-05  1.001499  0.0  0.09641  -7.3e-05  0.999234  0.0  0.088689  0.08968  -5.1e-05  1.003002  0.0
H  H21  1  0.88346531  0.32774290  0.99167169  1  0.07516  -3.3e-05  0.937011  0.0  0.093103  -4.9e-05  1.000654  0.0  0.096883  -7.2e-05  0.998393  0.0  0.089035  0.090188  -5.4e-05  1.00213  0.0
H  H22  1  0.21604823  0.65506115  0.19934743  1  0.112738  0.000185  0.927895  0.0  0.126856  0.000164  0.987358  0.0  0.128086  0.00015  0.987891  0.0  0.104792  0.125942  0.000176  0.986955  0.0
H  H23  1  0.78378749  0.34514549  0.80047733  1  0.112574  0.000184  0.927973  0.0  0.126779  0.000166  0.98747  0.0  0.127984  0.000152  0.987981  0.0  0.10472  0.125863  0.000178  0.98704  0.0
H  H24  1  0.11828994  0.48513772  0.12310451  1  0.102026  4.3e-05  0.921879  0.0  0.121014  1.9e-05  0.976746  0.0  0.123877  2e-05  0.975582  0.0  0.105777  0.119079  -5e-06  0.97709  0.0
H  H25  1  0.88155552  0.51510285  0.87671948  1  0.102209  3.9e-05  0.921671  0.0  0.12116  1.7e-05  0.976716  0.0  0.123971  1.9e-05  0.975589  0.0  0.105811  0.119189  -5e-06  0.977076  0.0
H  H26  1  0.76670723  0.46191267  0.25224635  1  0.117924  -0.000545  0.93167  -0.001  0.128982  -0.000612  0.989251  -0.001  0.13247  -0.000493  0.987171  -0.001  0.115073  0.125689  -0.000672  0.992301  -0.001
H  H27  1  0.23354599  0.53843775  0.74781440  1  0.11767  -0.000547  0.931949  -0.001  0.128718  -0.00061  0.989529  -0.001  0.132245  -0.000492  0.987405  -0.001  0.114755  0.125422  -0.000671  0.992578  -0.001
H  H28  1  0.02650714  0.60384413  0.35333888  1  0.101885  0.000632  0.962316  0.0  0.114491  0.000795  1.017946  0.0  0.11795  0.000657  1.014357  0.0  0.099857  0.112028  0.000882  1.020624  0.0
H  H29  1  0.97365430  0.39674158  0.64679075  1  0.10149  0.000637  0.96239  0.0  0.114459  0.000792  1.017615  0.0  0.117813  0.000655  1.014159  0.0  0.099875  0.112048  0.00088  1.020231  0.0
H  H30  1  0.11467183  0.86145977  0.40725874  1  0.11657  -0.000615  0.97664  0.0  0.124712  -0.000543  1.038525  -0.001  0.129005  -0.000475  1.035737  0.0  0.093985  0.12177  -0.000587  1.04037  -0.001
H  H31  1  0.88514971  0.13912650  0.59291577  1  0.116695  -0.000623  0.976519  -0.001  0.125059  -0.00055  1.038051  -0.001  0.129382  -0.00048  1.035186  0.0  0.094066  0.121994  -0.000594  1.040053  -0.001
H  H32  1  0.94088074  0.97224310  0.36062485  1  0.084811  -0.000765  0.946202  -0.001  0.094652  -0.000812  1.007164  -0.001  0.09649  -0.00069  1.005759  -0.001  0.111648  0.092896  -0.000785  1.008622  -0.001
H  H33  1  0.05859126  0.02801488  0.63938244  1  0.085436  -0.000758  0.945399  -0.001  0.095209  -0.000808  1.006275  -0.001  0.097034  -0.000686  1.004955  -0.001  0.111707  0.093422  -0.00078  1.007718  -0.001
H  H34  1  0.27645691  0.34641858  0.07524411  1  0.292019  -0.000904  0.939453  -0.001  0.272368  -0.000773  1.008874  -0.001  0.27988  -0.000432  1.005975  -0.001  0.29079  0.266264  -0.000455  1.01144  -0.001
H  H35  1  0.72341312  0.65356353  0.92488899  1  0.291882  -0.000928  0.939996  -0.001  0.272392  -0.000779  1.009049  -0.001  0.279863  -0.000433  1.006184  -0.001  0.290867  0.266309  -0.000459  1.011589  -0.001
C  C36  1  0.39200106  0.32146395  0.44627579  1  0.140143  -0.003856  3.685242  -0.005  0.109792  0.000375  3.940913  -0.001  0.11772  -0.000987  3.962548  -0.003  0.045468  0.104788  0.001002  3.92742  -0.001
C  C37  1  0.60789829  0.67813150  0.55374822  1  0.140254  -0.003842  3.685009  -0.005  0.110143  0.000381  3.940701  -0.001  0.11807  -0.000978  3.962292  -0.003  0.045497  0.105149  0.001  3.927254  -0.001
C  C38  1  0.26884962  0.35123777  0.43007519  1  -0.1142  0.008462  3.709444  0.009  -0.129442  0.005017  3.959667  0.005  -0.136326  0.004445  3.981079  0.005  -0.088035  -0.124757  0.005213  3.94547  0.006
C  C39  1  0.73118544  0.64858593  0.56993789  1  -0.113611  0.008478  3.711074  0.009  -0.128749  0.00501  3.961066  0.005  -0.13569  0.004441  3.982406  0.005  -0.088008  -0.124044  0.005206  3.946883  0.006
C  C40  1  0.16302922  0.27821230  0.33889778  1  0.009784  -0.00643  3.684407  -0.006  -0.006853  -0.002703  3.929722  -0.003  -0.00213  -0.00306  3.944739  -0.003  -0.06566  -0.009947  -0.002379  3.919437  -0.002
C  C41  1  0.83703807  0.72177846  0.66102183  1  0.008708  -0.006459  3.68557  -0.006  -0.008179  -0.00271  3.931001  -0.003  -0.00345  -0.003062  3.946025  -0.003  -0.066053  -0.01125  -0.002391  3.920674  -0.002
C  C42  1  0.18464033  0.18024801  0.26515887  1  -0.1356  0.0065  3.706749  0.007  -0.154885  0.003427  3.949254  0.004  -0.15867  0.003117  3.96044  0.004  -0.084916  -0.152229  0.00359  3.942688  0.004
C  C43  1  0.81534618  0.81971722  0.73473724  1  -0.134717  0.006517  3.706616  0.007  -0.154342  0.003413  3.949404  0.004  -0.158122  0.003107  3.96055  0.004  -0.084982  -0.151659  0.003569  3.942796  0.004
C  C44  1  0.31256573  0.15888764  0.28493351  1  0.162251  -0.002922  3.770096  -0.004  0.163965  1.2e-05  4.009051  -0.001  0.172778  -0.001134  4.02528  -0.002  0.117429  0.156912  0.000981  3.999965  0.0
C  C45  1  0.68724148  0.84083609  0.71502650  1  0.161871  -0.002956  3.771015  -0.004  0.163572  -5e-06  4.009856  -0.001  0.172341  -0.00115  4.026061  -0.002  0.117544  0.156557  0.000964  4.000775  0.0
C  C46  1  0.34959766  0.05730611  0.21985054  1  0.280143  -0.002983  3.773698  -0.002  0.254726  -0.00097  4.037776  0.0  0.269552  -0.001499  4.049582  -0.001  0.21305  0.24607  -0.000634  4.029532  0.0
C  C47  1  0.65011964  0.94233323  0.78016470  1  0.279783  -0.003034  3.776984  -0.002  0.25498  -0.000988  4.040197  0.0  0.269886  -0.00151  4.051894  -0.001  0.213157  0.246249  -0.000656  4.032033  0.0
C  C48  1  0.37613502  0.90262077  0.10670027  1  0.367238  0.006798  3.657532  0.006  0.353905  0.002222  3.917622  0.002  0.370444  0.002265  3.931007  0.002  0.219281  0.344182  0.002274  3.908653  0.002
C  C49  1  0.62404417  0.09728412  0.89328684  1  0.36681  0.006877  3.657591  0.007  0.354453  0.002239  3.916472  0.002  0.371011  0.002285  3.929858  0.002  0.219106  0.344731  0.002288  3.907479  0.002
C  C50  1  0.35867187  0.79763319  0.00926274  1  -0.219958  0.00101  3.700228  0.001  -0.258763  0.000983  3.944825  0.001  -0.261572  0.000851  3.953583  0.001  -0.163548  -0.257227  0.000865  3.938876  0.001
C  C51  1  0.64174264  0.20246615  0.99060620  1  -0.220424  0.001001  3.701414  0.001  -0.259309  0.000981  3.945682  0.001  -0.262204  0.00085  3.954577  0.001  -0.164032  -0.257765  0.000864  3.939726  0.001
C  C52  1  0.21904580  0.65566239  0.01471145  1  -0.067844  0.000595  3.644445  0.001  -0.108405  0.000315  3.900983  0.0  -0.108922  0.000289  3.911679  0.0  -0.156795  -0.108154  0.00027  3.894063  0.0
C  C53  1  0.78119692  0.34452249  0.98510526  1  -0.067779  0.000597  3.645825  0.001  -0.108082  0.000318  3.90215  0.0  -0.108589  0.000293  3.912805  0.0  -0.156692  -0.107854  0.000272  3.895245  0.0
C  C54  1  0.21948641  0.58695235  0.12543795  1  -0.214228  0.000171  3.687531  0.0  -0.254461  8.9e-05  3.936756  0.0  -0.258683  8.1e-05  3.946644  0.0  -0.149847  -0.251294  0.000106  3.92911  0.0
C  C55  1  0.78047132  0.41321182  0.87446268  1  -0.214172  0.000185  3.688528  0.0  -0.254636  8.8e-05  3.937983  0.0  -0.258723  8.1e-05  3.947735  0.0  -0.149803  -0.251411  0.000106  3.93023  0.0
C  C56  1  0.35476750  0.56188897  0.14565093  1  0.406223  0.001107  3.646773  0.001  0.380437  -0.000483  3.913131  0.0  0.401123  -5.1e-05  3.923741  0.0  0.245606  0.367127  -0.000417  3.905997  0.0
C  C57  1  0.64509917  0.43816856  0.85444916  1  0.40737  0.001097  3.646097  0.001  0.381624  -0.000477  3.912428  0.0  0.402284  -4.6e-05  3.922999  0.0  0.245914  0.3683  -0.00041  3.905264  0.0
C  C58  1  0.57214302  0.57727429  0.19762009  1  0.256046  0.000924  3.813793  0.0  0.231938  3.7e-05  4.092752  0.0  0.242984  0.000292  4.109038  0.0  0.210672  0.225268  -0.000267  4.082103  -0.001
C  C59  1  0.42769426  0.42277444  0.80250910  1  0.255333  0.000929  3.815099  0.0  0.231425  3.7e-05  4.09374  0.0  0.242477  0.000288  4.110077  0.0  0.210325  0.224734  -0.000269  4.083082  -0.001
C  C60  1  0.72374085  0.64546702  0.25281114  1  0.164563  0.002978  3.783405  0.003  0.164625  0.000116  4.024907  0.001  0.173312  0.001159  4.045512  0.002  0.118617  0.15895  -0.000369  4.011868  0.0
C  C61  1  0.27614741  0.35469770  0.74726647  1  0.164522  0.002913  3.78424  0.003  0.165123  0.000119  4.025474  0.001  0.173806  0.001164  4.046112  0.002  0.118805  0.15943  -0.000366  4.01241  0.0
C  C62  1  0.81189138  0.57560505  0.27557705  1  -0.131135  -0.004851  3.696601  -0.005  -0.152215  -0.002653  3.943607  -0.003  -0.157322  -0.00279  3.959516  -0.003  -0.075168  -0.14949  -0.002353  3.933667  -0.003
C  C63  1  0.18817591  0.42472877  0.72449012  1  -0.131069  -0.004754  3.696333  -0.005  -0.152175  -0.002653  3.943447  -0.003  -0.157305  -0.002789  3.9593  -0.003  -0.075039  -0.14948  -0.002358  3.933548  -0.003
C  C64  1  0.95441210  0.65383900  0.33113204  1  0.00577  0.006346  3.704526  0.006  -0.008168  0.003105  3.944408  0.003  -0.001831  0.003374  3.957484  0.003  -0.061975  -0.012361  0.002826  3.935397  0.003
C  C65  1  0.04563511  0.34663636  0.66897321  1  0.006328  0.006225  3.704632  0.006  -0.007887  0.003094  3.944555  0.003  -0.001502  0.003364  3.957708  0.003  -0.061772  -0.012116  0.002817  3.935489  0.003
C  C66  1  0.00433326  0.79847458  0.36207786  1  -0.104249  -0.006665  3.676116  -0.007  -0.115613  -0.003806  3.917954  -0.004  -0.121967  -0.003895  3.934363  -0.005  -0.079535  -0.111531  -0.003374  3.906853  -0.004
C  C67  1  0.99551912  0.20200417  0.63804596  1  -0.104921  -0.006579  3.67745  -0.007  -0.116369  -0.003818  3.918984  -0.004  -0.122735  -0.003902  3.935363  -0.005  -0.080106  -0.112225  -0.003395  3.907986  -0.004
C  C68  1  0.90900299  0.86035185  0.33765420  1  0.145158  0.005695  3.675085  0.006  0.118279  0.001472  3.922112  0.002  0.130432  0.002262  3.938433  0.003  0.049933  0.110997  0.000857  3.911837  0.001
C  C69  1  0.09070012  0.13995007  0.66239558  1  0.145511  0.005605  3.674999  0.006  0.119301  0.001448  3.922077  0.002  0.13143  0.002242  3.93845  0.003  0.050719  0.112035  0.000835  3.911742  0.001
N  N70  1  0.41323965  0.22794452  0.37556694  1  -0.315742  0.076935  3.318678  0.093  -0.266165  0.065014  3.596052  0.084  -0.298114  0.056274  3.6205  0.076  -0.335936  -0.248065  0.067341  3.582901  0.084
N  N71  1  0.58653964  0.77159973  0.62445105  1  -0.315476  0.076792  3.318733  0.093  -0.266264  0.064878  3.596496  0.083  -0.298113  0.056182  3.620855  0.076  -0.336205  -0.248196  0.06722  3.583362  0.084
N  N72  1  0.45671790  0.02973569  0.26868994  1  -0.261749  0.065769  3.334604  0.081  -0.235758  0.052138  3.658819  0.068  -0.266388  0.045673  3.68826  0.063  -0.280223  -0.217561  0.053527  3.641713  0.068
N  N73  1  0.54276255  0.96973404  0.73151975  1  -0.262582  0.065894  3.336184  0.081  -0.236562  0.052205  3.660227  0.068  -0.267103  0.045751  3.689487  0.063  -0.2808  -0.21839  0.053608  3.643178  0.068
N  N74  1  0.29531020  0.97979230  0.11738887  1  -0.449613  -0.010647  3.205206  -0.014  -0.383494  -0.002714  3.519631  -0.004  -0.391864  -0.001913  3.518981  -0.003  -0.370913  -0.379275  -0.002991  3.517659  -0.004
N  N75  1  0.70484172  0.02009121  0.88246970  1  -0.448601  -0.010773  3.206472  -0.014  -0.383042  -0.002703  3.520342  -0.004  -0.391463  -0.001914  3.519646  -0.003  -0.370159  -0.37877  -0.002987  3.518349  -0.004
N  N76  1  0.47259184  0.93141322  0.19883287  1  -0.264344  -0.055713  3.265921  -0.073  -0.225511  -0.046461  3.574288  -0.063  -0.258839  -0.044343  3.606143  -0.062  -0.26555  -0.208026  -0.043002  3.557814  -0.058
N  N77  1  0.52717505  0.06828013  0.80134855  1  -0.263992  -0.055829  3.262869  -0.074  -0.225682  -0.046573  3.571094  -0.063  -0.259018  -0.044429  3.602902  -0.062  -0.265408  -0.208162  -0.043124  3.554575  -0.058
N  N78  1  0.48967389  0.65326198  0.19607375  1  -0.468048  -0.039901  3.183806  -0.052  -0.430747  -0.042  3.49176  -0.056  -0.463532  -0.040324  3.502733  -0.056  -0.359421  -0.41339  -0.040553  3.488454  -0.053
N  N79  1  0.51014387  0.34676221  0.80407184  1  -0.467584  -0.03974  3.184453  -0.052  -0.430303  -0.041883  3.492312  -0.056  -0.463118  -0.040212  3.503208  -0.056  -0.359049  -0.412939  -0.040429  3.489051  -0.053
N  N80  1  0.36168693  0.43869086  0.11698246  1  -0.216205  -0.00124  3.434729  -0.001  -0.151813  -0.001631  3.6626  -0.002  -0.165299  -0.001522  3.675975  -0.002  -0.259179  -0.142862  -0.002075  3.654839  -0.003
N  N81  1  0.63815955  0.56136247  0.88310321  1  -0.217848  -0.001223  3.435573  -0.001  -0.15332  -0.001624  3.663181  -0.002  -0.166731  -0.001516  3.67653  -0.002  -0.259963  -0.144411  -0.002072  3.655414  -0.003
N  N82  1  0.49763351  0.44497993  0.14911478  1  -0.229301  -0.001595  2.817867  -0.002  -0.220261  -0.001705  3.081961  -0.002  -0.223962  -0.000933  3.092385  -0.001  -0.216857  -0.218742  -0.001911  3.075665  -0.002
N  N83  1  0.50221375  0.55508590  0.85099891  1  -0.228838  -0.001608  2.817921  -0.002  -0.219848  -0.001705  3.081785  -0.002  -0.223602  -0.00093  3.092236  -0.001  -0.216869  -0.218352  -0.001907  3.07552  -0.002
N  N84  1  0.77146496  0.78541050  0.28447362  1  -0.318973  -0.056159  3.333676  -0.073  -0.26245  -0.050571  3.6066  -0.068  -0.29572  -0.048298  3.630525  -0.067  -0.340906  -0.245305  -0.04678  3.59601  -0.062
N  N85  1  0.22826734  0.21474116  0.71557588  1  -0.319618  -0.056032  3.332489  -0.073  -0.264497  -0.050606  3.606626  -0.068  -0.297848  -0.048308  3.630658  -0.067  -0.341145  -0.247234  -0.046839  3.595866  -0.062
Cl  Cl86  1  0.71680013  0.31913803  0.53472667  1  -0.526207  0.116036  0.948751  0.13  -0.525134  0.069771  1.225152  0.082  -0.554629  0.054983  1.199156  0.066  -0.327993  -0.508099  0.074375  1.245207  0.085
Cl  Cl87  1  0.28312450  0.68075469  0.46549328  1  -0.526398  0.115998  0.948998  0.13  -0.525289  0.069789  1.225388  0.082  -0.554725  0.055023  1.199403  0.066  -0.328251  -0.508189  0.074404  1.245394  0.085
Cl  Cl88  1  0.66714483  0.99278846  0.44268925  1  -0.489089  0.114437  1.233115  0.13  -0.492625  0.074002  1.58115  0.087  -0.533851  0.057415  1.551015  0.07  -0.263184  -0.468892  0.079361  1.604581  0.091
Cl  Cl89  1  0.33318200  0.00691566  0.55759826  1  -0.488846  0.115231  1.234853  0.13  -0.492456  0.074641  1.583145  0.088  -0.533689  0.058027  1.552891  0.071  -0.263477  -0.468746  0.080018  1.606784  0.092
Cl  Cl90  1  0.81482607  0.07652969  0.18359469  1  -0.502946  -0.088611  1.271535  -0.11  -0.478508  -0.065985  1.634004  -0.085  -0.513583  -0.05078  1.608923  -0.067  -0.279419  -0.464476  -0.064142  1.65379  -0.081
Cl  Cl91  1  0.18525535  0.92314945  0.81551536  1  -0.501962  -0.088862  1.272498  -0.11  -0.477009  -0.066411  1.634696  -0.086  -0.512049  -0.051209  1.60952  -0.067  -0.27873  -0.463174  -0.064462  1.654638  -0.082
Cl  Cl92  1  0.89705029  0.81637599  0.02510624  1  -0.55519  -0.020254  1.235503  -0.025  -0.516329  -0.008352  1.595803  -0.011  -0.538595  -0.001648  1.578302  -0.002  -0.297473  -0.496733  -0.015382  1.601917  -0.02
Cl  Cl93  1  0.10353531  0.18285603  0.97499718  1  -0.555458  -0.020354  1.238071  -0.025  -0.51678  -0.008393  1.599186  -0.011  -0.539013  -0.001666  1.581573  -0.002  -0.297706  -0.497184  -0.015464  1.605365  -0.02
