# generated using pymatgen
data_ZnH11C10NO4
_symmetry_space_group_name_H-M   'P 1'
_cell_length_a   6.78777669
_cell_length_b   12.20014692
_cell_length_c   12.19543697
_cell_angle_alpha   120.01314315
_cell_angle_beta   89.96489943
_cell_angle_gamma   90.00861248
_symmetry_Int_Tables_number   1
_chemical_formula_structural   ZnH11C10NO4
_chemical_formula_sum   'Zn3 H33 C30 N3 O12'
_cell_volume   874.50638130
_cell_formula_units_Z   3
loop_
 _symmetry_equiv_pos_site_id
 _symmetry_equiv_pos_as_xyz
  1  'x, y, z'
loop_
 _atom_site_type_symbol
 _atom_site_label
 _atom_site_symmetry_multiplicity
 _atom_site_fract_x
 _atom_site_fract_y
 _atom_site_fract_z
 _atom_site_occupancy
 _atom_site_hle17_bader_spin_density
 _atom_site_hle17_ddec_charge
 _atom_site_hle17_ddec_spin_density
 _atom_site_hle17_ddec_sum_bond_order
 _atom_site_hle17_magmom
 _atom_site_hse06_10hf_bader_spin_density
 _atom_site_hse06_10hf_ddec_charge
 _atom_site_hse06_10hf_ddec_spin_density
 _atom_site_hse06_10hf_ddec_sum_bond_order
 _atom_site_hse06_10hf_magmom
 _atom_site_hse06_bader_spin_density
 _atom_site_hse06_ddec_charge
 _atom_site_hse06_ddec_spin_density
 _atom_site_hse06_ddec_sum_bond_order
 _atom_site_hse06_magmom
 _atom_site_pbe_bader_spin_density
 _atom_site_pbe_cm5_charge
 _atom_site_pbe_ddec_charge
 _atom_site_pbe_ddec_spin_density
 _atom_site_pbe_ddec_sum_bond_order
 _atom_site_pbe_magmom
Zn  Zn0  1  0.09984691  0.35807331  0.82156147  1  0  1.100066  0  1.812788  0  0  0.921172  0  2.278678  0  0  0.968087  0  2.220615  0  0  0.68967  0.888317  0  2.318651  0
Zn  Zn1  1  0.43380908  0.17847964  0.53647635  1  0  1.100208  0  1.812469  0  0  0.921361  0  2.277903  0  0  0.96836  0  2.219867  0  0  0.689715  0.888468  0  2.317875  0
Zn  Zn2  1  0.76698960  0.46333949  0.64209050  1  0  1.100074  0  1.813181  0  0  0.921536  0  2.278976  0  0  0.968449  0  2.220873  0  0  0.689801  0.888696  0  2.318974  0
H  H3  1  0.62789076  0.41534345  0.00330933  1  0  0.07708  0  0.925539  0  0  0.087958  0  0.985152  0  0  0.089204  0  0.985512  0  0  0.115616  0.087004  0  0.98506  0
H  H4  1  0.96185635  0.99707438  0.41233403  1  0  0.075543  0  0.924785  0  0  0.087324  0  0.98344  0  0  0.088467  0  0.983885  0  0  0.115525  0.086373  0  0.983354  0
H  H5  1  0.29530215  0.58756763  0.58487934  1  0  0.076145  0  0.925254  0  0  0.087621  0  0.984328  0  0  0.088878  0  0.984646  0  0  0.115615  0.086629  0  0.984285  0
H  H6  1  0.78936843  0.58436596  0.19717804  1  0  0.098732  0  0.948418  0  0  0.118906  0  1.008927  0  0  0.120108  0  1.009102  0  0  0.088101  0.118017  0  1.008821  0
H  H7  1  0.12317295  0.80324167  0.38741357  1  0  0.098806  0  0.94851  0  0  0.118999  0  1.008919  0  0  0.12018  0  1.009119  0  0  0.088185  0.118126  0  1.008799  0
H  H8  1  0.45642876  0.61267139  0.41591895  1  0  0.09879  0  0.948664  0  0  0.119374  0  1.008685  0  0  0.120596  0  1.008833  0  0  0.088159  0.118464  0  1.008609  0
H  H9  1  0.64406559  0.65311332  0.12484484  1  0  0.117324  0  0.958261  0  0  0.137277  0  1.018147  0  0  0.138689  0  1.018831  0  0  0.093268  0.136204  0  1.017726  0
H  H10  1  0.97789230  0.87564191  0.52861244  1  0  0.117442  0  0.958099  0  0  0.137379  0  1.017972  0  0  0.138815  0  1.018614  0  0  0.093277  0.136262  0  1.017622  0
H  H11  1  0.31136349  0.47147071  0.34705048  1  0  0.117684  0  0.957974  0  0  0.137545  0  1.017934  0  0  0.13895  0  1.018624  0  0  0.093246  0.136471  0  1.017529  0
H  H12  1  0.90493140  0.64590737  0.10751266  1  0  0.109798  0  0.937555  0  0  0.131356  0  0.995234  0  0  0.132929  0  0.995132  0  0  0.091073  0.130164  0  0.995386  0
H  H13  1  0.23866313  0.89276388  0.53869210  1  0  0.110137  0  0.937569  0  0  0.131386  0  0.995608  0  0  0.13297  0  0.995492  0  0  0.090937  0.130199  0  0.995749  0
H  H14  1  0.57212848  0.46144022  0.35400199  1  0  0.109526  0  0.937743  0  0  0.130999  0  0.995686  0  0  0.132584  0  0.995569  0  0  0.090642  0.129809  0  0.995836  0
H  H15  1  0.86785964  0.36382935  0.12172617  1  0  0.057674  0  0.923001  0  0  0.071517  0  0.987141  0  0  0.073756  0  0.983084  0  0  0.114615  0.069687  0  0.990278  0
H  H16  1  0.20168143  0.87851623  0.24225201  1  0  0.056763  0  0.923266  0  0  0.070739  0  0.987326  0  0  0.072955  0  0.983276  0  0  0.114462  0.068989  0  0.990394  0
H  H17  1  0.53520009  0.75748450  0.63617623  1  0  0.057722  0  0.922964  0  0  0.071719  0  0.986951  0  0  0.074051  0  0.982798  0  0  0.114763  0.069884  0  0.990094  0
H  H18  1  0.61038752  0.17585453  0.92106067  1  0  0.107012  0  0.954942  0  0  0.120501  0  1.011948  0  0  0.123286  0  1.012014  0  0  0.101216  0.118536  0  1.012069  0
H  H19  1  0.94386056  0.07861442  0.25375522  1  0  0.107417  0  0.954189  0  0  0.120869  0  1.011312  0  0  0.123683  0  1.011364  0  0  0.101369  0.118897  0  1.011415  0
H  H20  1  0.27730829  0.74553392  0.82436716  1  0  0.106894  0  0.954922  0  0  0.120357  0  1.012011  0  0  0.123237  0  1.011969  0  0  0.101144  0.118328  0  1.012196  0
H  H21  1  0.61358184  0.11137738  0.08388321  1  0  0.082316  0  0.977313  0  0  0.093163  0  1.039422  0  0  0.094549  0  1.040128  0  0  0.095567  0.092121  0  1.038973  0
H  H22  1  0.94646434  0.91588603  0.02641212  1  0  0.082071  0  0.977871  0  0  0.092952  0  1.039889  0  0  0.094321  0  1.040612  0  0  0.095458  0.091886  0  1.03946  0
H  H23  1  0.28032210  0.97270151  0.88877245  1  0  0.081747  0  0.976875  0  0  0.092397  0  1.03928  0  0  0.093842  0  1.039917  0  0  0.09516  0.091312  0  1.038876  0
H  H24  1  0.32329421  0.15659946  0.22668224  1  0  0.094854  0  0.979253  0  0  0.102008  0  1.045782  0  0  0.104665  0  1.046225  0  0  0.094001  0.100138  0  1.045575  0
H  H25  1  0.65614069  0.77328246  0.92923673  1  0  0.094637  0  0.97941  0  0  0.101806  0  1.046016  0  0  0.104457  0  1.046483  0  0  0.093882  0.099947  0  1.045798  0
H  H26  1  0.98989682  0.07011130  0.84371489  1  0  0.095193  0  0.978763  0  0  0.101988  0  1.04577  0  0  0.104639  0  1.046212  0  0  0.093825  0.100132  0  1.04557  0
H  H27  1  0.03234180  0.26508155  0.20295211  1  0  0.088412  0  0.948906  0  0  0.099295  0  1.010741  0  0  0.102723  0  1.007548  0  0  0.100953  0.096802  0  1.013042  0
H  H28  1  0.36559745  0.79716879  0.06205057  1  0  0.087833  0  0.949275  0  0  0.099152  0  1.010539  0  0  0.10246  0  1.007476  0  0  0.100908  0.09673  0  1.012775  0
H  H29  1  0.69917174  0.93760119  0.73516605  1  0  0.088582  0  0.948247  0  0  0.099209  0  1.010315  0  0  0.10251  0  1.00726  0  0  0.10095  0.096794  0  1.012539  0
H  H30  1  0.13575776  0.55371948  0.79411341  1  0  0.423591  0  0.886602  0  0  0.389138  0  0.955329  0  0  0.400768  0  0.938816  0  0  0.285748  0.380942  0  0.966931  0
H  H31  1  0.46905954  0.20627495  0.75979283  1  0  0.423394  0  0.886826  0  0  0.388953  0  0.955639  0  0  0.400614  0  0.939099  0  0  0.285636  0.380745  0  0.967249  0
H  H32  1  0.80289576  0.24012661  0.44624376  1  0  0.423124  0  0.887079  0  0  0.388839  0  0.955691  0  0  0.400523  0  0.939108  0  0  0.285616  0.380604  0  0.967343  0
H  H33  1  0.34351064  0.53743799  0.85629192  1  0  0.438972  0  0.862813  0  0  0.407762  0  0.926561  0  0  0.418238  0  0.911407  0  0  0.293653  0.400369  0  0.937236  0
H  H34  1  0.67708174  0.14414782  0.68149797  1  0  0.438835  0  0.862978  0  0  0.407757  0  0.92649  0  0  0.41823  0  0.911347  0  0  0.293651  0.400386  0  0.937126  0
H  H35  1  0.01091630  0.31844608  0.46266348  1  0  0.439188  0  0.862572  0  0  0.408095  0  0.926101  0  0  0.418542  0  0.910982  0  0  0.293688  0.400752  0  0.936713  0
C  C36  1  0.71051665  0.47997409  0.87803278  1  0  0.669464  0  3.78364  0  0  0.614084  0  4.081932  0  0  0.647989  0  4.073816  0  0  0.225814  0.591051  0  4.086825  0
C  C37  1  0.04435897  0.12233966  0.60220511  1  0  0.667905  0  3.787446  0  0  0.61346  0  4.083919  0  0  0.647327  0  4.075825  0  0  0.225849  0.59043  0  4.088777  0
C  C38  1  0.37790933  0.39771231  0.52004871  1  0  0.669116  0  3.783657  0  0  0.613963  0  4.081084  0  0  0.647869  0  4.072963  0  0  0.225711  0.590946  0  4.085966  0
C  C39  1  0.75614133  0.46569014  0.99362459  1  0  0.044631  0  3.655378  0  0  0.035091  0  3.894203  0  0  0.03405  0  3.909188  0  0  0.006283  0.035777  0  3.884099  0
C  C40  1  0.09011968  0.00669892  0.47231676  1  0  0.049202  0  3.653071  0  0  0.039338  0  3.890939  0  0  0.038479  0  3.90566  0  0  0.007217  0.039995  0  3.88082  0
C  C41  1  0.42357468  0.52759605  0.53437792  1  0  0.047787  0  3.65408  0  0  0.038048  0  3.892143  0  0  0.037118  0  3.906856  0  0  0.006418  0.038736  0  3.882035  0
C  C42  1  0.77471791  0.59580863  0.11377402  1  0  -0.313383  0  3.681841  0  0  -0.390717  0  3.913462  0  0  -0.393706  0  3.924502  0  0  -0.238388  -0.388381  0  3.905859  0
C  C43  1  0.10859509  0.88662540  0.48231954  1  0  -0.315063  0  3.681918  0  0  -0.39239  0  3.913543  0  0  -0.395418  0  3.92449  0  0  -0.238829  -0.390035  0  3.905975  0
C  C44  1  0.44198750  0.51777080  0.40431509  1  0  -0.314353  0  3.682008  0  0  -0.39205  0  3.913514  0  0  -0.395107  0  3.924504  0  0  -0.237987  -0.389684  0  3.90594  0
C  C45  1  0.97645396  0.34852795  0.04808112  1  0  0.179233  0  3.717185  0  0  0.132326  0  3.975598  0  0  0.150258  0  3.985816  0  0  0.081393  0.120388  0  3.968604  0
C  C46  1  0.31034563  0.95206659  0.30045261  1  0  0.180834  0  3.716748  0  0  0.133887  0  3.975702  0  0  0.151851  0  3.985876  0  0  0.081826  0.121865  0  3.96874  0
C  C47  1  0.64378324  0.69925286  0.65151946  1  0  0.180008  0  3.716947  0  0  0.132676  0  3.975454  0  0  0.150525  0  3.985706  0  0  0.081214  0.120739  0  3.968469  0
C  C48  1  0.15260781  0.28318200  0.04886065  1  0  -0.13112  0  3.807684  0  0  -0.109045  0  4.04555  0  0  -0.12346  0  4.073241  0  0  -0.038003  -0.09954  0  4.026744  0
C  C49  1  0.48630163  0.95118359  0.23404103  1  0  -0.130351  0  3.804424  0  0  -0.108825  0  4.043011  0  0  -0.123222  0  4.070606  0  0  -0.038397  -0.099328  0  4.024275  0
C  C50  1  0.81975609  0.76556173  0.71693159  1  0  -0.132171  0  3.809592  0  0  -0.109399  0  4.046346  0  0  -0.12386  0  4.074068  0  0  -0.038282  -0.099863  0  4.027535  0
C  C51  1  0.31961686  0.25796723  0.96666660  1  0  0.356148  0  3.832606  0  0  0.337775  0  4.087791  0  0  0.355927  0  4.102796  0  0  0.093588  0.325503  0  4.077357  0
C  C52  1  0.65330857  0.03328604  0.29080838  1  0  0.355971  0  3.83252  0  0  0.337925  0  4.087554  0  0  0.356148  0  4.102537  0  0  0.093724  0.325612  0  4.077117  0
C  C53  1  0.98669766  0.70871117  0.74215842  1  0  0.355712  0  3.835422  0  0  0.337612  0  4.090071  0  0  0.35577  0  4.1051  0  0  0.093246  0.325311  0  4.079609  0
C  C54  1  0.48385310  0.19593085  0.98352156  1  0  -0.23783  0  3.755668  0  0  -0.256842  0  4.013969  0  0  -0.267278  0  4.034316  0  0  -0.11958  -0.25002  0  4.000234  0
C  C55  1  0.81725379  0.01628585  0.21157791  1  0  -0.237385  0  3.755283  0  0  -0.256485  0  4.01363  0  0  -0.266949  0  4.033957  0  0  -0.119309  -0.249639  0  3.999892  0
C  C56  1  0.15081405  0.78772366  0.80416305  1  0  -0.23714  0  3.755537  0  0  -0.256296  0  4.013699  0  0  -0.266827  0  4.034077  0  0  -0.119186  -0.249409  0  3.999942  0
C  C57  1  0.48478411  0.15950444  0.07455719  1  0  -0.019844  0  3.788241  0  0  -0.034732  0  4.038167  0  0  -0.030066  0  4.057887  0  0  -0.085705  -0.037389  0  4.024487  0
C  C58  1  0.81781999  0.92526709  0.08407467  1  0  -0.01982  0  3.788444  0  0  -0.034682  0  4.038203  0  0  -0.030014  0  4.05797  0  0  -0.085821  -0.037314  0  4.024506  0
C  C59  1  0.15165533  0.91515587  0.84057655  1  0  -0.01987  0  3.787073  0  0  -0.034564  0  4.037003  0  0  -0.029947  0  4.056703  0  0  -0.085614  -0.037183  0  4.023334  0
C  C60  1  0.32119037  0.18304944  0.15385025  1  0  -0.111668  0  3.797238  0  0  -0.130219  0  4.057453  0  0  -0.138177  0  4.081703  0  0  -0.112465  -0.125061  0  4.040884  0
C  C61  1  0.65417382  0.84611561  0.02855586  1  0  -0.112027  0  3.797037  0  0  -0.130706  0  4.057488  0  0  -0.138667  0  4.081708  0  0  -0.112692  -0.125553  0  4.040938  0
C  C62  1  0.98802055  0.97082136  0.81714858  1  0  -0.112026  0  3.79599  0  0  -0.130368  0  4.056215  0  0  -0.13832  0  4.080416  0  0  -0.112384  -0.125231  0  4.039694  0
C  C63  1  0.15935494  0.24414390  0.14041945  1  0  -0.066283  0  3.767197  0  0  -0.088216  0  4.017121  0  0  -0.084737  0  4.038179  0  0  -0.083735  -0.090041  0  4.002517  0
C  C64  1  0.49261279  0.85963719  0.10338184  1  0  -0.066087  0  3.76617  0  0  -0.088278  0  4.016371  0  0  -0.084698  0  4.037401  0  0  -0.083572  -0.09017  0  4.001774  0
C  C65  1  0.82630509  0.89615835  0.75604540  1  0  -0.065589  0  3.766364  0  0  -0.087516  0  4.016114  0  0  -0.083922  0  4.037167  0  0  -0.083157  -0.089425  0  4.001525  0
N  N66  1  0.93560543  0.39083622  0.97205784  1  0  -0.3947  0  3.238873  0  0  -0.3143  0  3.527915  0  0  -0.335532  0  3.538716  0  0  -0.357957  -0.300108  0  3.520485  0
N  N67  1  0.26964264  0.02808851  0.41887789  1  0  -0.396584  0  3.24015  0  0  -0.316672  0  3.529975  0  0  -0.337938  0  3.540664  0  0  -0.358518  -0.30245  0  3.522603  0
N  N68  1  0.60302178  0.58091030  0.60918162  1  0  -0.396034  0  3.239799  0  0  -0.316017  0  3.52957  0  0  -0.337239  0  3.540286  0  0  -0.35801  -0.301843  0  3.522192  0
O  O69  1  0.81451265  0.41301322  0.77646590  1  0  -0.663826  0  2.137909  0  0  -0.574768  0  2.421419  0  0  -0.604991  0  2.403072  0  0  -0.312703  -0.553799  0  2.433417  0
O  O70  1  0.14825213  0.22382190  0.63673761  1  0  -0.663698  0  2.139963  0  0  -0.574172  0  2.421498  0  0  -0.604381  0  2.403279  0  0  -0.312527  -0.553211  0  2.433516  0
O  O71  1  0.48175115  0.36318352  0.58703092  1  0  -0.664371  0  2.139199  0  0  -0.574823  0  2.42182  0  0  -0.605114  0  2.403475  0  0  -0.312602  -0.553841  0  2.433824  0
O  O72  1  0.57876512  0.55467874  0.88572970  1  0  -0.608378  0  2.004048  0  0  -0.556479  0  2.238469  0  0  -0.580165  0  2.22809  0  0  -0.301542  -0.540089  0  2.24518  0
O  O73  1  0.91242081  0.11476990  0.66928829  1  0  -0.608805  0  2.004076  0  0  -0.557608  0  2.238278  0  0  -0.581234  0  2.227749  0  0  -0.302228  -0.541228  0  2.245032  0
O  O74  1  0.24620495  0.33063184  0.44532590  1  0  -0.608833  0  2.00381  0  0  -0.557186  0  2.238097  0  0  -0.580868  0  2.227707  0  0  -0.301753  -0.540808  0  2.244808  0
O  O75  1  0.32825348  0.29022670  0.87835311  1  0  -0.647016  0  2.121121  0  0  -0.561882  0  2.373063  0  0  -0.591878  0  2.364063  0  0  -0.33407  -0.540743  0  2.37853  0
O  O76  1  0.66211060  0.12159487  0.41141541  1  0  -0.647266  0  2.121684  0  0  -0.562373  0  2.373468  0  0  -0.592524  0  2.364565  0  0  -0.334176  -0.541173  0  2.378943  0
O  O77  1  0.99526891  0.58821242  0.71005846  1  0  -0.645997  0  2.122483  0  0  -0.561456  0  2.374664  0  0  -0.59139  0  2.365617  0  0  -0.333459  -0.540316  0  2.38016  0
O  O78  1  0.19778622  0.52648329  0.85222767  1  0  -0.850991  0  1.901491  0  0  -0.7819  0  2.117028  0  0  -0.805045  0  2.080175  0  0  -0.586361  -0.765616  0  2.142499  0
O  O79  1  0.53136984  0.14805754  0.67446988  1  0  -0.850531  0  1.90171  0  0  -0.781692  0  2.117055  0  0  -0.804886  0  2.080165  0  0  -0.586144  -0.765387  0  2.14253  0
O  O80  1  0.86520414  0.32545793  0.47369929  1  0  -0.850555  0  1.901504  0  0  -0.781934  0  2.116836  0  0  -0.805065  0  2.079946  0  0  -0.586219  -0.765659  0  2.142285  0
