# generated using pymatgen
data_InH25C11(SN)2
_symmetry_space_group_name_H-M   'P 1'
_cell_length_a   8.45958588
_cell_length_b   9.49289383
_cell_length_c   10.27324925
_cell_angle_alpha   77.56612197
_cell_angle_beta   69.70655344
_cell_angle_gamma   86.74405503
_symmetry_Int_Tables_number   1
_chemical_formula_structural   InH25C11(SN)2
_chemical_formula_sum   'In2 H50 C22 S4 N4'
_cell_volume   755.50073499
_cell_formula_units_Z   2
loop_
 _symmetry_equiv_pos_site_id
 _symmetry_equiv_pos_as_xyz
  1  'x, y, z'
loop_
 _atom_site_type_symbol
 _atom_site_label
 _atom_site_symmetry_multiplicity
 _atom_site_fract_x
 _atom_site_fract_y
 _atom_site_fract_z
 _atom_site_occupancy
 _atom_site_hle17_bader_spin_density
 _atom_site_hle17_ddec_charge
 _atom_site_hle17_ddec_spin_density
 _atom_site_hle17_ddec_sum_bond_order
 _atom_site_hle17_magmom
 _atom_site_hse06_10hf_bader_spin_density
 _atom_site_hse06_10hf_ddec_charge
 _atom_site_hse06_10hf_ddec_spin_density
 _atom_site_hse06_10hf_ddec_sum_bond_order
 _atom_site_hse06_10hf_magmom
 _atom_site_hse06_bader_spin_density
 _atom_site_hse06_ddec_charge
 _atom_site_hse06_ddec_spin_density
 _atom_site_hse06_ddec_sum_bond_order
 _atom_site_hse06_magmom
 _atom_site_pbe_bader_spin_density
 _atom_site_pbe_cm5_charge
 _atom_site_pbe_ddec_charge
 _atom_site_pbe_ddec_spin_density
 _atom_site_pbe_ddec_sum_bond_order
 _atom_site_pbe_magmom
In  In0  1  0.21468941  0.15199880  0.34079036  1  0  0.927425  0  2.310943  0  0  0.767573  0  2.750475  0  0  0.804527  0  2.737354  0  0  0.377797  0.742325  0  2.758349  0
In  In1  1  0.78530150  0.84801326  0.65921004  1  0  0.927434  0  2.310819  0  0  0.767534  0  2.750444  0  0  0.80446  0  2.737365  0  0  0.377713  0.742248  0  2.758362  0
H  H2  1  0.99307299  0.41619093  0.90481972  1  0  0.092408  0  0.944237  0  0  0.107813  0  1.018832  0  0  0.10904  0  1.018144  0  0  0.094484  0.106512  0  1.02009  0
H  H3  1  0.00694682  0.58379451  0.09516223  1  0  0.09221  0  0.944368  0  0  0.107645  0  1.018947  0  0  0.108873  0  1.018258  0  0  0.09441  0.106341  0  1.020209  0
H  H4  1  0.97590369  0.28456471  0.80814265  1  0  0.10052  0  0.95227  0  0  0.120523  0  1.017366  0  0  0.121788  0  1.016834  0  0  0.104891  0.119146  0  1.018827  0
H  H5  1  0.02410968  0.71540986  0.19184712  1  0  0.10048  0  0.952244  0  0  0.120465  0  1.017391  0  0  0.121732  0  1.016858  0  0  0.104906  0.119086  0  1.018858  0
H  H6  1  0.16558271  0.30184829  0.84296593  1  0  0.101866  0  0.945958  0  0  0.12175  0  1.009552  0  0  0.12328  0  1.008244  0  0  0.098509  0.120093  0  1.011684  0
H  H7  1  0.83442930  0.69812516  0.15703222  1  0  0.101746  0  0.945997  0  0  0.121618  0  1.009634  0  0  0.123149  0  1.008325  0  0  0.098439  0.11996  0  1.011764  0
H  H8  1  0.78407070  0.03065828  0.12169419  1  0  0.080926  0  0.950502  0  0  0.096561  0  1.011564  0  0  0.097823  0  1.011234  0  0  0.101798  0.095508  0  1.012143  0
H  H9  1  0.21592006  0.96933867  0.87831017  1  0  0.081006  0  0.950408  0  0  0.096613  0  1.01153  0  0  0.097886  0  1.011203  0  0  0.101799  0.095563  0  1.012112  0
H  H10  1  0.81199580  0.09540519  0.93900307  1  0  0.064969  0  0.970407  0  0  0.074738  0  1.046439  0  0  0.075293  0  1.046878  0  0  0.098069  0.074367  0  1.046253  0
H  H11  1  0.18799623  0.90458855  0.06099767  1  0  0.065015  0  0.970438  0  0  0.074804  0  1.046453  0  0  0.075364  0  1.046902  0  0  0.098117  0.074435  0  1.04627  0
H  H12  1  0.66629491  0.32378139  0.99342302  1  0  0.072579  0  0.941008  0  0  0.094263  0  0.997529  0  0  0.094474  0  0.999001  0  0  0.091863  0.094186  0  0.996385  0
H  H13  1  0.33370724  0.67621677  0.00657403  1  0  0.072572  0  0.941002  0  0  0.094221  0  0.997535  0  0  0.09443  0  0.999005  0  0  0.091852  0.094145  0  0.996393  0
H  H14  1  0.53785214  0.16978769  0.08869838  1  0  0.072132  0  0.974885  0  0  0.091044  0  1.039411  0  0  0.0914  0  1.040463  0  0  0.093437  0.090688  0  1.038829  0
H  H15  1  0.46214626  0.83021689  0.91130139  1  0  0.072195  0  0.974915  0  0  0.091081  0  1.03942  0  0  0.091437  0  1.040468  0  0  0.093455  0.090727  0  1.03884  0
H  H16  1  0.65069247  0.17499158  0.29345804  1  0  0.058546  0  0.969826  0  0  0.072333  0  1.039152  0  0  0.072947  0  1.039234  0  0  0.099158  0.071675  0  1.03952  0
H  H17  1  0.34930472  0.82501516  0.70653969  1  0  0.058585  0  0.969769  0  0  0.072378  0  1.039107  0  0  0.072998  0  1.039184  0  0  0.099155  0.071718  0  1.039477  0
H  H18  1  0.73191295  0.34950438  0.20185066  1  0  0.050891  0  0.925249  0  0  0.067977  0  0.987986  0  0  0.068401  0  0.988095  0  0  0.094587  0.067826  0  0.987794  0
H  H19  1  0.26808799  0.65049915  0.79814568  1  0  0.050938  0  0.925277  0  0  0.068043  0  0.988009  0  0  0.068466  0  0.988121  0  0  0.094609  0.067891  0  0.987819  0
H  H20  1  0.31943629  0.51331259  0.26691569  1  0  0.094755  0  0.941795  0  0  0.118799  0  0.999834  0  0  0.119349  0  1.000559  0  0  0.104009  0.118509  0  0.999166  0
H  H21  1  0.68056476  0.48669422  0.73307219  1  0  0.094775  0  0.941737  0  0  0.118884  0  0.999714  0  0  0.11944  0  1.000427  0  0  0.104021  0.118592  0  0.999045  0
H  H22  1  0.43389032  0.45747277  0.10649932  1  0  0.088597  0  0.981742  0  0  0.109032  0  1.048066  0  0  0.109741  0  1.0481  0  0  0.094152  0.108785  0  1.047647  0
H  H23  1  0.56611446  0.54253190  0.89349183  1  0  0.088538  0  0.981698  0  0  0.108961  0  1.048064  0  0  0.10967  0  1.048098  0  0  0.094085  0.108714  0  1.047642  0
H  H24  1  0.54212613  0.54810227  0.18725789  1  0  0.07812  0  0.955817  0  0  0.094346  0  1.030303  0  0  0.095918  0  1.02935  0  0  0.086089  0.091688  0  1.034112  0
H  H25  1  0.45787492  0.45190561  0.81273172  1  0  0.078054  0  0.955917  0  0  0.094281  0  1.030412  0  0  0.095859  0  1.029458  0  0  0.086067  0.091618  0  1.034226  0
H  H26  1  0.47261236  0.23897512  0.49496655  1  0  0.099928  0  0.955166  0  0  0.122123  0  1.014395  0  0  0.122836  0  1.015095  0  0  0.105112  0.121581  0  1.013957  0
H  H27  1  0.52738361  0.76103485  0.50502894  1  0  0.099972  0  0.955212  0  0  0.122125  0  1.01446  0  0  0.122836  0  1.015163  0  0  0.10514  0.121582  0  1.014019  0
H  H28  1  0.34356489  0.39362969  0.48441337  1  0  0.085652  0  0.979653  0  0  0.10483  0  1.044712  0  0  0.105975  0  1.044306  0  0  0.098602  0.104025  0  1.044959  0
H  H29  1  0.65643616  0.60637819  0.51557625  1  0  0.085641  0  0.979483  0  0  0.104793  0  1.044566  0  0  0.105938  0  1.04416  0  0  0.098664  0.104002  0  1.044798  0
H  H30  1  0.56795394  0.41440279  0.42084077  1  0  0.080314  0  0.949922  0  0  0.100415  0  1.016026  0  0  0.101324  0  1.016225  0  0  0.092743  0.099957  0  1.015774  0
H  H31  1  0.43204458  0.58561043  0.57915337  1  0  0.080288  0  0.950052  0  0  0.100342  0  1.016186  0  0  0.101252  0  1.016383  0  0  0.092746  0.099874  0  1.015947  0
H  H32  1  0.94970496  0.18586900  0.56789191  1  0  0.087814  0  1.047429  0  0  0.106699  0  1.106644  0  0  0.107768  0  1.109961  0  0  0.069017  0.105504  0  1.10551  0
H  H33  1  0.05029720  0.81413346  0.43210721  1  0  0.087807  0  1.047425  0  0  0.106674  0  1.106681  0  0  0.107739  0  1.110003  0  0  0.069002  0.105479  0  1.105547  0
H  H34  1  0.09679197  0.32312948  0.53854987  1  0  0.083644  0  1.029044  0  0  0.099608  0  1.092305  0  0  0.101152  0  1.09484  0  0  0.069471  0.098396  0  1.091069  0
H  H35  1  0.90321270  0.67687300  0.46145050  1  0  0.083614  0  1.029127  0  0  0.099638  0  1.092312  0  0  0.101185  0  1.094842  0  0  0.069482  0.098424  0  1.091076  0
H  H36  1  0.82629050  0.42279869  0.49596863  1  0  0.070216  0  0.966896  0  0  0.09593  0  1.026629  0  0  0.096525  0  1.026925  0  0  0.073378  0.09547  0  1.026198  0
H  H37  1  0.17371549  0.57720705  0.50402781  1  0  0.070301  0  0.966979  0  0  0.096031  0  1.026659  0  0  0.096634  0  1.026946  0  0  0.073418  0.095571  0  1.026228  0
H  H38  1  0.86932060  0.32558500  0.35861266  1  0  0.071235  0  0.998676  0  0  0.089358  0  1.07279  0  0  0.08956  0  1.074477  0  0  0.073434  0.089196  0  1.071462  0
H  H39  1  0.13068410  0.67441964  0.64138533  1  0  0.071223  0  0.998639  0  0  0.089321  0  1.072794  0  0  0.089523  0  1.07448  0  0  0.073408  0.089158  0  1.071467  0
H  H40  1  0.00574047  0.46840702  0.34027747  1  0  0.073341  0  0.976253  0  0  0.097792  0  1.038709  0  0  0.097864  0  1.040411  0  0  0.076207  0.097563  0  1.037966  0
H  H41  1  0.99426296  0.53159652  0.65972206  1  0  0.073373  0  0.976286  0  0  0.097824  0  1.038745  0  0  0.097896  0  1.040448  0  0  0.076212  0.0976  0  1.037996  0
H  H42  1  0.48603795  0.99622077  0.36998009  1  0  0.090996  0  1.009247  0  0  0.107921  0  1.069589  0  0  0.109945  0  1.071141  0  0  0.074082  0.106597  0  1.068459  0
H  H43  1  0.51394638  0.00378252  0.63004235  1  0  0.091105  0  1.009037  0  0  0.108013  0  1.069391  0  0  0.110041  0  1.070935  0  0  0.074126  0.106688  0  1.068266  0
H  H44  1  0.29725509  0.89565865  0.46631551  1  0  0.091722  0  1.02231  0  0  0.10714  0  1.086383  0  0  0.10875  0  1.088977  0  0  0.072623  0.106286  0  1.084024  0
H  H45  1  0.70272560  0.10435218  0.53369966  1  0  0.091752  0  1.022331  0  0  0.107148  0  1.086437  0  0  0.108758  0  1.089034  0  0  0.072664  0.106295  0  1.084075  0
H  H46  1  0.48619863  0.77949087  0.26386307  1  0  0.07287  0  0.959557  0  0  0.09761  0  1.020384  0  0  0.098104  0  1.021131  0  0  0.072603  0.095456  0  1.023016  0
H  H47  1  0.51379942  0.22050604  0.73616457  1  0  0.07284  0  0.959649  0  0  0.097627  0  1.020416  0  0  0.098118  0  1.021168  0  0  0.072623  0.095465  0  1.023057  0
H  H48  1  0.47265030  0.93617658  0.13979940  1  0  0.076987  0  0.970108  0  0  0.099615  0  1.035252  0  0  0.100158  0  1.03627  0  0  0.077349  0.099395  0  1.034167  0
H  H49  1  0.52735160  0.06381932  0.86022056  1  0  0.076974  0  0.970089  0  0  0.099584  0  1.035277  0  0  0.100133  0  1.036288  0  0  0.07728  0.099365  0  1.034191  0
H  H50  1  0.28954494  0.83024601  0.24430008  1  0  0.07762  0  0.97666  0  0  0.100821  0  1.03972  0  0  0.101503  0  1.040665  0  0  0.076968  0.100118  0  1.039599  0
H  H51  1  0.71045069  0.16974876  0.75571795  1  0  0.077577  0  0.976742  0  0  0.100772  0  1.039808  0  0  0.101453  0  1.040755  0  0  0.076939  0.100069  0  1.03968  0
C  C52  1  0.03827434  0.16991744  0.11418135  1  0  0.24217  0  3.791297  0  0  0.21343  0  4.08966  0  0  0.237187  0  4.099166  0  0  0.1315  0.197606  0  4.082545  0
C  C53  1  0.96172395  0.83007527  0.88582077  1  0  0.242329  0  3.791309  0  0  0.213444  0  4.089645  0  0  0.237193  0  4.099151  0  0  0.131503  0.19762  0  4.082528  0
C  C54  1  0.02770582  0.30678520  0.88597445  1  0  -0.169863  0  3.664606  0  0  -0.271532  0  3.914426  0  0  -0.267848  0  3.922338  0  0  -0.138713  -0.273821  0  3.909841  0
C  C55  1  0.97230251  0.69319362  0.11401882  1  0  -0.169368  0  3.664699  0  0  -0.271174  0  3.91444  0  0  -0.267493  0  3.922347  0  0  -0.138588  -0.273465  0  3.909862  0
C  C56  1  0.80090168  0.12819877  0.03805826  1  0  -0.003473  0  3.615703  0  0  -0.062944  0  3.868564  0  0  -0.059096  0  3.880508  0  0  -0.064685  -0.065515  0  3.860335  0
C  C57  1  0.19909664  0.87179611  0.96194245  1  0  -0.003566  0  3.615837  0  0  -0.063214  0  3.868691  0  0  -0.059412  0  3.880681  0  0  -0.064758  -0.065751  0  3.86039  0
C  C58  1  0.65137901  0.22800368  0.07924612  1  0  -0.146275  0  3.66585  0  0  -0.187508  0  3.914145  0  0  -0.189508  0  3.928372  0  0  -0.163011  -0.185651  0  3.903918  0
C  C59  1  0.34862318  0.77199879  0.92075105  1  0  -0.146348  0  3.665883  0  0  -0.187434  0  3.914085  0  0  -0.189416  0  3.928309  0  0  -0.163044  -0.185589  0  3.903882  0
C  C60  1  0.63139908  0.27048053  0.21891362  1  0  -0.014493  0  3.655449  0  0  -0.064786  0  3.90394  0  0  -0.062022  0  3.918255  0  0  -0.073008  -0.066605  0  3.894009  0
C  C61  1  0.36860186  0.72951978  0.78108140  1  0  -0.014605  0  3.655457  0  0  -0.064989  0  3.904006  0  0  -0.062222  0  3.918288  0  0  -0.073019  -0.066804  0  3.894081  0
C  C62  1  0.43970759  0.46978707  0.20826842  1  0  -0.183414  0  3.680096  0  0  -0.280101  0  3.93189  0  0  -0.278037  0  3.942185  0  0  -0.147878  -0.281234  0  3.925725  0
C  C63  1  0.56029596  0.53021867  0.79172092  1  0  -0.183318  0  3.679944  0  0  -0.280034  0  3.93164  0  0  -0.277977  0  3.941937  0  0  -0.147808  -0.281161  0  3.925471  0
C  C64  1  0.46223583  0.34506980  0.43037205  1  0  -0.191039  0  3.684224  0  0  -0.283437  0  3.930161  0  0  -0.281611  0  3.940499  0  0  -0.144855  -0.284568  0  3.92273  0
C  C65  1  0.53776270  0.65493913  0.56961904  1  0  -0.190943  0  3.684072  0  0  -0.283248  0  3.930096  0  0  -0.28142  0  3.940426  0  0  -0.144885  -0.284381  0  3.922656  0
C  C66  1  0.03172375  0.27051239  0.48562594  1  0  -0.467741  0  3.666987  0  0  -0.462114  0  3.92296  0  0  -0.477039  0  3.944176  0  0  -0.281414  -0.451882  0  3.908848  0
C  C67  1  0.96828091  0.72949008  0.51437443  1  0  -0.467667  0  3.667018  0  0  -0.462073  0  3.922969  0  0  -0.476996  0  3.944184  0  0  -0.281367  -0.451836  0  3.908852  0
C  C68  1  0.92839148  0.37733650  0.41660440  1  0  -0.217921  0  3.811015  0  0  -0.290627  0  4.051392  0  0  -0.290961  0  4.067792  0  0  -0.257423  -0.28984  0  4.039653  0
C  C69  1  0.07161445  0.62266491  0.58339486  1  0  -0.218065  0  3.811166  0  0  -0.290775  0  4.051552  0  0  -0.291113  0  4.067946  0  0  -0.25747  -0.28999  0  4.039809  0
C  C70  1  0.36906886  0.96066797  0.36163511  1  0  -0.467113  0  3.662946  0  0  -0.460302  0  3.92307  0  0  -0.474533  0  3.942503  0  0  -0.276798  -0.449329  0  3.908109  0
C  C71  1  0.63091301  0.03933854  0.63838447  1  0  -0.467226  0  3.663123  0  0  -0.46038  0  3.923272  0  0  -0.474611  0  3.942698  0  0  -0.276834  -0.449404  0  3.908301  0
C  C72  1  0.40647617  0.87276822  0.24674096  1  0  -0.217644  0  3.806378  0  0  -0.29034  0  4.046499  0  0  -0.290841  0  4.062585  0  0  -0.255636  -0.289726  0  4.036567  0
C  C73  1  0.59352200  0.12722767  0.75327419  1  0  -0.217557  0  3.806906  0  0  -0.290288  0  4.046977  0  0  -0.29079  0  4.063066  0  0  -0.255561  -0.289662  0  4.037038  0
S  S74  1  0.96537755  0.03904902  0.26555188  1  0  -0.43418  0  2.048582  0  0  -0.400727  0  2.379357  0  0  -0.415945  0  2.374835  0  0  -0.147614  -0.390816  0  2.382531  0
S  S75  1  0.03461318  0.96094899  0.73445618  1  0  -0.434199  0  2.048558  0  0  -0.400729  0  2.379368  0  0  -0.415946  0  2.37485  0  0  -0.147573  -0.390818  0  2.382543  0
S  S76  1  0.21673200  0.27036252  0.08359289  1  0  -0.415518  0  2.058672  0  0  -0.376695  0  2.396148  0  0  -0.391544  0  2.391493  0  0  -0.147932  -0.365948  0  2.4005  0
S  S77  1  0.78327262  0.72962705  0.91640223  1  0  -0.415593  0  2.058691  0  0  -0.37677  0  2.396225  0  0  -0.391612  0  2.391569  0  0  -0.147973  -0.366014  0  2.400574  0
N  N78  1  0.96209211  0.19668473  0.01589463  1  0  -0.095893  0  3.423632  0  0  0.006506  0  3.646771  0  0  -0.011678  0  3.671413  0  0  -0.268536  0.019367  0  3.629232  0
N  N79  1  0.03790744  0.80330478  0.98410484  1  0  -0.096135  0  3.423804  0  0  0.006698  0  3.646533  0  0  -0.011469  0  3.671179  0  0  -0.268477  0.019558  0  3.628998  0
N  N80  1  0.46621141  0.32923404  0.29009161  1  0  -0.163679  0  3.28325  0  0  -0.055408  0  3.511662  0  0  -0.071942  0  3.535782  0  0  -0.334427  -0.04287  0  3.494709  0
N  N81  1  0.53378833  0.67077381  0.70990227  1  0  -0.163749  0  3.283227  0  0  -0.05548  0  3.511694  0  0  -0.072018  0  3.535832  0  0  -0.334476  -0.042933  0  3.494722  0
