# generated using pymatgen
data_ZnH10C16(SN)4
_symmetry_space_group_name_H-M   'P 1'
_cell_length_a   6.83757930
_cell_length_b   13.56749651
_cell_length_c   19.70283023
_cell_angle_alpha   97.73294684
_cell_angle_beta   89.98739326
_cell_angle_gamma   104.56324989
_symmetry_Int_Tables_number   1
_chemical_formula_structural   ZnH10C16(SN)4
_chemical_formula_sum   'Zn4 H40 C64 S16 N16'
_cell_volume   1751.91720616
_cell_formula_units_Z   4
loop_
 _symmetry_equiv_pos_site_id
 _symmetry_equiv_pos_as_xyz
  1  'x, y, z'
loop_
 _atom_site_type_symbol
 _atom_site_label
 _atom_site_symmetry_multiplicity
 _atom_site_fract_x
 _atom_site_fract_y
 _atom_site_fract_z
 _atom_site_occupancy
 _atom_site_hle17_bader_spin_density
 _atom_site_hle17_ddec_charge
 _atom_site_hle17_ddec_spin_density
 _atom_site_hle17_ddec_sum_bond_order
 _atom_site_hle17_magmom
 _atom_site_hse06_10hf_bader_spin_density
 _atom_site_hse06_10hf_ddec_charge
 _atom_site_hse06_10hf_ddec_spin_density
 _atom_site_hse06_10hf_ddec_sum_bond_order
 _atom_site_hse06_10hf_magmom
 _atom_site_hse06_bader_spin_density
 _atom_site_hse06_ddec_charge
 _atom_site_hse06_ddec_spin_density
 _atom_site_hse06_ddec_sum_bond_order
 _atom_site_hse06_magmom
 _atom_site_pbe_bader_spin_density
 _atom_site_pbe_cm5_charge
 _atom_site_pbe_ddec_charge
 _atom_site_pbe_ddec_spin_density
 _atom_site_pbe_ddec_sum_bond_order
 _atom_site_pbe_magmom
Zn  Zn0  1  0.75784935  0.47692349  0.96372730  1  0  0.716753  0  2.170392  0  0  0.556786  0  2.609418  0  0  0.593087  0  2.576026  0  0  0.54196  0.531819  0  2.632282  0
Zn  Zn1  1  0.28077636  0.52291359  0.53638603  1  0  0.715809  0  2.170557  0  0  0.555107  0  2.609318  0  0  0.591569  0  2.576033  0  0  0.541037  0.530042  0  2.632106  0
Zn  Zn2  1  0.24215948  0.52305992  0.03627068  1  0  0.71669  0  2.170382  0  0  0.556737  0  2.609423  0  0  0.593041  0  2.576029  0  0  0.541953  0.53177  0  2.632291  0
Zn  Zn3  1  0.71921811  0.47709671  0.46361572  1  0  0.715853  0  2.170531  0  0  0.555159  0  2.609243  0  0  0.591621  0  2.575959  0  0  0.54106  0.530092  0  2.632032  0
H  H4  1  0.28579470  0.05507185  0.01724665  1  0  0.108178  0  0.942227  0  0  0.121976  0  0.99898  0  0  0.124214  0  0.99832  0  0  0.106872  0.12034  0  0.999508  0
H  H5  1  0.23084188  0.94501657  0.48215194  1  0  0.108473  0  0.941676  0  0  0.122193  0  0.998516  0  0  0.124597  0  0.997656  0  0  0.106688  0.120473  0  0.999142  0
H  H6  1  0.71418213  0.94491776  0.98274994  1  0  0.108131  0  0.942201  0  0  0.121964  0  0.99889  0  0  0.124202  0  0.998231  0  0  0.106872  0.120305  0  0.999445  0
H  H7  1  0.76918944  0.05498260  0.51786440  1  0  0.108468  0  0.941616  0  0  0.122234  0  0.998412  0  0  0.124552  0  0.997664  0  0  0.106703  0.120509  0  0.999045  0
H  H8  1  0.30328067  0.91566186  0.06597689  1  0  0.118706  0  0.944806  0  0  0.131788  0  0.997959  0  0  0.135501  0  0.997458  0  0  0.10967  0.129117  0  0.998596  0
H  H9  1  0.38781321  0.08458929  0.43346289  1  0  0.118809  0  0.944753  0  0  0.132052  0  0.997726  0  0  0.135704  0  0.997311  0  0  0.109366  0.129458  0  0.998233  0
H  H10  1  0.69669780  0.08432226  0.93402369  1  0  0.118737  0  0.944918  0  0  0.131775  0  0.998117  0  0  0.135509  0  0.997593  0  0  0.109675  0.129106  0  0.998751  0
H  H11  1  0.61218663  0.91541714  0.56653998  1  0  0.118692  0  0.944747  0  0  0.131942  0  0.997734  0  0  0.1356  0  0.997309  0  0  0.109305  0.12934  0  0.998237  0
H  H12  1  0.83968274  0.64442176  0.35160585  1  0  0.106441  0  0.989237  0  0  0.113265  0  1.060679  0  0  0.115847  0  1.05868  0  0  0.09675  0.111326  0  1.06223  0
H  H13  1  0.19591010  0.35587043  0.14839089  1  0  0.106405  0  0.989883  0  0  0.113993  0  1.060555  0  0  0.116589  0  1.058561  0  0  0.097248  0.112027  0  1.06209  0
H  H14  1  0.16032201  0.35559156  0.64839874  1  0  0.106603  0  0.989339  0  0  0.113412  0  1.06077  0  0  0.115993  0  1.058773  0  0  0.096791  0.111468  0  1.062329  0
H  H15  1  0.80408737  0.64412833  0.85161018  1  0  0.106434  0  0.989866  0  0  0.11405  0  1.060498  0  0  0.116643  0  1.058509  0  0  0.097269  0.112069  0  1.062047  0
H  H16  1  0.19221297  0.74400321  0.40951191  1  0  0.113593  0  0.953651  0  0  0.124466  0  1.011287  0  0  0.12663  0  1.011963  0  0  0.098471  0.122905  0  1.010939  0
H  H17  1  0.44829501  0.25592452  0.09020560  1  0  0.113235  0  0.954218  0  0  0.124355  0  1.01156  0  0  0.126436  0  1.012355  0  0  0.098193  0.122816  0  1.011186  0
H  H18  1  0.80779298  0.25601251  0.59048887  1  0  0.113536  0  0.953777  0  0  0.124426  0  1.011384  0  0  0.12659  0  1.012059  0  0  0.098485  0.122865  0  1.011036  0
H  H19  1  0.55171627  0.74407260  0.90979936  1  0  0.113381  0  0.954123  0  0  0.124483  0  1.011477  0  0  0.126567  0  1.012264  0  0  0.098234  0.122928  0  1.011125  0
H  H20  1  0.06941521  0.08002826  0.81407129  1  0  0.114744  0  0.985477  0  0  0.117874  0  1.057867  0  0  0.120956  0  1.056083  0  0  0.095436  0.115693  0  1.059074  0
H  H21  1  0.99179369  0.91973662  0.68564557  1  0  0.115592  0  0.983731  0  0  0.118796  0  1.05573  0  0  0.122  0  1.053811  0  0  0.095905  0.11651  0  1.057065  0
H  H22  1  0.93057962  0.91996519  0.18592569  1  0  0.114772  0  0.985361  0  0  0.117916  0  1.057733  0  0  0.120996  0  1.055947  0  0  0.095491  0.115738  0  1.058943  0
H  H23  1  0.00818544  0.08029276  0.31436473  1  0  0.115517  0  0.983587  0  0  0.118627  0  1.055715  0  0  0.12183  0  1.053794  0  0  0.095833  0.116341  0  1.057056  0
H  H24  1  0.21357093  0.18050280  0.93553518  1  0  0.110404  0  0.997582  0  0  0.116149  0  1.066089  0  0  0.118961  0  1.065923  0  0  0.090521  0.114121  0  1.066302  0
H  H25  1  0.03387876  0.81945725  0.56391255  1  0  0.110509  0  0.996822  0  0  0.11557  0  1.066102  0  0  0.118403  0  1.065875  0  0  0.090051  0.113506  0  1.066396  0
H  H26  1  0.78640841  0.81948598  0.06446385  1  0  0.11047  0  0.99734  0  0  0.116186  0  1.065897  0  0  0.118998  0  1.06573  0  0  0.090589  0.114157  0  1.066113  0
H  H27  1  0.96613199  0.18055345  0.43610548  1  0  0.110421  0  0.997063  0  0  0.115467  0  1.06634  0  0  0.118296  0  1.066126  0  0  0.089987  0.113404  0  1.066633  0
H  H28  1  0.42857687  0.84817746  0.32196630  1  0  0.110042  0  1.004395  0  0  0.113603  0  1.076251  0  0  0.116708  0  1.074567  0  0  0.094224  0.111391  0  1.077417  0
H  H29  1  0.58048335  0.15147637  0.17759238  1  0  0.111068  0  1.003386  0  0  0.114749  0  1.074994  0  0  0.117896  0  1.073272  0  0  0.095077  0.11252  0  1.076159  0
H  H30  1  0.57142543  0.15182215  0.67803080  1  0  0.110037  0  1.004426  0  0  0.113581  0  1.076297  0  0  0.116686  0  1.074614  0  0  0.094222  0.11137  0  1.077461  0
H  H31  1  0.41951106  0.84852211  0.82242084  1  0  0.111074  0  1.003396  0  0  0.114755  0  1.07501  0  0  0.117903  0  1.073289  0  0  0.095057  0.112524  0  1.076173  0
H  H32  1  0.27472168  0.53718359  0.19695611  1  0  0.076568  0  0.946237  0  0  0.087312  0  1.010197  0  0  0.08925  0  1.008419  0  0  0.111597  0.085855  0  1.011501  0
H  H33  1  0.73789928  0.46283857  0.30302898  1  0  0.07596  0  0.945854  0  0  0.08688  0  1.009549  0  0  0.088915  0  1.007671  0  0  0.111356  0.085373  0  1.010891  0
H  H34  1  0.72529615  0.46280907  0.80304179  1  0  0.076572  0  0.946201  0  0  0.087297  0  1.010179  0  0  0.08923  0  1.008408  0  0  0.111573  0.085838  0  1.011491  0
H  H35  1  0.26210231  0.53717720  0.69696926  1  0  0.075963  0  0.945894  0  0  0.086863  0  1.009609  0  0  0.088896  0  1.007733  0  0  0.111317  0.085355  0  1.010954  0
H  H36  1  0.55425710  0.60809793  0.28660459  1  0  0.118744  0  1.001812  0  0  0.123257  0  1.072432  0  0  0.127725  0  1.070698  0  0  0.094184  0.12004  0  1.073889  0
H  H37  1  0.94642465  0.39165310  0.21332551  1  0  0.119314  0  1.001125  0  0  0.123975  0  1.071468  0  0  0.128497  0  1.069582  0  0  0.094531  0.120724  0  1.073004  0
H  H38  1  0.44574760  0.39189772  0.71339718  1  0  0.118805  0  1.001779  0  0  0.123299  0  1.072411  0  0  0.127776  0  1.070649  0  0  0.094208  0.120081  0  1.073871  0
H  H39  1  0.05360758  0.60837424  0.78667239  1  0  0.119393  0  1.001091  0  0  0.124134  0  1.071345  0  0  0.128656  0  1.069463  0  0  0.094621  0.120878  0  1.072891  0
H  H40  1  0.33174278  0.75087206  0.10464231  1  0  0.07019  0  0.953972  0  0  0.078654  0  1.021696  0  0  0.080826  0  1.019092  0  0  0.109692  0.07703  0  1.023608  0
H  H41  1  0.58098214  0.24956072  0.39503189  1  0  0.069314  0  0.954941  0  0  0.078138  0  1.02257  0  0  0.080222  0  1.020011  0  0  0.109815  0.076598  0  1.024432  0
H  H42  1  0.66824503  0.24910148  0.89534907  1  0  0.070241  0  0.954051  0  0  0.078781  0  1.021667  0  0  0.080947  0  1.019075  0  0  0.109743  0.077159  0  1.023581  0
H  H43  1  0.41901944  0.75044039  0.60496739  1  0  0.069274  0  0.95491  0  0  0.078085  0  1.022547  0  0  0.080172  0  1.019986  0  0  0.109789  0.076543  0  1.024413  0
C  C44  1  0.13888560  0.66093030  0.94889575  1  0  0.418904  0  3.818694  0  0  0.395228  0  4.095764  0  0  0.416127  0  4.106676  0  0  0.231249  0.380973  0  4.088516  0
C  C45  1  0.47840529  0.33901199  0.55095637  1  0  0.418708  0  3.82059  0  0  0.395832  0  4.095736  0  0  0.416856  0  4.106576  0  0  0.230415  0.381505  0  4.088492  0
C  C46  1  0.86111085  0.33905175  0.05109396  1  0  0.419041  0  3.818873  0  0  0.395361  0  4.095883  0  0  0.416263  0  4.106782  0  0  0.231267  0.381105  0  4.088639  0
C  C47  1  0.52160096  0.66099846  0.44903879  1  0  0.418653  0  3.820405  0  0  0.395621  0  4.095812  0  0  0.416644  0  4.106653  0  0  0.23037  0.381289  0  4.088593  0
C  C48  1  0.22768901  0.03029016  0.96463430  1  0  -0.091937  0  3.746827  0  0  -0.119185  0  4.00337  0  0  -0.117675  0  4.023317  0  0  -0.09595  -0.119751  0  3.989413  0
C  C49  1  0.19803530  0.96967776  0.53486148  1  0  -0.093521  0  3.748736  0  0  -0.120802  0  4.005297  0  0  -0.119427  0  4.025209  0  0  -0.096254  -0.121272  0  3.991352  0
C  C50  1  0.77229756  0.96969553  0.03536492  1  0  -0.091731  0  3.746262  0  0  -0.118953  0  4.002782  0  0  -0.117456  0  4.022754  0  0  -0.095823  -0.119496  0  3.988818  0
C  C51  1  0.80198636  0.03032843  0.46515152  1  0  -0.093659  0  3.748704  0  0  -0.120933  0  4.00536  0  0  -0.119487  0  4.025294  0  0  -0.096396  -0.121399  0  3.991409  0
C  C52  1  0.64811646  0.62468425  0.09743990  1  0  0.423208  0  3.788127  0  0  0.401166  0  4.063892  0  0  0.421705  0  4.074788  0  0  0.231028  0.387219  0  4.056309  0
C  C53  1  0.02399420  0.37535952  0.40250110  1  0  0.422486  0  3.790237  0  0  0.400348  0  4.065974  0  0  0.421022  0  4.076745  0  0  0.229562  0.386336  0  4.058438  0
C  C54  1  0.35190101  0.37530767  0.90255641  1  0  0.423169  0  3.788206  0  0  0.401075  0  4.064003  0  0  0.421591  0  4.074977  0  0  0.231057  0.387161  0  4.056371  0
C  C55  1  0.97599685  0.62464392  0.59749690  1  0  0.422658  0  3.789702  0  0  0.400415  0  4.065614  0  0  0.42109  0  4.076383  0  0  0.229555  0.386404  0  4.058081  0
C  C56  1  0.77346817  0.66036418  0.20937804  1  0  0.281745  0  3.799635  0  0  0.27613  0  4.045265  0  0  0.290898  0  4.060507  0  0  0.128399  0.266372  0  4.034871  0
C  C57  1  0.11373976  0.33963409  0.29055506  1  0  0.28193  0  3.801574  0  0  0.27652  0  4.046589  0  0  0.291262  0  4.061925  0  0  0.128004  0.266867  0  4.036049  0
C  C58  1  0.22654126  0.33962921  0.79062146  1  0  0.28181  0  3.799535  0  0  0.276207  0  4.045137  0  0  0.290983  0  4.060373  0  0  0.12848  0.266447  0  4.034746  0
C  C59  1  0.88624098  0.66036630  0.70944212  1  0  0.28188  0  3.801722  0  0  0.276514  0  4.046704  0  0  0.291253  0  4.062047  0  0  0.128056  0.266866  0  4.036161  0
C  C60  1  0.17880949  0.92831235  0.93426522  1  0  -0.093253  0  3.755828  0  0  -0.075956  0  4.012256  0  0  -0.081178  0  4.034686  0  0  -0.02259  -0.072499  0  3.996948  0
C  C61  1  0.25149639  0.07158151  0.56530759  1  0  -0.094341  0  3.758005  0  0  -0.076956  0  4.014642  0  0  -0.082224  0  4.037089  0  0  -0.023283  -0.073523  0  3.999339  0
C  C62  1  0.82118481  0.07167419  0.06573054  1  0  -0.093421  0  3.755574  0  0  -0.076162  0  4.012073  0  0  -0.081388  0  4.034499  0  0  -0.022637  -0.072687  0  3.996762  0
C  C63  1  0.74850985  0.92843481  0.43470086  1  0  -0.093832  0  3.757723  0  0  -0.076617  0  4.01454  0  0  -0.081894  0  4.036979  0  0  -0.023029  -0.073186  0  3.999235  0
C  C64  1  0.94481117  0.70330032  0.25688680  1  0  -0.095609  0  3.767795  0  0  -0.079105  0  4.027855  0  0  -0.084829  0  4.051001  0  0  -0.026115  -0.075341  0  4.012055  0
C  C65  1  0.24227440  0.29674976  0.24299878  1  0  -0.096533  0  3.769245  0  0  -0.080165  0  4.02938  0  0  -0.085969  0  4.052708  0  0  -0.025207  -0.076417  0  4.01351  0
C  C66  1  0.05519303  0.29670311  0.74311170  1  0  -0.095768  0  3.767954  0  0  -0.079232  0  4.027974  0  0  -0.084973  0  4.051141  0  0  -0.026167  -0.07547  0  4.012173  0
C  C67  1  0.75771731  0.70325207  0.75700260  1  0  -0.096577  0  3.769279  0  0  -0.080227  0  4.029433  0  0  -0.086027  0  4.052759  0  0  -0.025309  -0.076485  0  4.01357  0
C  C68  1  0.19054520  0.83751633  0.96358811  1  0  0.281781  0  3.80322  0  0  0.275713  0  4.049682  0  0  0.29107  0  4.063895  0  0  0.129442  0.26554  0  4.04001  0
C  C69  1  0.35378306  0.16243524  0.53601110  1  0  0.282852  0  3.801581  0  0  0.276367  0  4.048751  0  0  0.291856  0  4.062772  0  0  0.130018  0.26619  0  4.039091  0
C  C70  1  0.80944033  0.16247021  0.03640765  1  0  0.281777  0  3.803334  0  0  0.275706  0  4.049819  0  0  0.291076  0  4.06402  0  0  0.129363  0.265495  0  4.040201  0
C  C71  1  0.64622162  0.83757501  0.46399317  1  0  0.28282  0  3.801622  0  0  0.276387  0  4.048779  0  0  0.29188  0  4.062804  0  0  0.130048  0.26621  0  4.039119  0
C  C72  1  0.25960173  0.84337890  0.03174334  1  0  -0.220802  0  3.692498  0  0  -0.235783  0  3.944017  0  0  -0.248148  0  3.962933  0  0  -0.091362  -0.228126  0  3.931699  0
C  C73  1  0.41646365  0.15677903  0.46779147  1  0  -0.221378  0  3.693431  0  0  -0.236601  0  3.9459  0  0  -0.248928  0  3.96475  0  0  -0.091362  -0.228929  0  3.933486  0
C  C74  1  0.74038296  0.15660303  0.96825195  1  0  -0.220678  0  3.692766  0  0  -0.235634  0  3.944321  0  0  -0.248024  0  3.963226  0  0  -0.091243  -0.227967  0  3.932015  0
C  C75  1  0.58354390  0.84322819  0.53221047  1  0  -0.221328  0  3.693615  0  0  -0.236562  0  3.946037  0  0  -0.248898  0  3.964903  0  0  -0.09139  -0.228878  0  3.933607  0
C  C76  1  0.96171652  0.69058262  0.32513737  1  0  -0.084519  0  3.737311  0  0  -0.113819  0  3.996494  0  0  -0.11163  0  4.014673  0  0  -0.096395  -0.114859  0  3.983869  0
C  C77  1  0.27172528  0.30955074  0.17475771  1  0  -0.084768  0  3.738218  0  0  -0.114829  0  3.997623  0  0  -0.112616  0  4.01572  0  0  -0.097889  -0.115839  0  3.985051  0
C  C78  1  0.03828998  0.30942541  0.67486262  1  0  -0.084757  0  3.737645  0  0  -0.114033  0  3.996755  0  0  -0.111842  0  4.014938  0  0  -0.0965  -0.115073  0  3.984134  0
C  C79  1  0.72828022  0.69044651  0.82524168  1  0  -0.084667  0  3.738173  0  0  -0.114729  0  3.997527  0  0  -0.112519  0  4.015632  0  0  -0.097849  -0.115724  0  3.984963  0
C  C80  1  0.15075306  0.74544718  0.35642391  1  0  -0.077726  0  3.771826  0  0  -0.094817  0  4.030824  0  0  -0.098853  0  4.05239  0  0  -0.111029  -0.092181  0  4.016049  0
C  C81  1  0.40568546  0.25457967  0.14333300  1  0  -0.076789  0  3.772445  0  0  -0.094063  0  4.031554  0  0  -0.098037  0  4.053195  0  0  -0.110208  -0.09143  0  4.016704  0
C  C82  1  0.84925315  0.25456319  0.64357480  1  0  -0.077717  0  3.771968  0  0  -0.094835  0  4.030951  0  0  -0.098869  0  4.052515  0  0  -0.111117  -0.092199  0  4.016176  0
C  C83  1  0.59431082  0.74541669  0.85667189  1  0  -0.077142  0  3.772581  0  0  -0.094415  0  4.031701  0  0  -0.098392  0  4.053339  0  0  -0.110344  -0.091768  0  4.016856  0
C  C84  1  0.11423017  0.04699224  0.85702227  1  0  -0.17261  0  3.714899  0  0  -0.188177  0  3.993451  0  0  -0.187671  0  4.011505  0  0  -0.104767  -0.188078  0  3.98082  0
C  C85  1  0.06920049  0.95284931  0.64265660  1  0  -0.172423  0  3.713592  0  0  -0.187845  0  3.991656  0  0  -0.187437  0  4.009556  0  0  -0.104307  -0.187733  0  3.979178  0
C  C86  1  0.88576912  0.95300428  0.14297552  1  0  -0.172599  0  3.714895  0  0  -0.188165  0  3.993461  0  0  -0.187656  0  4.01151  0  0  -0.104802  -0.188073  0  3.980839  0
C  C87  1  0.93080004  0.04717313  0.35735349  1  0  -0.172296  0  3.713016  0  0  -0.18762  0  3.991047  0  0  -0.187209  0  4.008954  0  0  -0.104375  -0.187507  0  3.978567  0
C  C88  1  0.19025686  0.09806472  0.92062124  1  0  -0.085589  0  3.79397  0  0  -0.102016  0  4.04984  0  0  -0.107005  0  4.073021  0  0  -0.113867  -0.098633  0  4.033824  0
C  C89  1  0.09328393  0.90186486  0.57892163  1  0  -0.083957  0  3.792521  0  0  -0.099711  0  4.04823  0  0  -0.104716  0  4.071552  0  0  -0.112606  -0.09633  0  4.03215  0
C  C90  1  0.80972868  0.90192477  0.07938040  1  0  -0.085707  0  3.793547  0  0  -0.102157  0  4.049504  0  0  -0.107147  0  4.072684  0  0  -0.114011  -0.098771  0  4.033481  0
C  C91  1  0.90672333  0.09815055  0.42109282  1  0  -0.083944  0  3.792497  0  0  -0.099685  0  4.048192  0  0  -0.104684  0  4.071485  0  0  -0.112487  -0.096303  0  4.032109  0
C  C92  1  0.27535062  0.80036919  0.31201965  1  0  -0.162531  0  3.719732  0  0  -0.179274  0  4.000443  0  0  -0.178867  0  4.018517  0  0  -0.10285  -0.179063  0  3.987755  0
C  C93  1  0.47529179  0.19944512  0.18761348  1  0  -0.163615  0  3.719163  0  0  -0.180437  0  3.999977  0  0  -0.180037  0  4.017844  0  0  -0.103722  -0.180235  0  3.987416  0
C  C94  1  0.72465721  0.19963273  0.68797769  1  0  -0.162454  0  3.719754  0  0  -0.179184  0  4.000479  0  0  -0.178777  0  4.018558  0  0  -0.102757  -0.178973  0  3.987788  0
C  C95  1  0.52470452  0.80055424  0.81239476  1  0  -0.163591  0  3.719386  0  0  -0.180391  0  4.000134  0  0  -0.17999  0  4.017998  0  0  -0.103685  -0.180191  0  3.98758  0
C  C96  1  0.42847112  0.57337885  0.18349502  1  0  0.181687  0  3.712924  0  0  0.146004  0  3.963282  0  0  0.158328  0  3.978936  0  0  0.051788  0.138071  0  3.95257  0
C  C97  1  0.85555627  0.42662365  0.31644484  1  0  0.18171  0  3.714042  0  0  0.145636  0  3.964536  0  0  0.157941  0  3.980266  0  0  0.051857  0.137723  0  3.953773  0
C  C98  1  0.57153842  0.42661770  0.81650075  1  0  0.181784  0  3.71336  0  0  0.146124  0  3.963656  0  0  0.158455  0  3.979338  0  0  0.051911  0.138189  0  3.952943  0
C  C99  1  0.14445618  0.57338751  0.68355293  1  0  0.181612  0  3.713823  0  0  0.14555  0  3.964348  0  0  0.157853  0  3.980078  0  0  0.051821  0.137641  0  3.95359  0
C  C100  1  0.58239710  0.61272871  0.23252691  1  0  -0.217011  0  3.675251  0  0  -0.230846  0  3.92086  0  0  -0.243453  0  3.94025  0  0  -0.095499  -0.222969  0  3.90824  0
C  C101  1  0.97008264  0.38717252  0.26741783  1  0  -0.217012  0  3.678022  0  0  -0.231027  0  3.923494  0  0  -0.243618  0  3.942943  0  0  -0.095311  -0.223172  0  3.910812  0
C  C102  1  0.41761707  0.38726540  0.76747521  1  0  -0.216987  0  3.675495  0  0  -0.23081  0  3.921126  0  0  -0.243421  0  3.94053  0  0  -0.095555  -0.222931  0  3.908501  0
C  C103  1  0.02991430  0.61283395  0.73258302  1  0  -0.217068  0  3.677936  0  0  -0.231177  0  3.923372  0  0  -0.243772  0  3.942831  0  0  -0.095398  -0.22332  0  3.910688  0
C  C104  1  0.27325062  0.75271290  0.05355232  1  0  0.201298  0  3.703182  0  0  0.157812  0  3.966224  0  0  0.171922  0  3.978654  0  0  0.056895  0.148676  0  3.957856  0
C  C105  1  0.52071106  0.24754036  0.44612732  1  0  0.202434  0  3.704704  0  0  0.157962  0  3.96834  0  0  0.172223  0  3.980818  0  0  0.056166  0.148679  0  3.959916  0
C  C106  1  0.72673511  0.24726524  0.94644004  1  0  0.201134  0  3.703551  0  0  0.157553  0  3.966566  0  0  0.171656  0  3.979023  0  0  0.056698  0.148412  0  3.958198  0
C  C107  1  0.47929276  0.75246231  0.55387110  1  0  0.202424  0  3.704832  0  0  0.158015  0  3.968451  0  0  0.172277  0  3.980929  0  0  0.056196  0.148733  0  3.960031  0
S  S108  1  0.05568717  0.53989056  0.90126442  1  0  -0.428299  0  2.130706  0  0  -0.396289  0  2.488111  0  0  -0.413905  0  2.477934  0  0  -0.181907  -0.383288  0  2.494728  0
S  S109  1  0.51570046  0.45991214  0.59878359  1  0  -0.427995  0  2.129637  0  0  -0.396161  0  2.486019  0  0  -0.413797  0  2.475844  0  0  -0.181768  -0.383217  0  2.492738  0
S  S110  1  0.94430568  0.46009308  0.09872343  1  0  -0.428423  0  2.130518  0  0  -0.396379  0  2.487827  0  0  -0.414011  0  2.477688  0  0  -0.182014  -0.383384  0  2.494455  0
S  S111  1  0.48429994  0.54009832  0.40121056  1  0  -0.427936  0  2.129549  0  0  -0.396015  0  2.485921  0  0  -0.413648  0  2.475749  0  0  -0.181731  -0.383092  0  2.492675  0
S  S112  1  0.68092400  0.63038313  0.01016953  1  0  -0.448346  0  2.183905  0  0  -0.417033  0  2.554516  0  0  -0.435502  0  2.545864  0  0  -0.199285  -0.403518  0  2.560246  0
S  S113  1  0.05087919  0.36960279  0.48976758  1  0  -0.448404  0  2.184896  0  0  -0.416764  0  2.555019  0  0  -0.435409  0  2.546546  0  0  -0.19915  -0.403107  0  2.56061  0
S  S114  1  0.31908932  0.36960343  0.98982522  1  0  -0.448286  0  2.183945  0  0  -0.416967  0  2.554601  0  0  -0.435432  0  2.545957  0  0  -0.199277  -0.403452  0  2.560296  0
S  S115  1  0.94911795  0.63040992  0.51022984  1  0  -0.448469  0  2.184841  0  0  -0.416814  0  2.55506  0  0  -0.435449  0  2.546561  0  0  -0.199122  -0.403159  0  2.560651  0
S  S116  1  0.16436082  0.78409992  0.23206109  1  0  0.124341  0  2.650454  0  0  0.13353  0  2.974478  0  0  0.130973  0  2.981667  0  0  0.083774  0.135015  0  2.969588  0
S  S117  1  0.38078911  0.21568777  0.26764125  1  0  0.124577  0  2.649354  0  0  0.133741  0  2.973334  0  0  0.131182  0  2.980563  0  0  0.083314  0.135238  0  2.96843  0
S  S118  1  0.83565457  0.21589664  0.76793468  1  0  0.124478  0  2.650465  0  0  0.133649  0  2.974486  0  0  0.131093  0  2.981687  0  0  0.083828  0.135133  0  2.969595  0
S  S119  1  0.61919605  0.78431855  0.73236618  1  0  0.124595  0  2.649367  0  0  0.13375  0  2.973338  0  0  0.131189  0  2.980566  0  0  0.08335  0.13525  0  2.968437  0
S  S120  1  0.08524425  0.91715423  0.85094940  1  0  0.150431  0  2.703084  0  0  0.158179  0  3.034134  0  0  0.155334  0  3.044064  0  0  0.097611  0.159772  0  3.027401  0
S  S121  1  0.16998014  0.08267135  0.64877312  1  0  0.149964  0  2.702273  0  0  0.1578  0  3.033016  0  0  0.15493  0  3.042958  0  0  0.097046  0.159402  0  3.026309  0
S  S122  1  0.91475793  0.08283931  0.14904353  1  0  0.150441  0  2.703258  0  0  0.158203  0  3.034296  0  0  0.155361  0  3.044224  0  0  0.097625  0.159795  0  3.027562  0
S  S123  1  0.83000968  0.91734428  0.35123120  1  0  0.149625  0  2.701969  0  0  0.1575  0  3.032703  0  0  0.154634  0  3.04265  0  0  0.096953  0.159104  0  3.025998  0
N  N124  1  0.13153304  0.74605634  0.92279298  1  0  -0.416997  0  3.004898  0  0  -0.377726  0  3.270723  0  0  -0.395335  0  3.281705  0  0  -0.314389  -0.36591  0  3.263327  0
N  N125  1  0.38638076  0.25377207  0.57696913  1  0  -0.416367  0  3.004905  0  0  -0.377036  0  3.270177  0  0  -0.394729  0  3.281063  0  0  -0.313294  -0.365242  0  3.262845  0
N  N126  1  0.86846278  0.25393031  0.07719822  1  0  -0.416938  0  3.005193  0  0  -0.377642  0  3.270948  0  0  -0.395257  0  3.281926  0  0  -0.314295  -0.365818  0  3.263569  0
N  N127  1  0.61362735  0.74624212  0.42303098  1  0  -0.416347  0  3.004811  0  0  -0.376942  0  3.270099  0  0  -0.394632  0  3.280981  0  0  -0.3133  -0.365148  0  3.262768  0
N  N128  1  0.80342023  0.66780605  0.14217441  1  0  -0.414489  0  2.991015  0  0  -0.37657  0  3.256103  0  0  -0.393516  0  3.266733  0  0  -0.318505  -0.365252  0  3.248858  0
N  N129  1  0.13635473  0.33224530  0.35776844  1  0  -0.413627  0  2.990871  0  0  -0.375764  0  3.255495  0  0  -0.392646  0  3.266006  0  0  -0.317089  -0.364481  0  3.248228  0
N  N130  1  0.19658950  0.33218501  0.85782588  1  0  -0.414557  0  2.991174  0  0  -0.376629  0  3.256289  0  0  -0.393574  0  3.266932  0  0  -0.318504  -0.365321  0  3.249029  0
N  N131  1  0.86363153  0.66775736  0.64223050  1  0  -0.41355  0  2.990589  0  0  -0.375667  0  3.255253  0  0  -0.392548  0  3.265761  0  0  -0.317056  -0.364388  0  3.247986  0
N  N132  1  0.21642134  0.66214480  0.01277028  1  0  -0.409494  0  3.324267  0  0  -0.321583  0  3.591051  0  0  -0.344861  0  3.603818  0  0  -0.344592  -0.306327  0  3.582616  0
N  N133  1  0.55440940  0.33800327  0.48704049  1  0  -0.409723  0  3.324398  0  0  -0.320903  0  3.589582  0  0  -0.344404  0  3.602548  0  0  -0.343442  -0.305452  0  3.580991  0
N  N134  1  0.78357073  0.33783727  0.98721893  1  0  -0.409623  0  3.324686  0  0  -0.321631  0  3.591407  0  0  -0.344887  0  3.604117  0  0  -0.344524  -0.306365  0  3.582958  0
N  N135  1  0.44558460  0.66200025  0.51295447  1  0  -0.409576  0  3.324328  0  0  -0.320794  0  3.589619  0  0  -0.344296  0  3.602591  0  0  -0.343331  -0.305323  0  3.580979  0
N  N136  1  0.45893384  0.57829407  0.11633211  1  0  -0.408815  0  3.259915  0  0  -0.321162  0  3.51977  0  0  -0.344156  0  3.533546  0  0  -0.340736  -0.305883  0  3.510351  0
N  N137  1  0.88116511  0.42176809  0.38361094  1  0  -0.408458  0  3.259858  0  0  -0.320568  0  3.519635  0  0  -0.343659  0  3.53338  0  0  -0.34052  -0.305263  0  3.510282  0
N  N138  1  0.54108218  0.42169790  0.88366217  1  0  -0.408911  0  3.26003  0  0  -0.321297  0  3.520061  0  0  -0.344242  0  3.533707  0  0  -0.340844  -0.306033  0  3.510645  0
N  N139  1  0.11883084  0.57824224  0.61638929  1  0  -0.408392  0  3.259631  0  0  -0.320437  0  3.519408  0  0  -0.343526  0  3.53315  0  0  -0.340441  -0.30514  0  3.510064  0
