# generated using pymatgen
data_CdH10(C5N2)2
_symmetry_space_group_name_H-M   'P 1'
_cell_length_a   7.32270250
_cell_length_b   11.94867748
_cell_length_c   13.83157868
_cell_angle_alpha   87.93030752
_cell_angle_beta   74.66773161
_cell_angle_gamma   72.13450862
_symmetry_Int_Tables_number   1
_chemical_formula_structural   CdH10(C5N2)2
_chemical_formula_sum   'Cd4 H40 C40 N16'
_cell_volume   1109.52668681
_cell_formula_units_Z   4
loop_
 _symmetry_equiv_pos_site_id
 _symmetry_equiv_pos_as_xyz
  1  'x, y, z'
loop_
 _atom_site_type_symbol
 _atom_site_label
 _atom_site_symmetry_multiplicity
 _atom_site_fract_x
 _atom_site_fract_y
 _atom_site_fract_z
 _atom_site_occupancy
 _atom_site_hle17_bader_spin_density
 _atom_site_hle17_ddec_charge
 _atom_site_hle17_ddec_spin_density
 _atom_site_hle17_ddec_sum_bond_order
 _atom_site_hle17_magmom
 _atom_site_hse06_10hf_bader_spin_density
 _atom_site_hse06_10hf_ddec_charge
 _atom_site_hse06_10hf_ddec_spin_density
 _atom_site_hse06_10hf_ddec_sum_bond_order
 _atom_site_hse06_10hf_magmom
 _atom_site_hse06_bader_spin_density
 _atom_site_hse06_ddec_charge
 _atom_site_hse06_ddec_spin_density
 _atom_site_hse06_ddec_sum_bond_order
 _atom_site_hse06_magmom
 _atom_site_pbe_bader_spin_density
 _atom_site_pbe_cm5_charge
 _atom_site_pbe_ddec_charge
 _atom_site_pbe_ddec_spin_density
 _atom_site_pbe_ddec_sum_bond_order
 _atom_site_pbe_magmom
Cd  Cd0  1  0.66937663  0.65374747  0.88365031  1  0  0.831668  0  2.110132  0  0  0.633655  0  2.576537  0  0  0.674822  0  2.539612  0  0  0.658774  0.605152  0  2.601568  0
Cd  Cd1  1  0.20654427  0.84639741  0.61651171  1  0  0.832427  0  2.109766  0  0  0.634559  0  2.576279  0  0  0.675707  0  2.539348  0  0  0.659145  0.606078  0  2.601306  0
Cd  Cd2  1  0.33061230  0.34625561  0.11635023  1  0  0.831658  0  2.110089  0  0  0.633669  0  2.576439  0  0  0.674835  0  2.539516  0  0  0.658775  0.605166  0  2.60146  0
Cd  Cd3  1  0.79346215  0.15361090  0.38348727  1  0  0.832395  0  2.109732  0  0  0.63449  0  2.576268  0  0  0.675637  0  2.539339  0  0  0.659168  0.606002  0  2.601294  0
H  H4  1  0.26137580  0.84761159  0.99640665  1  0  0.072589  0  0.951957  0  0  0.083133  0  1.014937  0  0  0.08524  0  1.012871  0  0  0.113007  0.081549  0  1.0165  0
H  H5  1  0.10508013  0.65233715  0.50413367  1  0  0.074251  0  0.952113  0  0  0.084578  0  1.01489  0  0  0.086728  0  1.012791  0  0  0.113509  0.082954  0  1.016499  0
H  H6  1  0.73862353  0.15239061  0.00359388  1  0  0.072635  0  0.952104  0  0  0.083153  0  1.015105  0  0  0.085259  0  1.013037  0  0  0.112996  0.081567  0  1.016667  0
H  H7  1  0.89491579  0.34765394  0.49587696  1  0  0.074125  0  0.952165  0  0  0.084505  0  1.014932  0  0  0.086658  0  1.012821  0  0  0.113448  0.082879  0  1.016544  0
H  H8  1  0.12746788  0.99954691  0.14028837  1  0  0.098114  0  0.94379  0  0  0.110452  0  0.999678  0  0  0.112857  0  0.999936  0  0  0.106878  0.108708  0  0.999695  0
H  H9  1  0.26684568  0.50035113  0.36024909  1  0  0.098121  0  0.943726  0  0  0.110743  0  0.99942  0  0  0.1131  0  0.999734  0  0  0.107103  0.109054  0  0.999368  0
H  H10  1  0.87254861  0.00046741  0.85970618  1  0  0.098193  0  0.943778  0  0  0.110473  0  0.999712  0  0  0.112866  0  0.999984  0  0  0.106903  0.108731  0  0.999728  0
H  H11  1  0.73314812  0.49963648  0.63976251  1  0  0.098076  0  0.943758  0  0  0.110715  0  0.999425  0  0  0.113071  0  0.999739  0  0  0.107082  0.109028  0  0.999372  0
H  H12  1  0.36718325  0.03764119  0.22440268  1  0  0.091622  0  0.952793  0  0  0.104089  0  1.011681  0  0  0.10533  0  1.011797  0  0  0.107647  0.103139  0  1.011626  0
H  H13  1  0.62842957  0.46260963  0.27576267  1  0  0.091959  0  0.952895  0  0  0.104139  0  1.012056  0  0  0.105439  0  1.012087  0  0  0.107773  0.103165  0  1.01204  0
H  H14  1  0.63284044  0.96237044  0.77559028  1  0  0.091642  0  0.952881  0  0  0.104085  0  1.011768  0  0  0.10532  0  1.011881  0  0  0.107637  0.103138  0  1.011719  0
H  H15  1  0.37156890  0.53738316  0.72424603  1  0  0.092004  0  0.953023  0  0  0.104203  0  1.012161  0  0  0.105509  0  1.01218  0  0  0.107769  0.103226  0  1.012152  0
H  H16  1  0.72824464  0.91718168  0.16737206  1  0  0.107117  0  0.940165  0  0  0.120246  0  0.9941  0  0  0.123184  0  0.99373  0  0  0.108492  0.118152  0  0.994509  0
H  H17  1  0.81192904  0.58325922  0.33251588  1  0  0.107891  0  0.940887  0  0  0.121597  0  0.994113  0  0  0.124486  0  0.993789  0  0  0.108948  0.119488  0  0.99456  0
H  H18  1  0.27178075  0.08282439  0.83261215  1  0  0.107165  0  0.940055  0  0  0.120318  0  0.99395  0  0  0.123256  0  0.993577  0  0  0.108564  0.118223  0  0.99436  0
H  H19  1  0.18805431  0.41674819  0.66748248  1  0  0.107874  0  0.940821  0  0  0.121577  0  0.994064  0  0  0.124466  0  0.993743  0  0  0.108918  0.119494  0  0.99448  0
H  H20  1  0.96060877  0.78277769  0.94068345  1  0  0.086066  0  0.922683  0  0  0.101836  0  0.986637  0  0  0.102019  0  0.98714  0  0  0.110746  0.101705  0  0.986285  0
H  H21  1  0.68396567  0.71712302  0.55935852  1  0  0.086144  0  0.92232  0  0  0.101843  0  0.986546  0  0  0.102051  0  0.986955  0  0  0.110746  0.101685  0  0.986256  0
H  H22  1  0.03940127  0.21722107  0.05931938  1  0  0.086063  0  0.922677  0  0  0.101829  0  0.986633  0  0  0.102013  0  0.987134  0  0  0.110752  0.101698  0  0.986281  0
H  H23  1  0.31602583  0.28287834  0.44064313  1  0  0.086116  0  0.922322  0  0  0.10186  0  0.9865  0  0  0.102066  0  0.986916  0  0  0.110753  0.101701  0  0.986208  0
H  H24  1  0.98191516  0.75427271  0.06514181  1  0  0.081116  0  0.914797  0  0  0.097337  0  0.974552  0  0  0.098719  0  0.97343  0  0  0.106557  0.096287  0  0.975478  0
H  H25  1  0.80098423  0.74564611  0.43486097  1  0  0.082291  0  0.913919  0  0  0.09853  0  0.973982  0  0  0.099877  0  0.972836  0  0  0.107103  0.097507  0  0.974909  0
H  H26  1  0.01808432  0.24572342  0.93486149  1  0  0.081142  0  0.914814  0  0  0.097344  0  0.974575  0  0  0.098727  0  0.97345  0  0  0.106571  0.096291  0  0.975502  0
H  H27  1  0.19900489  0.25435796  0.56514310  1  0  0.08225  0  0.913893  0  0  0.098473  0  0.974013  0  0  0.099822  0  0.972865  0  0  0.107078  0.097449  0  0.974939  0
H  H28  1  0.70358426  0.61276103  0.12525273  1  0  0.088007  0  0.946938  0  0  0.101991  0  1.009397  0  0  0.102781  0  1.010131  0  0  0.107077  0.101416  0  1.008959  0
H  H29  1  0.44115330  0.88723339  0.37491147  1  0  0.08805  0  0.947586  0  0  0.102448  0  1.010182  0  0  0.103178  0  1.010937  0  0  0.107058  0.101878  0  1.009741  0
H  H30  1  0.29640905  0.38724296  0.87474865  1  0  0.087984  0  0.946971  0  0  0.101992  0  1.009405  0  0  0.102778  0  1.010141  0  0  0.1071  0.101415  0  1.008966  0
H  H31  1  0.55884704  0.11276349  0.62508783  1  0  0.088082  0  0.947647  0  0  0.102475  0  1.010251  0  0  0.103207  0  1.011008  0  0  0.107088  0.10191  0  1.009803  0
H  H32  1  0.95516650  0.57458477  0.13417751  1  0  0.050319  0  0.938469  0  0  0.065011  0  1.007335  0  0  0.065556  0  1.006918  0  0  0.092588  0.064578  0  1.007713  0
H  H33  1  0.66353778  0.92530803  0.36586611  1  0  0.05098  0  0.938804  0  0  0.066345  0  1.007459  0  0  0.066895  0  1.007068  0  0  0.09312  0.065876  0  1.007836  0
H  H34  1  0.04483013  0.42541838  0.86582520  1  0  0.050327  0  0.938452  0  0  0.06504  0  1.007293  0  0  0.065581  0  1.006879  0  0  0.092614  0.064608  0  1.007673  0
H  H35  1  0.33645231  0.07469884  0.63414264  1  0  0.050968  0  0.93885  0  0  0.066328  0  1.0075  0  0  0.066872  0  1.007122  0  0  0.093094  0.065859  0  1.007877  0
H  H36  1  0.22623610  0.56705305  0.97383139  1  0  0.065555  0  0.955077  0  0  0.080427  0  1.022526  0  0  0.08029  0  1.023974  0  0  0.095403  0.080466  0  1.021593  0
H  H37  1  0.76734377  0.93279580  0.52602638  1  0  0.065461  0  0.956318  0  0  0.08053  0  1.023914  0  0  0.080403  0  1.025339  0  0  0.095418  0.080561  0  1.022997  0
H  H38  1  0.77376109  0.43295342  0.02616499  1  0  0.065544  0  0.955107  0  0  0.080428  0  1.022521  0  0  0.08029  0  1.02397  0  0  0.095392  0.080467  0  1.021588  0
H  H39  1  0.23263791  0.06720724  0.47397294  1  0  0.065577  0  0.956229  0  0  0.080619  0  1.023862  0  0  0.080491  0  1.025286  0  0  0.095447  0.080649  0  1.022944  0
H  H40  1  0.15012489  0.60340535  0.86197993  1  0  0.067159  0  0.949422  0  0  0.082593  0  1.016582  0  0  0.082282  0  1.017778  0  0  0.100579  0.082748  0  1.015837  0
H  H41  1  0.61599775  0.89661922  0.63798900  1  0  0.065679  0  0.951037  0  0  0.08169  0  1.017847  0  0  0.081344  0  1.019106  0  0  0.100111  0.081858  0  1.017092  0
H  H42  1  0.84986374  0.39659687  0.13802132  1  0  0.067205  0  0.949358  0  0  0.082567  0  1.016584  0  0  0.082259  0  1.017775  0  0  0.100591  0.082722  0  1.015839  0
H  H43  1  0.38399822  0.10337766  0.36201041  1  0  0.065744  0  0.950839  0  0  0.081741  0  1.017667  0  0  0.081396  0  1.01892  0  0  0.100117  0.081908  0  1.01691  0
C  C44  1  0.63978640  0.47949407  0.87431166  1  0  -0.194821  0  3.391927  0  0  -0.154322  0  3.723398  0  0  -0.158823  0  3.734327  0  0  -0.03825  -0.151029  0  3.715796  0
C  C45  1  0.99328213  0.02065306  0.62583625  1  0  -0.19524  0  3.393854  0  0  -0.154729  0  3.725504  0  0  -0.15924  0  3.736415  0  0  -0.038722  -0.15141  0  3.717865  0
C  C46  1  0.36020836  0.52050065  0.12570253  1  0  -0.19474  0  3.391238  0  0  -0.154256  0  3.722721  0  0  -0.158753  0  3.733646  0  0  -0.038388  -0.150964  0  3.715124  0
C  C47  1  0.00672394  0.97935075  0.37415966  1  0  -0.195006  0  3.393851  0  0  -0.15448  0  3.725474  0  0  -0.158995  0  3.736389  0  0  -0.03861  -0.151159  0  3.717833  0
C  C48  1  0.33092514  0.79632815  0.74919994  1  0  -0.116338  0  3.224394  0  0  -0.099589  0  3.540512  0  0  -0.097018  0  3.549637  0  0  -0.009767  -0.101116  0  3.534198  0
C  C49  1  0.87568365  0.70415144  0.75095436  1  0  -0.115549  0  3.223319  0  0  -0.098744  0  3.539453  0  0  -0.096159  0  3.548619  0  0  -0.009961  -0.100269  0  3.533085  0
C  C50  1  0.66910709  0.20368156  0.25078834  1  0  -0.116415  0  3.22468  0  0  -0.099618  0  3.540707  0  0  -0.09705  0  3.54983  0  0  -0.009749  -0.101144  0  3.534393  0
C  C51  1  0.12426441  0.29582801  0.24902241  1  0  -0.115582  0  3.223387  0  0  -0.098817  0  3.539555  0  0  -0.096236  0  3.548726  0  0  -0.009891  -0.10034  0  3.533182  0
C  C52  1  0.35767369  0.86660443  0.03733548  1  0  0.151309  0  3.711463  0  0  0.114139  0  3.967515  0  0  0.122636  0  3.984768  0  0  0.052482  0.108711  0  3.955686  0
C  C53  1  0.26111550  0.63349480  0.46306803  1  0  0.149668  0  3.712483  0  0  0.113049  0  3.968338  0  0  0.121505  0  3.985488  0  0  0.053416  0.107661  0  3.956606  0
C  C54  1  0.64233457  0.13340400  0.96266721  1  0  0.151137  0  3.711491  0  0  0.113982  0  3.967549  0  0  0.122482  0  3.984794  0  0  0.052526  0.108555  0  3.955721  0
C  C55  1  0.73888208  0.36650066  0.53694164  1  0  0.149775  0  3.712607  0  0  0.113086  0  3.968488  0  0  0.121543  0  3.98564  0  0  0.053391  0.107693  0  3.956751  0
C  C56  1  0.28563460  0.95128429  0.11579187  1  0  -0.111654  0  3.720639  0  0  -0.124836  0  3.970834  0  0  -0.13305  0  3.993347  0  0  -0.079172  -0.119638  0  3.955702  0
C  C57  1  0.35217146  0.54876506  0.38458300  1  0  -0.110864  0  3.721153  0  0  -0.124277  0  3.971394  0  0  -0.132468  0  3.993952  0  0  -0.078931  -0.11909  0  3.9562  0
C  C58  1  0.71437881  0.04871851  0.88420011  1  0  -0.111689  0  3.720503  0  0  -0.124833  0  3.97069  0  0  -0.133037  0  3.993204  0  0  -0.079285  -0.119628  0  3.955541  0
C  C59  1  0.64784385  0.45122327  0.61542386  1  0  -0.110716  0  3.721179  0  0  -0.124098  0  3.971376  0  0  -0.132292  0  3.993941  0  0  -0.078839  -0.118913  0  3.956186  0
C  C60  1  0.41937058  0.97119428  0.16322685  1  0  0.033473  0  3.695842  0  0  0.013531  0  3.944108  0  0  0.018318  0  3.963972  0  0  -0.056001  0.01076  0  3.93044  0
C  C61  1  0.55307654  0.52901497  0.33694381  1  0  0.032879  0  3.696442  0  0  0.013142  0  3.94487  0  0  0.017911  0  3.964617  0  0  -0.056361  0.010372  0  3.931318  0
C  C62  1  0.58064359  0.02881032  0.83676630  1  0  0.033405  0  3.696007  0  0  0.013535  0  3.94418  0  0  0.01833  0  3.964031  0  0  -0.055985  0.01076  0  3.93052  0
C  C63  1  0.44692811  0.47098045  0.66306452  1  0  0.032812  0  3.696531  0  0  0.01302  0  3.944993  0  0  0.017793  0  3.96474  0  0  -0.056323  0.010244  0  3.931451  0
C  C64  1  0.61948295  0.90472748  0.13149098  1  0  -0.164201  0  3.701556  0  0  -0.179838  0  3.942522  0  0  -0.188893  0  3.964937  0  0  -0.081555  -0.174052  0  3.927477  0
C  C65  1  0.65497399  0.59557979  0.36853255  1  0  -0.16573  0  3.703752  0  0  -0.181898  0  3.944926  0  0  -0.190908  0  3.967424  0  0  -0.082557  -0.176117  0  3.929856  0
C  C66  1  0.38053332  0.09527013  0.86850348  1  0  -0.164222  0  3.701384  0  0  -0.179862  0  3.942378  0  0  -0.188914  0  3.96479  0  0  -0.081595  -0.174078  0  3.927338  0
C  C67  1  0.34502790  0.40441635  0.63147116  1  0  -0.165732  0  3.70379  0  0  -0.181902  0  3.944996  0  0  -0.190909  0  3.967487  0  0  -0.082542  -0.176138  0  3.929913  0
C  C68  1  0.68086621  0.82096033  0.05236415  1  0  0.236829  0  3.735363  0  0  0.236234  0  3.977395  0  0  0.244362  0  3.999067  0  0  0.121017  0.230916  0  3.96265  0
C  C69  1  0.55362162  0.67923736  0.44776336  1  0  0.236936  0  3.735978  0  0  0.23671  0  3.978407  0  0  0.244695  0  4.000153  0  0  0.121375  0.231492  0  3.963594  0
C  C70  1  0.31914852  0.17903892  0.94762683  1  0  0.236911  0  3.734919  0  0  0.236156  0  3.977197  0  0  0.244275  0  3.998875  0  0  0.120987  0.230842  0  3.962448  0
C  C71  1  0.44637498  0.32076306  0.55223652  1  0  0.236871  0  3.736064  0  0  0.236681  0  3.978467  0  0  0.244668  0  4.000215  0  0  0.121333  0.231453  0  3.963656  0
C  C72  1  0.89565948  0.74786925  0.01203649  1  0  -0.091115  0  3.687003  0  0  -0.152861  0  3.938505  0  0  -0.150006  0  3.949022  0  0  -0.061748  -0.154699  0  3.93115  0
C  C73  1  0.65527821  0.75215260  0.48804213  1  0  -0.092745  0  3.68629  0  0  -0.155324  0  3.939487  0  0  -0.152283  0  3.949702  0  0  -0.062663  -0.157244  0  3.932235  0
C  C74  1  0.10434045  0.25213033  0.98796470  1  0  -0.091122  0  3.686788  0  0  -0.152798  0  3.938265  0  0  -0.149939  0  3.94878  0  0  -0.061754  -0.154636  0  3.930907  0
C  C75  1  0.34471550  0.24784254  0.51195756  1  0  -0.092633  0  3.686231  0  0  -0.155287  0  3.939513  0  0  -0.15225  0  3.949729  0  0  -0.062688  -0.157208  0  3.932261  0
C  C76  1  0.85961722  0.56721303  0.08611922  1  0  -0.032604  0  3.644288  0  0  -0.087174  0  3.89663  0  0  -0.084555  0  3.909356  0  0  -0.074791  -0.088816  0  3.887707  0
C  C77  1  0.51263232  0.93279358  0.41395261  1  0  -0.033463  0  3.644892  0  0  -0.09009  0  3.900432  0  0  -0.087443  0  3.913129  0  0  -0.075604  -0.09174  0  3.891606  0
C  C78  1  0.14038346  0.43279176  0.91388011  1  0  -0.032614  0  3.644205  0  0  -0.087204  0  3.8966  0  0  -0.084585  0  3.909339  0  0  -0.074874  -0.088852  0  3.887684  0
C  C79  1  0.48735603  0.06720870  0.58605030  1  0  -0.033465  0  3.64502  0  0  -0.090046  0  3.900428  0  0  -0.087408  0  3.913142  0  0  -0.075561  -0.091698  0  3.891599  0
C  C80  1  0.11806340  0.56087450  0.93351716  1  0  -0.033466  0  3.662122  0  0  -0.091324  0  3.917008  0  0  -0.088429  0  3.930805  0  0  -0.077009  -0.093158  0  3.907446  0
C  C81  1  0.61268489  0.93909767  0.56643730  1  0  -0.031207  0  3.662566  0  0  -0.089309  0  3.918054  0  0  -0.086494  0  3.931971  0  0  -0.076468  -0.091097  0  3.908379  0
C  C82  1  0.88193998  0.43912593  0.06648302  1  0  -0.033557  0  3.662011  0  0  -0.091311  0  3.916773  0  0  -0.088416  0  3.930572  0  0  -0.077053  -0.093146  0  3.907214  0
C  C83  1  0.38730286  0.06090290  0.43356702  1  0  -0.031313  0  3.662465  0  0  -0.089427  0  3.918047  0  0  -0.086612  0  3.931961  0  0  -0.076477  -0.091214  0  3.908367  0
N  N84  1  0.63693426  0.38268394  0.86683021  1  0  -0.35856  0  2.819066  0  0  -0.334093  0  3.055512  0  0  -0.342419  0  3.073265  0  0  -0.362116  -0.328434  0  3.043457  0
N  N85  1  0.88705232  0.11773429  0.63321000  1  0  -0.358809  0  2.820347  0  0  -0.334336  0  3.056744  0  0  -0.342645  0  3.074473  0  0  -0.361883  -0.328674  0  3.044678  0
N  N86  1  0.36307520  0.61732049  0.13315789  1  0  -0.358616  0  2.818296  0  0  -0.334142  0  3.054753  0  0  -0.34247  0  3.072504  0  0  -0.361969  -0.328484  0  3.042703  0
N  N87  1  0.11292870  0.88226682  0.36678393  1  0  -0.359027  0  2.820406  0  0  -0.334576  0  3.056809  0  0  -0.342884  0  3.074534  0  0  -0.362037  -0.328915  0  3.044744  0
N  N88  1  0.38933748  0.76499096  0.81979920  1  0  -0.404688  0  3.036689  0  0  -0.344208  0  3.313834  0  0  -0.361232  0  3.328915  0  0  -0.369093  -0.332698  0  3.303452  0
N  N89  1  0.97375129  0.73535186  0.68047210  1  0  -0.405181  0  3.035869  0  0  -0.344719  0  3.31313  0  0  -0.361767  0  3.328261  0  0  -0.3686  -0.333182  0  3.302688  0
N  N90  1  0.61066741  0.23501033  0.18020048  1  0  -0.404615  0  3.036975  0  0  -0.344149  0  3.314088  0  0  -0.361172  0  3.329163  0  0  -0.369106  -0.332641  0  3.303709  0
N  N91  1  0.02625511  0.26464597  0.31952917  1  0  -0.405141  0  3.036015  0  0  -0.344664  0  3.313277  0  0  -0.361705  0  3.328401  0  0  -0.368712  -0.333129  0  3.302837  0
N  N92  1  0.55066268  0.80363066  0.00619194  1  0  -0.3412  0  3.264838  0  0  -0.262304  0  3.523585  0  0  -0.28229  0  3.541484  0  0  -0.330362  -0.248815  0  3.511197  0
N  N93  1  0.36004362  0.69649974  0.49408049  1  0  -0.340236  0  3.265399  0  0  -0.261745  0  3.524449  0  0  -0.28166  0  3.542367  0  0  -0.33131  -0.248346  0  3.512092  0
N  N94  1  0.44933995  0.19636455  0.99381011  1  0  -0.341086  0  3.264802  0  0  -0.262157  0  3.523611  0  0  -0.282134  0  3.541502  0  0  -0.33031  -0.248668  0  3.511219  0
N  N95  1  0.63995965  0.30349558  0.50592506  1  0  -0.34019  0  3.26535  0  0  -0.261703  0  3.524401  0  0  -0.281615  0  3.542312  0  0  -0.331244  -0.248279  0  3.512019  0
N  N96  1  0.91346099  0.62488628  0.99105252  1  0  -0.212443  0  3.247005  0  0  -0.114325  0  3.483221  0  0  -0.131881  0  3.504689  0  0  -0.341429  -0.10203  0  3.468011  0
N  N97  1  0.52924202  0.87520260  0.50903833  1  0  -0.213571  0  3.246369  0  0  -0.114559  0  3.483216  0  0  -0.132078  0  3.504415  0  0  -0.341718  -0.102282  0  3.468098  0
N  N98  1  0.08654343  0.37510974  0.00894737  1  0  -0.212494  0  3.247003  0  0  -0.114337  0  3.48302  0  0  -0.1319  0  3.504491  0  0  -0.341375  -0.102042  0  3.467812  0
N  N99  1  0.47074374  0.12479525  0.49096367  1  0  -0.213697  0  3.246558  0  0  -0.114651  0  3.483392  0  0  -0.132168  0  3.5046  0  0  -0.341727  -0.102378  0  3.468279  0
