# generated using pymatgen
data_CdH8C12O5
_symmetry_space_group_name_H-M   'P 1'
_cell_length_a   6.31143617
_cell_length_b   7.27823702
_cell_length_c   12.38861844
_cell_angle_alpha   92.01983131
_cell_angle_beta   107.14083318
_cell_angle_gamma   86.48234151
_symmetry_Int_Tables_number   1
_chemical_formula_structural   CdH8C12O5
_chemical_formula_sum   'Cd2 H16 C24 O10'
_cell_volume   542.69578568
_cell_formula_units_Z   2
loop_
 _symmetry_equiv_pos_site_id
 _symmetry_equiv_pos_as_xyz
  1  'x, y, z'
loop_
 _atom_site_type_symbol
 _atom_site_label
 _atom_site_symmetry_multiplicity
 _atom_site_fract_x
 _atom_site_fract_y
 _atom_site_fract_z
 _atom_site_occupancy
 _atom_site_hle17_bader_spin_density
 _atom_site_hle17_ddec_charge
 _atom_site_hle17_ddec_spin_density
 _atom_site_hle17_ddec_sum_bond_order
 _atom_site_hle17_magmom
 _atom_site_hse06_10hf_bader_spin_density
 _atom_site_hse06_10hf_ddec_charge
 _atom_site_hse06_10hf_ddec_spin_density
 _atom_site_hse06_10hf_ddec_sum_bond_order
 _atom_site_hse06_10hf_magmom
 _atom_site_hse06_bader_spin_density
 _atom_site_hse06_ddec_charge
 _atom_site_hse06_ddec_spin_density
 _atom_site_hse06_ddec_sum_bond_order
 _atom_site_hse06_magmom
 _atom_site_pbe_bader_spin_density
 _atom_site_pbe_cm5_charge
 _atom_site_pbe_ddec_charge
 _atom_site_pbe_ddec_spin_density
 _atom_site_pbe_ddec_sum_bond_order
 _atom_site_pbe_magmom
Cd  Cd0  1  0.67947541  0.25416627  0.00597912  1  0  1.288836  0  1.556997  0  0  1.112542  0  2.003271  0  0  1.169986  0  1.942159  0  0  0.791819  1.071238  0  2.045559  0
Cd  Cd1  1  0.32049242  0.74579557  0.99401357  1  0  1.288797  0  1.556974  0  0  1.112548  0  2.003117  0  0  1.169923  0  1.942146  0  0  0.791782  1.071242  0  2.045406  0
H  H2  1  0.14269324  0.32495593  0.05938595  1  0  0.434108  0  0.869157  0  0  0.404053  0  0.930758  0  0  0.414815  0  0.915171  0  0  0.290533  0.396438  0  0.941771  0
H  H3  1  0.89119895  0.84965837  0.02080541  1  0  0.435764  0  0.866666  0  0  0.405296  0  0.929146  0  0  0.415918  0  0.913764  0  0  0.292743  0.397782  0  0.940007  0
H  H4  1  0.85729202  0.67503867  0.94062276  1  0  0.434092  0  0.869198  0  0  0.404042  0  0.930784  0  0  0.414806  0  0.915195  0  0  0.290509  0.396427  0  0.941797  0
H  H5  1  0.10880309  0.15035515  0.97918747  1  0  0.435664  0  0.866813  0  0  0.405155  0  0.929358  0  0  0.415778  0  0.913975  0  0  0.292724  0.397641  0  0.940219  0
H  H6  1  0.20402499  0.63372767  0.61682916  1  0  0.1091  0  0.958301  0  0  0.116374  0  1.026032  0  0  0.119397  0  1.024898  0  0  0.104996  0.11414  0  1.027013  0
H  H7  1  0.40319651  0.13682272  0.62760808  1  0  0.109701  0  0.953202  0  0  0.117538  0  1.019518  0  0  0.120514  0  1.018505  0  0  0.105857  0.115327  0  1.020464  0
H  H8  1  0.79600015  0.36626349  0.38318349  1  0  0.109114  0  0.958426  0  0  0.116369  0  1.026184  0  0  0.119404  0  1.025018  0  0  0.105009  0.114135  0  1.027165  0
H  H9  1  0.59679092  0.86320072  0.37240150  1  0  0.109831  0  0.952973  0  0  0.117637  0  1.01933  0  0  0.120621  0  1.01832  0  0  0.105883  0.115425  0  1.020276  0
H  H10  1  0.86977539  0.42115853  0.77989684  1  0  0.104135  0  0.937586  0  0  0.115761  0  0.994745  0  0  0.119141  0  0.992562  0  0  0.105247  0.113289  0  0.996457  0
H  H11  1  0.92603635  0.93072260  0.77344782  1  0  0.10806  0  0.951882  0  0  0.116417  0  1.014904  0  0  0.120124  0  1.012168  0  0  0.103518  0.113739  0  1.016916  0
H  H12  1  0.13025578  0.57883663  0.22010544  1  0  0.104208  0  0.937647  0  0  0.115702  0  0.994937  0  0  0.119057  0  0.992786  0  0  0.105226  0.113228  0  0.996644  0
H  H13  1  0.07392079  0.06929444  0.22653879  1  0  0.10814  0  0.951797  0  0  0.116371  0  1.014953  0  0  0.120073  0  1.012221  0  0  0.103461  0.11369  0  1.016966  0
H  H14  1  0.06531953  0.64066426  0.40592932  1  0  0.094522  0  0.971529  0  0  0.104751  0  1.034294  0  0  0.106677  0  1.035433  0  0  0.099826  0.103261  0  1.033845  0
H  H15  1  0.32407745  0.13874854  0.41791390  1  0  0.096233  0  0.958795  0  0  0.106889  0  1.019947  0  0  0.108912  0  1.02107  0  0  0.100518  0.10534  0  1.019511  0
H  H16  1  0.93469690  0.35932564  0.59406998  1  0  0.094591  0  0.971466  0  0  0.104763  0  1.0343  0  0  0.106675  0  1.035474  0  0  0.099851  0.103267  0  1.033859  0
H  H17  1  0.67593401  0.86121801  0.58206001  1  0  0.096319  0  0.958605  0  0  0.106984  0  1.01973  0  0  0.109007  0  1.020853  0  0  0.100563  0.105436  0  1.019294  0
C  C18  1  0.39463529  0.53963292  0.50302791  1  0  0.048209  0  3.790046  0  0  0.065302  0  4.017779  0  0  0.064872  0  4.040886  0  0  -0.005613  0.06559  0  4.002035  0
C  C19  1  0.10479866  0.03936850  0.50618510  1  0  0.049209  0  3.794153  0  0  0.066513  0  4.020583  0  0  0.066068  0  4.043826  0  0  -0.005326  0.066864  0  4.004687  0
C  C20  1  0.60539310  0.46035818  0.49698359  1  0  0.048302  0  3.790016  0  0  0.065331  0  4.017792  0  0  0.0649  0  4.040901  0  0  -0.005582  0.065621  0  4.002044  0
C  C21  1  0.89520695  0.96064498  0.49381474  1  0  0.048962  0  3.794044  0  0  0.066347  0  4.02041  0  0  0.065903  0  4.043655  0  0  -0.005365  0.066696  0  4.004515  0
C  C22  1  0.36256358  0.57357148  0.61040331  1  0  -0.100975  0  3.675877  0  0  -0.132873  0  3.924653  0  0  -0.131682  0  3.942844  0  0  -0.075299  -0.13345  0  3.912432  0
C  C23  1  0.24386079  0.07662160  0.61612888  1  0  -0.104472  0  3.68137  0  0  -0.13583  0  3.930156  0  0  -0.134398  0  3.947613  0  0  -0.07574  -0.136576  0  3.918346  0
C  C24  1  0.63745279  0.42642532  0.38960176  1  0  -0.101079  0  3.675519  0  0  -0.132918  0  3.924325  0  0  -0.131726  0  3.942521  0  0  -0.075248  -0.133494  0  3.912104  0
C  C25  1  0.75614150  0.92338642  0.38386474  1  0  -0.104591  0  3.681135  0  0  -0.135879  0  3.929988  0  0  -0.134465  0  3.947465  0  0  -0.075687  -0.136625  0  3.918178  0
C  C26  1  0.53090942  0.53101231  0.70842999  1  0  -0.062362  0  3.753861  0  0  -0.039798  0  3.991038  0  0  -0.04821  0  4.013703  0  0  -0.017488  -0.034235  0  3.975598  0
C  C27  1  0.17986471  0.03808409  0.71048722  1  0  -0.065501  0  3.75473  0  0  -0.044128  0  3.993133  0  0  -0.052713  0  4.015929  0  0  -0.018245  -0.038428  0  3.977538  0
C  C28  1  0.46910412  0.46900790  0.29156868  1  0  -0.062263  0  3.753619  0  0  -0.039835  0  3.990873  0  0  -0.048247  0  4.013534  0  0  -0.017497  -0.034273  0  3.975435  0
C  C29  1  0.82012477  0.96191728  0.28950930  1  0  -0.065393  0  3.754649  0  0  -0.044244  0  3.993336  0  0  -0.052833  0  4.01614  0  0  -0.018278  -0.038542  0  3.977737  0
C  C30  1  0.49090305  0.56662206  0.82010576  1  0  0.663527  0  3.882005  0  0  0.609577  0  4.170862  0  0  0.645478  0  4.163505  0  0  0.211299  0.585128  0  4.174977  0
C  C31  1  0.32902454  0.08175847  0.82509469  1  0  0.668788  0  3.878365  0  0  0.616325  0  4.164962  0  0  0.652252  0  4.157612  0  0  0.214427  0.59188  0  4.168975  0
C  C32  1  0.50911167  0.43337614  0.17990071  1  0  0.663345  0  3.882344  0  0  0.609518  0  4.171085  0  0  0.645417  0  4.163735  0  0  0.211283  0.585069  0  4.175198  0
C  C33  1  0.67095230  0.91824039  0.17491373  1  0  0.669524  0  3.877399  0  0  0.617087  0  4.164039  0  0  0.653013  0  4.156672  0  0  0.214807  0.592643  0  4.168059  0
C  C34  1  0.73933609  0.45363852  0.70216417  1  0  -0.053826  0  3.71448  0  0  -0.081046  0  3.968774  0  0  -0.081202  0  3.988848  0  0  -0.083115  -0.080788  0  3.955132  0
C  C35  1  0.97283338  0.96013749  0.69817690  1  0  -0.053876  0  3.716999  0  0  -0.080983  0  3.972214  0  0  -0.080937  0  3.992004  0  0  -0.081982  -0.080829  0  3.958708  0
C  C36  1  0.26069767  0.54637448  0.29783801  1  0  -0.053774  0  3.714671  0  0  -0.080879  0  3.96901  0  0  -0.081012  0  3.989088  0  0  -0.08317  -0.080617  0  3.955365  0
C  C37  1  0.02714913  0.03986536  0.30181140  1  0  -0.053953  0  3.716645  0  0  -0.080867  0  3.971875  0  0  -0.080814  0  3.991667  0  0  -0.081876  -0.080708  0  3.958363  0
C  C38  1  0.22494976  0.58065501  0.40109178  1  0  -0.106604  0  3.731883  0  0  -0.125755  0  3.982743  0  0  -0.129203  0  4.005406  0  0  -0.08523  -0.123446  0  3.967612  0
C  C39  1  0.16556879  0.07772194  0.40784312  1  0  -0.109864  0  3.726322  0  0  -0.127866  0  3.976221  0  0  -0.131464  0  3.998315  0  0  -0.085582  -0.12548  0  3.961443  0
C  C40  1  0.77508766  0.41934691  0.59890829  1  0  -0.10656  0  3.73187  0  0  -0.125665  0  3.982803  0  0  -0.129113  0  4.005462  0  0  -0.085315  -0.123353  0  3.967679  0
C  C41  1  0.83443719  0.92227915  0.59215330  1  0  -0.109896  0  3.726396  0  0  -0.127934  0  3.976353  0  0  -0.131531  0  3.998443  0  0  -0.085624  -0.125545  0  3.961578  0
O  O42  1  0.65170660  0.53865874  0.91154838  1  0  -0.734976  0  2.099694  0  0  -0.659842  0  2.353677  0  0  -0.688252  0  2.335888  0  0  -0.338421  -0.639736  0  2.36522  0
O  O43  1  0.27307457  0.04328542  0.91284011  1  0  -0.721265  0  2.116517  0  0  -0.645922  0  2.369536  0  0  -0.674863  0  2.354099  0  0  -0.334869  -0.625424  0  2.379424  0
O  O44  1  0.34829141  0.46134801  0.08846156  1  0  -0.734987  0  2.099914  0  0  -0.659853  0  2.353816  0  0  -0.688273  0  2.336048  0  0  -0.338387  -0.639743  0  2.365352  0
O  O45  1  0.72690389  0.95671204  0.08716608  1  0  -0.721815  0  2.116269  0  0  -0.646484  0  2.369342  0  0  -0.67543  0  2.353888  0  0  -0.335105  -0.625992  0  2.379252  0
O  O46  1  0.29866777  0.62717822  0.82233024  1  0  -0.617911  0  1.999008  0  0  -0.547653  0  2.245318  0  0  -0.57913  0  2.237666  0  0  -0.309138  -0.525685  0  2.249877  0
O  O47  1  0.50836862  0.15942295  0.83175953  1  0  -0.624194  0  2.01441  0  0  -0.552265  0  2.26202  0  0  -0.584278  0  2.253104  0  0  -0.310733  -0.529828  0  2.267343  0
O  O48  1  0.70131682  0.37278059  0.17766638  1  0  -0.617789  0  1.999057  0  0  -0.547494  0  2.245155  0  0  -0.578974  0  2.237501  0  0  -0.309152  -0.52553  0  2.249716  0
O  O49  1  0.49161609  0.84058403  0.16824773  1  0  -0.624448  0  2.014139  0  0  -0.552498  0  2.261722  0  0  -0.584498  0  2.252803  0  0  -0.310866  -0.530064  0  2.267049  0
O  O50  1  0.04577325  0.21872509  0.03462306  1  0  -0.854326  0  1.845795  0  0  -0.783301  0  2.041191  0  0  -0.807704  0  2.006253  0  0  -0.593981  -0.766033  0  2.065437  0
O  O51  1  0.95422000  0.78126935  0.96537870  1  0  -0.854381  0  1.84582  0  0  -0.783379  0  2.041191  0  0  -0.807779  0  2.00625  0  0  -0.593968  -0.766112  0  2.065443  0
