# generated using pymatgen
data_CuH8C2(N6Cl)2
_symmetry_space_group_name_H-M   'P 1'
_cell_length_a   6.49740751
_cell_length_b   6.55850278
_cell_length_c   12.26569659
_cell_angle_alpha   90.02809494
_cell_angle_beta   92.80716777
_cell_angle_gamma   89.88572780
_symmetry_Int_Tables_number   1
_chemical_formula_structural   CuH8C2(N6Cl)2
_chemical_formula_sum   'Cu2 H16 C4 N24 Cl4'
_cell_volume   522.05309492
_cell_formula_units_Z   2
loop_
 _symmetry_equiv_pos_site_id
 _symmetry_equiv_pos_as_xyz
  1  'x, y, z'
loop_
 _atom_site_type_symbol
 _atom_site_label
 _atom_site_symmetry_multiplicity
 _atom_site_fract_x
 _atom_site_fract_y
 _atom_site_fract_z
 _atom_site_occupancy
 _atom_site_hle17_ddec_charge
 _atom_site_hle17_ddec_spin_density
 _atom_site_hle17_ddec_sum_bond_order
 _atom_site_hle17_magmom
 _atom_site_hse06_10hf_ddec_charge
 _atom_site_hse06_10hf_ddec_spin_density
 _atom_site_hse06_10hf_ddec_sum_bond_order
 _atom_site_hse06_10hf_magmom
 _atom_site_hse06_ddec_charge
 _atom_site_hse06_ddec_spin_density
 _atom_site_hse06_ddec_sum_bond_order
 _atom_site_hse06_magmom
 _atom_site_pbe_cm5_charge
 _atom_site_pbe_ddec_charge
 _atom_site_pbe_ddec_spin_density
 _atom_site_pbe_ddec_sum_bond_order
 _atom_site_pbe_magmom
Cu  Cu0  1  0.99999655  0.00000106  0.00000018  1  0.75113  0.656262  1.912757  0.459  0.723644  0.753569  2.317775  0.576  0.816207  0.83305  2.241038  0.66  0.634556  0.6713  0.700532  2.365195  0.526
Cu  Cu1  1  0.00000044  0.50000017  0.49999955  1  0.750751  -0.656032  1.91305  -0.459  0.723035  -0.75333  2.318235  -0.576  0.815514  -0.832833  2.241709  -0.66  0.634703  0.670584  -0.700315  2.365929  -0.526
H  H2  1  0.57932975  0.34491642  0.59391364  1  0.289551  0.000153  0.944538  0.0  0.26586  6.5e-05  1.03496  0.0  0.272008  6.6e-05  1.029739  0.0  0.29701  0.261512  6e-05  1.0387  0.0
H  H3  1  0.42068303  0.84455169  0.90600137  1  0.289846  -0.000153  0.943902  0.0  0.266448  -6.7e-05  1.034103  0.0  0.27262  -6.7e-05  1.028843  0.0  0.2971  0.262094  -6.1e-05  1.037854  0.0
H  H4  1  0.42066771  0.65508347  0.40608483  1  0.28958  0.000153  0.9445  0.0  0.265883  6.5e-05  1.034943  0.0  0.272032  6.6e-05  1.029719  0.0  0.297026  0.261536  6e-05  1.038683  0.0
H  H5  1  0.57931900  0.15544665  0.09399889  1  0.289905  -0.000153  0.943901  0.0  0.266483  -6.7e-05  1.034132  0.0  0.272657  -6.7e-05  1.028869  0.0  0.297111  0.262127  -6.1e-05  1.037888  0.0
H  H6  1  0.68785215  0.12956082  0.54836433  1  0.29364  -0.00215  0.9132  0.0  0.284971  -0.002323  0.975554  0.0  0.291701  -0.001818  0.969423  0.0  0.285147  0.280348  -0.002693  0.979923  0.0
H  H7  1  0.31251334  0.62972006  0.95156220  1  0.29371  0.002144  0.912389  0.0  0.285229  0.002315  0.974555  0.0  0.291951  0.00181  0.968422  0.0  0.28577  0.280613  0.002684  0.978917  0.0
H  H8  1  0.31214372  0.87043601  0.45163572  1  0.293662  -0.00215  0.913193  0.0  0.284995  -0.002323  0.975541  0.0  0.291723  -0.001818  0.969415  0.0  0.285151  0.280372  -0.002693  0.97991  0.0
H  H9  1  0.68748872  0.37027676  0.04843725  1  0.293724  0.002144  0.912397  0.0  0.285248  0.002315  0.974543  0.0  0.291969  0.00181  0.96841  0.0  0.285763  0.280632  0.002684  0.978906  0.0
H  H10  1  0.20991900  0.14057577  0.77897751  1  0.341609  -0.000193  0.905794  0.0  0.314677  -0.000124  0.988776  0.0  0.321879  -0.000118  0.982717  0.0  0.299495  0.309323  -0.000128  0.993514  0.0
H  H11  1  0.79001922  0.64056250  0.72112910  1  0.34123  0.000191  0.905933  0.0  0.314311  0.000124  0.988897  0.0  0.321519  0.000118  0.982837  0.0  0.299582  0.308957  0.000127  0.993627  0.0
H  H12  1  0.79007535  0.85942564  0.22102167  1  0.341621  -0.000193  0.905831  0.0  0.314685  -0.000124  0.988818  0.0  0.321888  -0.000118  0.982759  0.0  0.299506  0.309331  -0.000128  0.993556  0.0
H  H13  1  0.20998438  0.35943736  0.27887040  1  0.34121  0.000192  0.905922  0.0  0.314293  0.000124  0.988891  0.0  0.3215  0.000118  0.982831  0.0  0.299574  0.308939  0.000127  0.99362  0.0
H  H14  1  0.10184153  0.16316467  0.64621745  1  0.332004  0.000481  0.934114  0.0  0.308839  0.00025  1.011618  0.0  0.316581  0.000223  1.005223  0.0  0.279339  0.303381  0.000257  1.016143  0.0
H  H15  1  0.89819249  0.66316536  0.85386279  1  0.331699  -0.000481  0.934765  0.0  0.308668  -0.000249  1.011996  0.0  0.316414  -0.000222  1.00562  0.0  0.279015  0.303202  -0.000257  1.016524  0.0
H  H16  1  0.89815434  0.83683673  0.35378260  1  0.331998  0.00048  0.934115  0.0  0.308828  0.000249  1.011624  0.0  0.31657  0.000223  1.00523  0.0  0.279327  0.303371  0.000257  1.016148  0.0
H  H17  1  0.10181110  0.33683603  0.14613671  1  0.331678  -0.000481  0.934766  0.0  0.308651  -0.000249  1.011988  0.0  0.316398  -0.000222  1.005607  0.0  0.279014  0.303184  -0.000257  1.016515  0.0
C  C18  1  0.89598467  0.12892013  0.76579939  1  0.51503  0.000444  3.817748  0.001  0.465797  0.001557  4.094094  0.002  0.490853  0.000736  4.103678  0.001  0.353424  0.449288  0.002139  4.087426  0.003
C  C19  1  0.10404411  0.62886243  0.73417864  1  0.515363  -0.000466  3.816217  -0.001  0.465168  -0.001564  4.09377  -0.002  0.490386  -0.000742  4.10317  -0.001  0.353173  0.448532  -0.002149  4.087253  -0.003
C  C20  1  0.10400966  0.87107976  0.23420060  1  0.514952  0.000448  3.817753  0.001  0.465731  0.001556  4.094094  0.002  0.490784  0.000736  4.10368  0.001  0.353401  0.449184  0.00214  4.087468  0.003
C  C21  1  0.89595949  0.37113743  0.26582086  1  0.515046  -0.000449  3.816502  -0.001  0.464946  -0.001566  4.093941  -0.002  0.490162  -0.000743  4.103346  -0.001  0.353109  0.448341  -0.002149  4.087379  -0.003
N  N22  1  0.71846134  0.17266591  0.70708661  1  0.127155  0.00262  3.489925  0.004  0.181315  0.001626  3.757317  0.002  0.173429  0.001503  3.773421  0.002  -0.048763  0.186335  0.001722  3.746157  0.003
N  N23  1  0.28158040  0.67248931  0.79280478  1  0.126926  -0.002624  3.487657  -0.004  0.181347  -0.00163  3.755348  -0.002  0.173403  -0.001504  3.771408  -0.002  -0.048517  0.186412  -0.001725  3.744228  -0.003
N  N24  1  0.28153298  0.82733397  0.29291339  1  0.127169  0.002629  3.489771  0.004  0.181331  0.001623  3.757159  0.002  0.173446  0.001502  3.773263  0.002  -0.048762  0.186362  0.001722  3.746006  0.003
N  N25  1  0.71842317  0.32751056  0.20719553  1  0.127084  -0.002636  3.487769  -0.004  0.181459  -0.001628  3.755455  -0.002  0.173515  -0.001502  3.771516  -0.002  -0.048439  0.186514  -0.001726  3.744328  -0.003
N  N26  1  0.55430132  0.14086939  0.77055594  1  -0.13377  0.002163  2.872476  0.003  -0.13098  0.002044  3.161971  0.003  -0.128359  0.000824  3.167449  0.001  -0.077923  -0.132459  0.003073  3.158183  0.004
N  N27  1  0.44565519  0.64070180  0.72916947  1  -0.13338  -0.00216  2.871927  -0.003  -0.130557  -0.002042  3.161352  -0.003  -0.127941  -0.000823  3.166834  -0.001  -0.077431  -0.132038  -0.00307  3.157552  -0.004
N  N28  1  0.44569301  0.85913202  0.22944405  1  -0.133718  0.002157  2.872464  0.003  -0.130935  0.002044  3.161945  0.003  -0.128315  0.000823  3.167423  0.001  -0.077875  -0.132412  0.003073  3.158154  0.004
N  N29  1  0.55434841  0.35929654  0.27083003  1  -0.133364  -0.002162  2.872006  -0.003  -0.130548  -0.00204  3.161453  -0.003  -0.127931  -0.000824  3.166933  -0.001  -0.077471  -0.13203  -0.00307  3.157655  -0.004
N  N30  1  0.62912932  0.08442398  0.86505937  1  -0.026038  -0.000757  3.029664  -0.001  -0.014312  0.000482  3.326417  0.0  -0.008022  -3.6e-05  3.336392  0.0  -0.07623  -0.017792  0.001004  3.319923  0.001
N  N31  1  0.37078485  0.58429028  0.63469210  1  -0.02578  0.000762  3.029658  0.001  -0.014033  -0.000482  3.326163  0.0  -0.007728  3.8e-05  3.33614  0.0  -0.076211  -0.017509  -0.001005  3.319662  -0.001
N  N32  1  0.37086501  0.91557895  0.13494063  1  -0.026086  -0.00076  3.029764  -0.001  -0.014339  0.000481  3.326514  0.0  -0.008047  -3.5e-05  3.336486  0.0  -0.076237  -0.017819  0.001004  3.320019  0.001
N  N33  1  0.62921875  0.41570959  0.36530740  1  -0.025844  0.000771  3.029629  0.001  -0.014098  -0.000479  3.326147  0.0  -0.007793  4e-05  3.336123  0.0  -0.076212  -0.017575  -0.001004  3.319647  -0.001
N  N34  1  0.83815328  0.07324974  0.86567124  1  -0.390278  0.064635  3.254148  0.079  -0.346465  0.048077  3.56897  0.062  -0.382072  0.041237  3.586746  0.056  -0.278147  -0.325488  0.051323  3.558908  0.064
N  N35  1  0.16183492  0.57314152  0.63424030  1  -0.390178  -0.064591  3.253467  -0.079  -0.345898  -0.048059  3.56841  -0.062  -0.38149  -0.041232  3.586002  -0.056  -0.278066  -0.324888  -0.051294  3.558393  -0.064
N  N36  1  0.16184105  0.92675166  0.13432875  1  -0.390234  0.06464  3.254171  0.079  -0.346451  0.048076  3.569003  0.062  -0.38206  0.041237  3.586784  0.056  -0.278174  -0.325463  0.051323  3.558951  0.064
N  N37  1  0.83816871  0.42685835  0.36575838  1  -0.390026  -0.064604  3.253505  -0.079  -0.345755  -0.048064  3.568389  -0.062  -0.381348  -0.041233  3.585985  -0.056  -0.278021  -0.324757  -0.051294  3.558366  -0.064
N  N38  1  0.70548930  0.24963529  0.60198543  1  -0.542195  -0.001481  2.988054  -0.003  -0.545364  -0.001372  3.251829  -0.002  -0.558719  -0.000701  3.248475  -0.002  -0.488142  -0.53628  -0.00182  3.254616  -0.003
N  N39  1  0.29460431  0.74966521  0.89791622  1  -0.541834  0.001392  2.987551  0.003  -0.545567  0.001324  3.250956  0.002  -0.558924  0.000667  3.247568  0.001  -0.488204  -0.536499  0.001763  3.253759  0.002
N  N40  1  0.29450659  0.75036307  0.39801380  1  -0.542251  -0.001486  2.987979  -0.003  -0.545423  -0.00137  3.251752  -0.002  -0.558776  -0.000699  3.248395  -0.002  -0.488175  -0.53634  -0.00182  3.25454  -0.003
N  N41  1  0.70539618  0.25033313  0.10208398  1  -0.541946  0.001392  2.987498  0.003  -0.545663  0.001325  3.250927  0.002  -0.55902  0.000667  3.247535  0.001  -0.488228  -0.536594  0.001763  3.253732  0.002
N  N42  1  0.08325394  0.13083542  0.72705545  1  -0.671708  -0.001463  3.158057  -0.002  -0.639549  -0.000847  3.400655  -0.001  -0.659837  -0.000891  3.396446  -0.001  -0.574772  -0.625232  -0.000758  3.403593  -0.001
N  N43  1  0.91683881  0.63099955  0.77298163  1  -0.67104  0.001453  3.158204  0.001  -0.638695  0.000846  3.401059  0.001  -0.659043  0.000892  3.396806  0.001  -0.57469  -0.624328  0.000753  3.404033  0.001
N  N44  1  0.91674039  0.86916599  0.27294454  1  -0.671708  -0.001465  3.158151  -0.002  -0.639533  -0.000847  3.400744  -0.001  -0.659822  -0.000891  3.396538  -0.001  -0.574769  -0.625202  -0.000758  3.403694  -0.001
N  N45  1  0.08316479  0.36900184  0.22701787  1  -0.670891  0.001452  3.158243  0.001  -0.638577  0.000847  3.401052  0.001  -0.658924  0.000892  3.3968  0.001  -0.574666  -0.62422  0.000753  3.404013  0.001
Cl  Cl46  1  0.20635029  0.28499556  0.97875880  1  -0.511547  0.12509  0.979939  0.143  -0.507597  0.084945  1.26646  0.102  -0.538551  0.067225  1.245137  0.084  -0.288433  -0.489557  0.094872  1.281609  0.111
Cl  Cl47  1  0.79309686  0.78540753  0.52129190  1  -0.51095  -0.125123  0.979704  -0.143  -0.506949  -0.085015  1.266241  -0.102  -0.537918  -0.067296  1.244983  -0.084  -0.288151  -0.488868  -0.094927  1.281339  -0.111
Cl  Cl48  1  0.79364715  0.71500584  0.02124049  1  -0.511563  0.125091  0.979968  0.143  -0.507606  0.084946  1.266484  0.102  -0.538556  0.067226  1.245157  0.084  -0.288436  -0.489566  0.094873  1.281632  0.111
Cl  Cl49  1  0.20690517  0.21459082  0.47870836  1  -0.510943  -0.125124  0.979668  -0.143  -0.506947  -0.085015  1.266204  -0.102  -0.537916  -0.067295  1.244946  -0.084  -0.288148  -0.488856  -0.094928  1.281284  -0.111
