# generated using pymatgen
data_AlH7C9N2O5
_symmetry_space_group_name_H-M   'P 1'
_cell_length_a   6.67215794
_cell_length_b   8.77693141
_cell_length_c   17.00234684
_cell_angle_alpha   102.50019181
_cell_angle_beta   82.29994513
_cell_angle_gamma   75.82375574
_symmetry_Int_Tables_number   1
_chemical_formula_structural   AlH7C9N2O5
_chemical_formula_sum   'Al2 H14 C18 N4 O10'
_cell_volume   923.89714385
_cell_formula_units_Z   2
loop_
 _symmetry_equiv_pos_site_id
 _symmetry_equiv_pos_as_xyz
  1  'x, y, z'
loop_
 _atom_site_type_symbol
 _atom_site_label
 _atom_site_symmetry_multiplicity
 _atom_site_fract_x
 _atom_site_fract_y
 _atom_site_fract_z
 _atom_site_occupancy
 _atom_site_pbe_bader_charge
 _atom_site_pbe_bader_spin_density
 _atom_site_pbe_cm5_charge
 _atom_site_pbe_ddec_charge
 _atom_site_pbe_ddec_spin_density
 _atom_site_pbe_ddec_sum_bond_order
 _atom_site_pbe_magmom
Al  Al0  1  0.00043464  0.49916660  0.49988961  1  2.506944  0  0.398812  1.644066  0  2.581086  0
Al  Al1  1  0.50043104  0.49922269  0.49986748  1  2.499738  0  0.394742  1.640894  0  2.602534  0
H  H2  1  0.17412231  0.63107402  0.59901584  1  0.59573  0  0.356249  0.432833  0  0.848055  0
H  H3  1  0.82689266  0.36726374  0.40070424  1  0.644163  0  0.356265  0.431718  0  0.849822  0
H  H4  1  0.61036859  0.58086065  0.27087281  1  0.085163  0  0.110214  0.114804  0  0.993418  0
H  H5  1  0.66670349  0.58157562  0.12190651  1  0.097095  0  0.106571  0.108171  0  1.019379  0
H  H6  1  0.11619103  0.41719604  0.09676639  1  0.080553  0  0.109898  0.112816  0  0.997766  0
H  H7  1  0.05631630  0.42066194  0.24666530  1  0.092553  0  0.108212  0.109141  0  0.998377  0
H  H8  1  0.88174615  0.58636235  0.90347796  1  0.088836  0  0.109522  0.113063  0  0.995721  0
H  H9  1  0.33310558  0.41942788  0.87829079  1  0.11672  0  0.106838  0.108112  0  1.01927  0
H  H10  1  0.39018857  0.41860862  0.72914334  1  0.085273  0  0.11032  0.1147  0  0.992828  0
H  H11  1  0.94261645  0.58102492  0.75335606  1  0.097026  0  0.108554  0.110668  0  0.997138  0
H  H12  1  0.73417475  0.14779338  0.51260776  1  0.482436  0  0.304084  0.308217  0  0.986133  0
H  H13  1  0.87873955  0.97622235  0.53745672  1  0.45818  0  0.299426  0.292113  0  0.985464  0
H  H14  1  0.26611641  0.85092463  0.48739685  1  0.473899  0  0.30367  0.307411  0  0.986335  0
H  H15  1  0.12192264  0.02253727  0.46257058  1  0.466701  0  0.298663  0.291889  0  0.985696  0
C  C16  1  0.65316198  0.78963629  0.51115424  1  1.493657  0  0.253559  0.597002  0  4.097434  0
C  C17  1  0.69838266  0.50465668  0.64483261  1  1.559342  0  0.26848  0.641997  0  4.094791  0
C  C18  1  0.34763942  0.20884845  0.48874481  1  1.501803  0  0.253763  0.597882  0  4.10128  0
C  C19  1  0.30196835  0.49475358  0.35504034  1  1.560886  0  0.268693  0.642271  0  4.096115  0
C  C20  1  0.33193671  0.49799376  0.26702032  1  -0.013553  0  -0.011945  -0.041673  0  3.9579  0
C  C21  1  0.50396548  0.54417172  0.23202202  1  0.042385  0  -0.076796  -0.078222  0  3.970758  0
C  C22  1  0.53574917  0.54470901  0.14984610  1  -0.070645  0  -0.082515  -0.141442  0  3.945385  0
C  C23  1  0.39601534  0.49659057  0.10092757  1  0.36036  0  0.091911  0.175786  0  4.036764  0
C  C24  1  0.22224623  0.45313497  0.13602789  1  -0.003368  0  -0.077861  -0.139311  0  3.947644  0
C  C25  1  0.19002360  0.45449532  0.21870905  1  -0.07248  0  -0.077638  -0.077546  0  3.971713  0
C  C26  1  0.77626630  0.54951657  0.86417700  1  -0.048694  0  -0.078109  -0.139855  0  3.94602  0
C  C27  1  0.60274134  0.50582764  0.89932401  1  0.388074  0  0.091559  0.175876  0  4.034691  0
C  C28  1  0.46379287  0.45653700  0.85033702  1  -0.080811  0  -0.083233  -0.142223  0  3.94579  0
C  C29  1  0.49595682  0.45624450  0.76804771  1  -0.014273  0  -0.076759  -0.07692  0  3.969967  0
C  C30  1  0.66779753  0.50256109  0.73299840  1  0.029064  0  -0.011721  -0.041997  0  3.958176  0
C  C31  1  0.80903268  0.54713296  0.78136613  1  -0.061736  0  -0.077935  -0.079921  0  3.972809  0
C  C32  1  0.60001455  0.95980973  0.50558515  1  0.475464  0  0.078842  0.051156  0  4.022102  0
C  C33  1  0.40058921  0.03877243  0.49445093  1  0.504755  0  0.07687  0.047594  0  4.023153  0
N  N34  1  0.41559387  0.48866180  0.01628644  1  -0.505425  0  -0.150213  -0.139134  0  3.279229  0
N  N35  1  0.58290122  0.51424097  0.98401649  1  -0.472879  0  -0.148667  -0.13793  0  3.27806  0
N  N36  1  0.76605618  0.02692238  0.50874771  1  -1.248368  0  -0.600559  -0.591658  0  3.413526  0
N  N37  1  0.23431812  0.97184315  0.49139893  1  -1.221397  0  -0.599149  -0.59036  0  3.411945  0
O  O38  1  0.84538802  0.72233567  0.51281146  1  -1.267286  0  -0.245109  -0.592706  0  2.347743  0
O  O39  1  0.54169542  0.50064634  0.60971351  1  -1.261098  0  -0.236031  -0.597618  0  2.352464  0
O  O40  1  0.49523817  0.27896557  0.48480334  1  -1.271603  0  -0.24046  -0.600445  0  2.410202  0
O  O41  1  0.12320103  0.48771304  0.38888426  1  -1.264816  0  -0.235544  -0.595681  0  2.342841  0
O  O42  1  0.15547890  0.27610895  0.48698246  1  -1.269874  0  -0.245637  -0.593653  0  2.350001  0
O  O43  1  0.45888178  0.49831105  0.39007367  1  -1.263047  0  -0.2362  -0.598024  0  2.352249  0
O  O44  1  0.50557849  0.71953160  0.51505465  1  -1.271227  0  -0.240771  -0.599741  0  2.407485  0
O  O45  1  0.87739985  0.51116010  0.61094117  1  -1.265843  0  -0.23576  -0.59614  0  2.342654  0
O  O46  1  0.21155785  0.57626618  0.54095892  1  -1.394912  0  -0.448347  -0.989571  0  2.20426  0
O  O47  1  0.78931327  0.42206344  0.45876425  1  -1.443464  0  -0.448757  -0.988411  0  2.204759  0
