# generated using pymatgen
data_Na2CdH8(C8O5)2
_symmetry_space_group_name_H-M   'P 1'
_cell_length_a   6.53817307
_cell_length_b   11.45670162
_cell_length_c   11.56079839
_cell_angle_alpha   77.84098319
_cell_angle_beta   76.92201850
_cell_angle_gamma   77.21839300
_symmetry_Int_Tables_number   1
_chemical_formula_structural   Na2CdH8(C8O5)2
_chemical_formula_sum   'Na4 Cd2 H16 C32 O20'
_cell_volume   810.77294577
_cell_formula_units_Z   2
loop_
 _symmetry_equiv_pos_site_id
 _symmetry_equiv_pos_as_xyz
  1  'x, y, z'
loop_
 _atom_site_type_symbol
 _atom_site_label
 _atom_site_symmetry_multiplicity
 _atom_site_fract_x
 _atom_site_fract_y
 _atom_site_fract_z
 _atom_site_occupancy
 _atom_site_hle17_bader_spin_density
 _atom_site_hle17_ddec_charge
 _atom_site_hle17_ddec_spin_density
 _atom_site_hle17_ddec_sum_bond_order
 _atom_site_hle17_magmom
 _atom_site_hse06_10hf_bader_spin_density
 _atom_site_hse06_10hf_ddec_charge
 _atom_site_hse06_10hf_ddec_spin_density
 _atom_site_hse06_10hf_ddec_sum_bond_order
 _atom_site_hse06_10hf_magmom
 _atom_site_hse06_bader_spin_density
 _atom_site_hse06_ddec_charge
 _atom_site_hse06_ddec_spin_density
 _atom_site_hse06_ddec_sum_bond_order
 _atom_site_hse06_magmom
 _atom_site_pbe_bader_spin_density
 _atom_site_pbe_cm5_charge
 _atom_site_pbe_ddec_charge
 _atom_site_pbe_ddec_spin_density
 _atom_site_pbe_ddec_sum_bond_order
 _atom_site_pbe_magmom
Na  Na0  1  0.42689675  0.84725520  0.02827233  1  0  0.924166  0  0.35977  0  0  0.891328  0  0.495929  0  0  0.899233  0  0.478399  0  0  0.683964  0.885112  0  0.5088  0
Na  Na1  1  0.57310422  0.15274427  0.97172632  1  0  0.924182  0  0.359755  0  0  0.891333  0  0.495929  0  0  0.899243  0  0.478398  0  0  0.683955  0.885115  0  0.508805  0
Na  Na2  1  0.87602075  0.36291078  0.03825649  1  0  0.913534  0  0.360305  0  0  0.869471  0  0.50841  0  0  0.88042  0  0.486499  0  0  0.6559  0.861296  0  0.524109  0
Na  Na3  1  0.12397711  0.63708868  0.96174517  1  0  0.913536  0  0.360307  0  0  0.869477  0  0.508394  0  0  0.880425  0  0.486497  0  0  0.655903  0.861305  0  0.524097  0
Cd  Cd4  1  0.85894925  0.84421761  0.16267819  1  0  1.241857  0  1.630147  0  0  1.071907  0  2.085682  0  0  1.13342  0  2.020958  0  0  0.794398  1.027663  0  2.13021  0
Cd  Cd5  1  0.14105330  0.15578187  0.83732112  1  0  1.241852  0  1.630157  0  0  1.071888  0  2.085698  0  0  1.133401  0  2.020974  0  0  0.794388  1.027641  0  2.130226  0
H  H6  1  0.60286189  0.63654004  0.94036665  1  0  0.424358  0  0.859048  0  0  0.397376  0  0.921712  0  0  0.407131  0  0.906921  0  0  0.310529  0.390413  0  0.932278  0
H  H7  1  0.39714039  0.36346036  0.05963855  1  0  0.424387  0  0.859021  0  0  0.397402  0  0.921681  0  0  0.40716  0  0.906883  0  0  0.31056  0.390439  0  0.932247  0
H  H8  1  0.59404946  0.69698828  0.80741351  1  0  0.41958  0  0.838995  0  0  0.40099  0  0.901747  0  0  0.406841  0  0.893675  0  0  0.317962  0.39687  0  0.905805  0
H  H9  1  0.40595402  0.30300848  0.19258971  1  0  0.41959  0  0.838969  0  0  0.400998  0  0.901729  0  0  0.406848  0  0.893659  0  0  0.317969  0.39688  0  0.905779  0
H  H10  1  0.38818056  0.05845612  0.46955218  1  0  0.108133  0  0.968412  0  0  0.115316  0  1.033285  0  0  0.119207  0  1.029602  0  0  0.106192  0.112456  0  1.036125  0
H  H11  1  0.61182264  0.94154609  0.53044473  1  0  0.108083  0  0.968423  0  0  0.115291  0  1.033279  0  0  0.11918  0  1.029594  0  0  0.106178  0.112429  0  1.036118  0
H  H12  1  0.04949945  0.17141374  0.57080948  1  0  0.132465  0  0.955206  0  0  0.140137  0  1.018985  0  0  0.144212  0  1.016307  0  0  0.111696  0.137169  0  1.021082  0
H  H13  1  0.95050436  0.82858665  0.42918860  1  0  0.132453  0  0.955211  0  0  0.140133  0  1.018989  0  0  0.144205  0  1.016309  0  0  0.111692  0.137166  0  1.021087  0
H  H14  1  0.76515568  0.18728689  0.26569189  1  0  0.111981  0  0.958784  0  0  0.124262  0  1.017921  0  0  0.127409  0  1.017257  0  0  0.11061  0.121981  0  1.01859  0
H  H15  1  0.23484308  0.81270984  0.73430935  1  0  0.111967  0  0.958836  0  0  0.124261  0  1.017954  0  0  0.127409  0  1.017291  0  0  0.110605  0.12198  0  1.018623  0
H  H16  1  0.06795667  0.47670484  0.42201116  1  0  0.098833  0  0.967435  0  0  0.109622  0  1.028382  0  0  0.112227  0  1.026978  0  0  0.105009  0.107695  0  1.029573  0
H  H17  1  0.93204275  0.52329463  0.57799115  1  0  0.09883  0  0.967426  0  0  0.10962  0  1.028368  0  0  0.112225  0  1.026963  0  0  0.104993  0.107693  0  1.029558  0
H  H18  1  0.29388241  0.30551027  0.53480039  1  0  0.139187  0  0.944131  0  0  0.147977  0  1.004536  0  0  0.152098  0  1.001743  0  0  0.114366  0.145043  0  1.006617  0
H  H19  1  0.70612141  0.69449012  0.46520029  1  0  0.139189  0  0.944123  0  0  0.14798  0  1.004529  0  0  0.152101  0  1.001736  0  0  0.114361  0.145047  0  1.006608  0
H  H20  1  0.85554159  0.41018855  0.29519688  1  0  0.10586  0  0.961669  0  0  0.116354  0  1.023615  0  0  0.119645  0  1.022546  0  0  0.108935  0.113878  0  1.024711  0
H  H21  1  0.14445939  0.58981092  0.70480177  1  0  0.10591  0  0.961651  0  0  0.116385  0  1.023614  0  0  0.119676  0  1.022545  0  0  0.108933  0.113908  0  1.024711  0
C  C22  1  0.48239093  0.99398914  0.24965389  1  0  0.656898  0  3.911962  0  0  0.610736  0  4.200499  0  0  0.645791  0  4.19308  0  0  0.200044  0.587011  0  4.204615  0
C  C23  1  0.51761445  0.00601126  0.75034399  1  0  0.656815  0  3.911971  0  0  0.610645  0  4.200529  0  0  0.6457  0  4.19311  0  0  0.200005  0.58692  0  4.204643  0
C  C24  1  0.27307867  0.05920908  0.30854205  1  0  -0.103809  0  3.733276  0  0  -0.093697  0  3.971943  0  0  -0.102231  0  3.993593  0  0  -0.02212  -0.088303  0  3.957478  0
C  C25  1  0.72692357  0.94079130  0.69145624  1  0  -0.103776  0  3.733249  0  0  -0.093663  0  3.971917  0  0  -0.102197  0  3.993571  0  0  -0.022109  -0.088269  0  3.95745  0
C  C26  1  0.25232992  0.08566595  0.42423794  1  0  -0.035841  0  3.724703  0  0  -0.062062  0  3.984306  0  0  -0.059303  0  4.002502  0  0  -0.078237  -0.063698  0  3.971964  0
C  C27  1  0.74767388  0.91433444  0.57576014  1  0  -0.03579  0  3.724691  0  0  -0.062034  0  3.984305  0  0  -0.059272  0  4.002498  0  0  -0.078227  -0.063668  0  3.971967  0
C  C28  1  0.06380778  0.14913126  0.48207990  1  0  -0.162982  0  3.708865  0  0  -0.190088  0  3.97104  0  0  -0.195828  0  3.990034  0  0  -0.09356  -0.186306  0  3.95825  0
C  C29  1  0.93619289  0.85086912  0.51791947  1  0  -0.162961  0  3.708924  0  0  -0.190095  0  3.97113  0  0  -0.19583  0  3.990118  0  0  -0.093579  -0.186319  0  3.958338  0
C  C30  1  0.89090066  0.18807314  0.42313772  1  0  0.292873  0  3.782608  0  0  0.283588  0  4.044839  0  0  0.295415  0  4.059847  0  0  0.092639  0.275534  0  4.034534  0
C  C31  1  0.10910031  0.81192633  0.57686007  1  0  0.292866  0  3.782735  0  0  0.283588  0  4.044937  0  0  0.295417  0  4.059945  0  0  0.092656  0.275544  0  4.03462  0
C  C32  1  0.90423466  0.16089708  0.30892818  1  0  -0.226518  0  3.76017  0  0  -0.254758  0  4.008314  0  0  -0.261009  0  4.028441  0  0  -0.10048  -0.250601  0  3.994713  0
C  C33  1  0.09576662  0.83910148  0.69107149  1  0  -0.226498  0  3.760217  0  0  -0.254749  0  4.008339  0  0  -0.261001  0  4.028465  0  0  -0.100471  -0.250596  0  3.994734  0
C  C34  1  0.09446420  0.09736411  0.25127620  1  0  -0.040834  0  3.739483  0  0  -0.023481  0  3.971816  0  0  -0.024979  0  3.990851  0  0  -0.00383  -0.022367  0  3.958973  0
C  C35  1  0.90553552  0.90263445  0.74872367  1  0  -0.040867  0  3.739429  0  0  -0.023509  0  3.971772  0  0  -0.025005  0  3.990808  0  0  -0.003827  -0.022395  0  3.95893  0
C  C36  1  0.09779426  0.07248644  0.12797780  1  0  0.717969  0  3.870552  0  0  0.663524  0  4.169793  0  0  0.700252  0  4.156335  0  0  0.226784  0.638228  0  4.178614  0
C  C37  1  0.90220419  0.92751120  0.87202243  1  0  0.718034  0  3.870444  0  0  0.663555  0  4.16974  0  0  0.700275  0  4.156294  0  0  0.226798  0.638259  0  4.178561  0
C  C38  1  0.18840955  0.64286574  0.23390124  1  0  0.67294  0  3.917552  0  0  0.623691  0  4.211808  0  0  0.658994  0  4.202768  0  0  0.204989  0.599688  0  4.217154  0
C  C39  1  0.81158988  0.35713373  0.76610107  1  0  0.672823  0  3.917552  0  0  0.623564  0  4.211838  0  0  0.658866  0  4.202802  0  0  0.204938  0.59956  0  4.217185  0
C  C40  1  0.33184659  0.54161730  0.29765983  1  0  -0.088764  0  3.732427  0  0  -0.078421  0  3.970416  0  0  -0.085158  0  3.99004  0  0  -0.019107  -0.074215  0  3.957467  0
C  C41  1  0.66815190  0.45838488  0.70233943  1  0  -0.088728  0  3.732433  0  0  -0.078389  0  3.970438  0  0  -0.085108  0  3.990071  0  0  -0.019114  -0.074183  0  3.957487  0
C  C42  1  0.24107692  0.46224490  0.39554129  1  0  -0.060264  0  3.753246  0  0  -0.085042  0  4.009515  0  0  -0.083196  0  4.028003  0  0  -0.085816  -0.086195  0  3.99721  0
C  C43  1  0.75892346  0.53775639  0.60445879  1  0  -0.060291  0  3.753293  0  0  -0.085067  0  4.009561  0  0  -0.08322  0  4.028044  0  0  -0.085819  -0.08622  0  3.997256  0
C  C44  1  0.36551086  0.36520841  0.45742147  1  0  -0.1649  0  3.709309  0  0  -0.191835  0  3.970782  0  0  -0.196544  0  3.988937  0  0  -0.095104  -0.188721  0  3.958579  0
C  C45  1  0.63448825  0.63479196  0.54257982  1  0  -0.164915  0  3.709333  0  0  -0.191837  0  3.970814  0  0  -0.196547  0  3.988966  0  0  -0.095099  -0.188723  0  3.958607  0
C  C46  1  0.58670957  0.34568245  0.41897634  1  0  0.286494  0  3.784691  0  0  0.277455  0  4.046723  0  0  0.28889  0  4.062046  0  0  0.090259  0.269639  0  4.036162  0
C  C47  1  0.41328922  0.65431882  0.58102221  1  0  0.286567  0  3.784503  0  0  0.277482  0  4.046575  0  0  0.288922  0  4.06189  0  0  0.090276  0.269666  0  4.036016  0
C  C48  1  0.68195603  0.42392800  0.32161398  1  0  -0.229912  0  3.767833  0  0  -0.258841  0  4.019586  0  0  -0.26455  0  4.039317  0  0  -0.101003  -0.255011  0  4.006504  0
C  C49  1  0.31803995  0.57607236  0.67838686  1  0  -0.230045  0  3.767836  0  0  -0.258949  0  4.019625  0  0  -0.264643  0  4.039369  0  0  -0.101043  -0.255121  0  4.006542  0
C  C50  1  0.55567896  0.52140374  0.26060523  1  0  -0.035175  0  3.735139  0  0  -0.020461  0  3.967648  0  0  -0.022005  0  3.98627  0  0  -0.005687  -0.019554  0  3.955346  0
C  C51  1  0.44431955  0.47859845  0.73939490  1  0  -0.035119  0  3.73518  0  0  -0.020404  0  3.967712  0  0  -0.022001  0  3.986398  0  0  -0.005686  -0.019493  0  3.955403  0
C  C52  1  0.66521710  0.60624823  0.15993058  1  0  0.703322  0  3.894849  0  0  0.653749  0  4.191845  0  0  0.688312  0  4.180302  0  0  0.216468  0.630101  0  4.199204  0
C  C53  1  0.33477543  0.39375301  0.84006879  1  0  0.703236  0  3.895003  0  0  0.65362  0  4.192093  0  0  0.688204  0  4.180541  0  0  0.216384  0.62997  0  4.199449  0
O  O54  1  0.61828126  0.93695842  0.31460862  1  0  -0.614202  0  1.946516  0  0  -0.551255  0  2.184965  0  0  -0.581073  0  2.176392  0  0  -0.31214  -0.530427  0  2.189966  0
O  O55  1  0.38172036  0.06304378  0.68538851  1  0  -0.614225  0  1.946422  0  0  -0.551259  0  2.184848  0  0  -0.581078  0  2.176278  0  0  -0.312152  -0.53043  0  2.189847  0
O  O56  1  0.52189966  0.99741741  0.13491139  1  0  -0.759011  0  1.996884  0  0  -0.704755  0  2.250675  0  0  -0.730239  0  2.236487  0  0  -0.42796  -0.686572  0  2.259685  0
O  O57  1  0.47809973  0.00258205  0.86508574  1  0  -0.758926  0  1.996973  0  0  -0.704653  0  2.250727  0  0  -0.730135  0  2.236536  0  0  -0.427914  -0.68647  0  2.259736  0
O  O58  1  0.11279541  0.96426017  0.11277231  1  0  -0.715858  0  2.080467  0  0  -0.657877  0  2.353761  0  0  -0.684795  0  2.33605  0  0  -0.392323  -0.638788  0  2.365366  0
O  O59  1  0.88720588  0.03573839  0.88722736  1  0  -0.715876  0  2.080399  0  0  -0.657888  0  2.353717  0  0  -0.6848  0  2.336003  0  0  -0.392329  -0.638798  0  2.365321  0
O  O60  1  0.08020997  0.16577072  0.04553862  1  0  -0.726822  0  2.035444  0  0  -0.670187  0  2.306463  0  0  -0.696795  0  2.287947  0  0  -0.373522  -0.651398  0  2.318574  0
O  O61  1  0.91978660  0.83422781  0.95446080  1  0  -0.726859  0  2.035415  0  0  -0.67021  0  2.306436  0  0  -0.696821  0  2.28794  0  0  -0.373549  -0.651423  0  2.318549  0
O  O62  1  0.70553129  0.25010200  0.48363401  1  0  -0.268776  0  2.317801  0  0  -0.200714  0  2.536024  0  0  -0.218891  0  2.538166  0  0  -0.138066  -0.187837  0  2.534103  0
O  O63  1  0.29447095  0.74989838  0.51636341  1  0  -0.2688  0  2.317861  0  0  -0.200701  0  2.536066  0  0  -0.218878  0  2.538208  0  0  -0.138037  -0.187826  0  2.534141  0
O  O64  1  0.01739353  0.69251127  0.29690958  1  0  -0.627282  0  1.972621  0  0  -0.560621  0  2.21366  0  0  -0.591112  0  2.203508  0  0  -0.312121  -0.53924  0  2.219833  0
O  O65  1  0.98260560  0.30748911  0.70309257  1  0  -0.627249  0  1.972615  0  0  -0.560565  0  2.213635  0  0  -0.591057  0  2.203487  0  0  -0.312097  -0.539184  0  2.219809  0
O  O66  1  0.23892701  0.67395324  0.12003784  1  0  -0.767907  0  1.98828  0  0  -0.714806  0  2.237178  0  0  -0.739415  0  2.223496  0  0  -0.451465  -0.697216  0  2.245946  0
O  O67  1  0.76106958  0.32604531  0.87996417  1  0  -0.767828  0  1.988245  0  0  -0.71472  0  2.237155  0  0  -0.739336  0  2.223487  0  0  -0.451418  -0.697128  0  2.245919  0
O  O68  1  0.62400851  0.71749553  0.17065484  1  0  -0.697084  0  2.050083  0  0  -0.637817  0  2.307702  0  0  -0.666  0  2.294134  0  0  -0.380873  -0.617795  0  2.316359  0
O  O69  1  0.37599376  0.28250487  0.82934778  1  0  -0.697097  0  2.050206  0  0  -0.637815  0  2.307853  0  0  -0.666001  0  2.294276  0  0  -0.380895  -0.617791  0  2.316509  0
O  O70  1  0.79235885  0.56154566  0.07216674  1  0  -0.767885  0  1.914389  0  0  -0.717793  0  2.151007  0  0  -0.739245  0  2.13407  0  0  -0.437659  -0.702514  0  2.162308  0
O  O71  1  0.20762866  0.43845647  0.92783050  1  0  -0.767819  0  1.914461  0  0  -0.7177  0  2.151094  0  0  -0.739153  0  2.134148  0  0  -0.437553  -0.702421  0  2.162394  0
O  O72  1  0.50925503  0.69184324  0.88869666  1  0  -0.856623  0  1.775244  0  0  -0.822975  0  1.944797  0  0  -0.837136  0  1.91873  0  0  -0.619666  -0.813024  0  1.96153  0
O  O73  1  0.49074658  0.30815442  0.11130661  1  0  -0.856656  0  1.775201  0  0  -0.82301  0  1.944755  0  0  -0.837167  0  1.918686  0  0  -0.619684  -0.813058  0  1.96148  0
