# generated using pymatgen
data_AgH6(C5O)2
_symmetry_space_group_name_H-M   'P 1'
_cell_length_a   9.33293530
_cell_length_b   10.21601420
_cell_length_c   10.21603311
_cell_angle_alpha   66.46671529
_cell_angle_beta   70.46555736
_cell_angle_gamma   70.46550063
_symmetry_Int_Tables_number   1
_chemical_formula_structural   AgH6(C5O)2
_chemical_formula_sum   'Ag4 H24 C40 O8'
_cell_volume   818.57815348
_cell_formula_units_Z   4
loop_
 _symmetry_equiv_pos_site_id
 _symmetry_equiv_pos_as_xyz
  1  'x, y, z'
loop_
 _atom_site_type_symbol
 _atom_site_label
 _atom_site_symmetry_multiplicity
 _atom_site_fract_x
 _atom_site_fract_y
 _atom_site_fract_z
 _atom_site_occupancy
 _atom_site_pbe_bader_spin_density
 _atom_site_pbe_cm5_charge
 _atom_site_pbe_ddec_charge
 _atom_site_pbe_ddec_spin_density
 _atom_site_pbe_ddec_sum_bond_order
 _atom_site_pbe_magmom
Ag  Ag0  1  0.09110185  0.37373782  0.65937351  1  0  0.425577  0.460223  0  1.822297  0
Ag  Ag1  1  0.40889910  0.34062578  0.62626154  1  0  0.425577  0.46023  0  1.82226  0
Ag  Ag2  1  0.90889929  0.62626193  0.34062684  1  0  0.425582  0.460233  0  1.82228  0
Ag  Ag3  1  0.59110117  0.65937286  0.37373856  1  0  0.425584  0.460246  0  1.822245  0
H  H4  1  0.03108067  0.08180990  0.13343334  1  0  0.102522  0.099953  0  1.050035  0
H  H5  1  0.46891727  0.86656470  0.91819041  1  0  0.102529  0.099951  0  1.050033  0
H  H6  1  0.96891958  0.91818871  0.86656382  1  0  0.102517  0.099935  0  1.05006  0
H  H7  1  0.53108526  0.13343392  0.08180702  1  0  0.102524  0.099925  0  1.049997  0
H  H8  1  0.13603597  0.75276117  0.55652572  1  0  0.100269  0.107219  0  1.019255  0
H  H9  1  0.36396700  0.44347407  0.24724250  1  0  0.100265  0.107218  0  1.019254  0
H  H10  1  0.86396175  0.24723857  0.44347472  1  0  0.100254  0.107219  0  1.019236  0
H  H11  1  0.63603274  0.55652681  0.75276174  1  0  0.100278  0.107228  0  1.019239  0
H  H12  1  0.91653135  0.76981134  0.76831838  1  0  0.098791  0.094106  0  1.018453  0
H  H13  1  0.58346939  0.23168046  0.23018812  1  0  0.098812  0.094156  0  1.018465  0
H  H14  1  0.08346723  0.23018950  0.23168134  1  0  0.09881  0.094172  0  1.018446  0
H  H15  1  0.41652806  0.76832038  0.76981293  1  0  0.098819  0.094176  0  1.018457  0
H  H16  1  0.64898094  0.91445015  0.73166815  1  0  0.097029  0.098604  0  1.030465  0
H  H17  1  0.85102108  0.26833018  0.08554605  1  0  0.097037  0.098594  0  1.030476  0
H  H18  1  0.35101650  0.08555068  0.26833192  1  0  0.097041  0.098616  0  1.030444  0
H  H19  1  0.14897663  0.73166953  0.91445244  1  0  0.097043  0.098599  0  1.030472  0
H  H20  1  0.60450114  0.02819587  0.47945152  1  0  0.097553  0.092238  0  1.032822  0
H  H21  1  0.89549789  0.52055033  0.97179988  1  0  0.097553  0.092271  0  1.03276  0
H  H22  1  0.39549685  0.97180276  0.52054928  1  0  0.097554  0.092234  0  1.032836  0
H  H23  1  0.10450210  0.47944940  0.02819887  1  0  0.097536  0.092237  0  1.032822  0
H  H24  1  0.82159548  0.99792220  0.26685172  1  0  0.098882  0.101186  0  1.030171  0
H  H25  1  0.67840258  0.73315099  0.00207613  1  0  0.098886  0.10117  0  1.030148  0
H  H26  1  0.17840312  0.00207866  0.73315092  1  0  0.098878  0.10117  0  1.030157  0
H  H27  1  0.32159687  0.26685095  0.99792385  1  0  0.098879  0.101181  0  1.03014  0
C  C28  1  0.24999990  0.12061085  0.87938681  1  0  0.199258  0.547398  0  4.225448  0
C  C29  1  0.75000063  0.87938668  0.12061267  1  0  0.19926  0.547428  0  4.225443  0
C  C30  1  0.25000038  0.98683905  0.01315848  1  0  -0.020269  -0.02287  0  3.991031  0
C  C31  1  0.75000242  0.01315847  0.98683834  1  0  -0.020298  -0.022884  0  3.99105  0
C  C32  1  0.12605591  0.98442273  0.13643674  1  0  -0.07863  -0.124802  0  3.934981  0
C  C33  1  0.37394584  0.86356390  0.01557807  1  0  -0.078676  -0.124849  0  3.935012  0
C  C34  1  0.87394350  0.01557480  0.86356406  1  0  -0.078635  -0.124799  0  3.935044  0
C  C35  1  0.62606097  0.13643585  0.98442052  1  0  -0.078633  -0.12479  0  3.935004  0
C  C36  1  0.12487736  0.86222134  0.26393400  1  0  -0.004955  0.051205  0  3.97538  0
C  C37  1  0.37512284  0.73606702  0.13778065  1  0  -0.004889  0.051278  0  3.975316  0
C  C38  1  0.87512318  0.13777620  0.73606645  1  0  -0.004933  0.051177  0  3.975369  0
C  C39  1  0.62488117  0.26393493  0.86221889  1  0  -0.004923  0.051191  0  3.975476  0
C  C40  1  0.25000058  0.73721946  0.26278170  1  0  -0.008768  -0.112642  0  3.892963  0
C  C41  1  0.75000310  0.26277919  0.73721831  1  0  -0.008786  -0.112531  0  3.892916  0
C  C42  1  0.24999963  0.60362203  0.39637944  1  0  0.212156  0.568942  0  4.21586  0
C  C43  1  0.75000123  0.39637882  0.60362153  1  0  0.21214  0.568914  0  4.215902  0
C  C44  1  0.99489235  0.87025855  0.39484996  1  0  -0.017071  0.050437  0  4.010577  0
C  C45  1  0.50510499  0.60514977  0.12974299  1  0  -0.017119  0.050394  0  4.010594  0
C  C46  1  0.00510623  0.12974227  0.60514781  1  0  -0.017086  0.050408  0  4.0107  0
C  C47  1  0.49489642  0.39484886  0.87025675  1  0  -0.017104  0.050444  0  4.010598  0
C  C48  1  0.01887305  0.80755068  0.53823156  1  0  -0.091056  -0.119519  0  3.949027  0
C  C49  1  0.48112902  0.46176940  0.19244831  1  0  -0.091055  -0.119517  0  3.948956  0
C  C50  1  0.98112694  0.19244905  0.46176719  1  0  -0.09105  -0.119494  0  3.949066  0
C  C51  1  0.51887071  0.53823146  0.80755398  1  0  -0.091052  -0.119501  0  3.948966  0
C  C52  1  0.89472505  0.81957222  0.65845976  1  0  -0.092279  -0.075007  0  4.012031  0
C  C53  1  0.60527854  0.34153789  0.18042503  1  0  -0.092285  -0.075064  0  4.01202  0
C  C54  1  0.10527380  0.18042750  0.34153837  1  0  -0.092315  -0.075153  0  4.012089  0
C  C55  1  0.39472032  0.65846185  0.81957506  1  0  -0.092306  -0.075149  0  4.012114  0
C  C56  1  0.74500721  0.89887672  0.63864697  1  0  -0.092869  -0.079924  0  3.986867  0
C  C57  1  0.75499577  0.36135009  0.10112250  1  0  -0.092921  -0.079939  0  3.98696  0
C  C58  1  0.25499223  0.10112521  0.36135204  1  0  -0.092861  -0.079875  0  3.986825  0
C  C59  1  0.24500423  0.63864966  0.89887918  1  0  -0.092937  -0.079909  0  3.986973  0
C  C60  1  0.72007921  0.96405127  0.49688416  1  0  -0.095129  -0.085707  0  4.028417  0
C  C61  1  0.77991901  0.50311569  0.03594696  1  0  -0.095132  -0.085772  0  4.028363  0
C  C62  1  0.27991910  0.03595066  0.50311520  1  0  -0.095153  -0.085739  0  4.028454  0
C  C63  1  0.22007985  0.49688404  0.96405312  1  0  -0.095112  -0.085754  0  4.02842  0
C  C64  1  0.84307511  0.94836846  0.37672728  1  0  -0.094695  -0.138012  0  3.993505  0
C  C65  1  0.65692410  0.62327325  0.05163340  1  0  -0.094658  -0.137933  0  3.993368  0
C  C66  1  0.15692374  0.05163127  0.62327280  1  0  -0.094654  -0.137944  0  3.993467  0
C  C67  1  0.34307704  0.37672651  0.94836792  1  0  -0.094641  -0.137938  0  3.993346  0
O  O68  1  0.12114315  0.21732409  0.87344876  1  0  -0.327964  -0.520583  0  2.367254  0
O  O69  1  0.37885722  0.12654993  0.78267710  1  0  -0.327972  -0.520611  0  2.367269  0
O  O70  1  0.87885826  0.78267455  0.12655098  1  0  -0.327966  -0.520623  0  2.367271  0
O  O71  1  0.62114277  0.87344980  0.21732262  1  0  -0.327963  -0.520604  0  2.36726  0
O  O72  1  0.14429862  0.53429607  0.43292432  1  0  -0.317152  -0.502022  0  2.497426  0
O  O73  1  0.35570197  0.56707694  0.46570373  1  0  -0.317157  -0.502014  0  2.497431  0
O  O74  1  0.85570279  0.46570257  0.56707640  1  0  -0.317134  -0.502004  0  2.497507  0
O  O75  1  0.64429862  0.43292500  0.53429687  1  0  -0.317152  -0.502031  0  2.497433  0
