# generated using pymatgen
data_Al4H25C37I2NO20
_symmetry_space_group_name_H-M   'P 1'
_cell_length_a   6.66343640
_cell_length_b   16.48047750
_cell_length_c   18.54161498
_cell_angle_alpha   106.79836624
_cell_angle_beta   90.08585588
_cell_angle_gamma   90.04076388
_symmetry_Int_Tables_number   1
_chemical_formula_structural   Al4H25C37I2NO20
_chemical_formula_sum   'Al4 H25 C37 I2 N1 O20'
_cell_volume   1949.28549529
_cell_formula_units_Z   1
loop_
 _symmetry_equiv_pos_site_id
 _symmetry_equiv_pos_as_xyz
  1  'x, y, z'
loop_
 _atom_site_type_symbol
 _atom_site_label
 _atom_site_symmetry_multiplicity
 _atom_site_fract_x
 _atom_site_fract_y
 _atom_site_fract_z
 _atom_site_occupancy
 _atom_site_pbe_bader_charge
 _atom_site_pbe_bader_spin_density
 _atom_site_pbe_cm5_charge
 _atom_site_pbe_ddec_charge
 _atom_site_pbe_ddec_spin_density
 _atom_site_pbe_ddec_sum_bond_order
 _atom_site_pbe_magmom
Al  Al0  1  0.13296741  0.50017567  0.50032640  1  2.500674  0  0.402468  1.642851  0  2.564828  0
Al  Al1  1  0.63404776  0.50067262  0.49970556  1  2.502869  0  0.396474  1.648891  0  2.572088  0
Al  Al2  1  0.64353681  0.00075610  0.00032624  1  2.501269  0  0.400012  1.641133  0  2.58315  0
Al  Al3  1  0.14273146  0.00028478  0.99908250  1  2.501164  0  0.399727  1.640302  0  2.577609  0
H  H4  1  0.59014378  0.77105021  0.83296009  1  0.065899  0  0.092953  0.092461  0  0.986583  0
H  H5  1  0.58970849  0.84554016  0.78188462  1  0.056253  0  0.094952  0.094783  0  0.977636  0
H  H6  1  0.58774262  0.73645543  0.66817591  1  0.038479  0  0.094644  0.095119  0  0.985716  0
H  H7  1  0.57701161  0.66201114  0.71920674  1  0.052365  0  0.095849  0.097928  0  0.984094  0
H  H8  1  0.92361038  0.71740628  0.87082662  1  0.013881  0  0.094642  0.091541  0  0.974552  0
H  H9  1  0.90143891  0.60575050  0.76032673  1  -0.000697  0  0.099401  0.09995  0  0.96578  0
H  H10  1  0.14824894  0.85959753  0.76664571  1  0.04138  0  0.101816  0.108665  0  0.982297  0
H  H11  1  0.91666966  0.89299109  0.73792859  1  0.052844  0  0.103129  0.108265  0  0.967733  0
H  H12  1  0.15463563  0.73999097  0.66253513  1  0.113543  0  0.122146  0.110256  0  0.943386  0
H  H13  1  0.15074886  0.75202889  0.84014839  1  0.047961  0  0.096375  0.09705  0  0.983712  0
H  H14  1  0.13471183  0.63634130  0.73106597  1  0.061528  0  0.098379  0.098234  0  0.982492  0
H  H15  1  0.71478452  0.31795221  0.30224585  1  0.088751  0  0.101303  0.093766  0  0.985463  0
H  H16  1  0.66604919  0.13823947  0.22926882  1  0.0739  0  0.090134  0.106286  0  1.014275  0
H  H17  1  0.70653551  0.21711398  0.18424738  1  0.050547  0  0.099017  0.111777  0  0.968428  0
H  H18  1  0.45761617  0.38609721  0.24301936  1  0.053606  0  0.098849  0.099693  0  0.966598  0
H  H19  1  0.40546431  0.27901818  0.13010754  1  0.042392  0  0.098552  0.099082  0  0.968849  0
H  H20  1  0.09023167  0.26752647  0.32804022  1  0.052779  0  0.085151  0.095408  0  1.034813  0
H  H21  1  0.26997410  0.21749341  0.36952451  1  0.071482  0  0.083476  0.098339  0  1.026395  0
H  H22  1  0.09727116  0.15243052  0.22011738  1  0.093997  0  0.100638  0.09814  0  0.984848  0
H  H23  1  0.20021429  0.37738285  0.26262956  1  0.038679  0  0.101995  0.106781  0  0.964448  0
H  H24  1  0.16146411  0.25805528  0.15767881  1  0.056827  0  0.097241  0.098338  0  0.976828  0
H  H25  1  0.38343935  0.60264855  0.49058681  1  0.627172  0  0.358563  0.441526  0  0.836224  0
H  H26  1  0.88028697  0.38729578  0.46851137  1  0.622806  0  0.324574  0.400454  0  0.918809  0
H  H27  1  0.39103002  0.90341457  0.01748971  1  0.617021  0  0.356972  0.437067  0  0.843242  0
H  H28  1  0.89452675  0.10203501  0.98762165  1  0.618214  0  0.355523  0.434206  0  0.848014  0
C  C29  1  0.39206936  0.38255746  0.38694268  1  1.581405  0  0.269208  0.636859  0  4.046998  0
C  C30  1  0.37780822  0.41417276  0.58459086  1  1.698329  0  0.277203  0.693564  0  4.188861  0
C  C31  1  0.87570690  0.61390490  0.61538877  1  1.572348  0  0.275655  0.632892  0  4.0508  0
C  C32  1  0.89067955  0.59053785  0.41716573  1  1.704332  0  0.275502  0.699472  0  4.178375  0
C  C33  1  0.88872791  0.64242329  0.36669772  1  0.166151  0  0.005519  -0.125974  0  3.820529  0
C  C34  1  0.88909601  0.68716715  0.32412936  1  -0.271977  0  -0.003447  0.032558  0  4.240824  0
C  C35  1  0.88968077  0.73571545  0.27728796  1  0.002566  0  0.008577  0.010186  0  4.173784  0
C  C36  1  0.89054198  0.77991263  0.23375504  1  0.030004  0  0.001713  -0.002484  0  4.175345  0
C  C37  1  0.89110757  0.82706767  0.18575824  1  -0.29228  0  -0.006206  0.037581  0  4.255059  0
C  C38  1  0.89214662  0.86974320  0.14143278  1  0.199037  0  -0.005782  -0.152609  0  3.857486  0
C  C39  1  0.66782135  0.78909479  0.78772838  1  -0.084906  0  -0.163135  -0.180736  0  3.888629  0
C  C40  1  0.66246455  0.71659780  0.71317328  1  -0.031075  0  -0.163912  -0.187266  0  3.893985  0
C  C41  1  0.99449437  0.73456796  0.82371882  1  -0.009584  0  -0.15373  -0.173424  0  3.851121  0
C  C42  1  0.99489513  0.83898197  0.74869494  1  -0.019582  0  -0.145019  -0.202728  0  3.81122  0
C  C43  1  0.88597924  0.81276281  0.81183652  1  0.032238  0  -0.013684  0.019486  0  3.812422  0
C  C44  1  0.87614570  0.68705477  0.68788023  1  0.045409  0  -0.005179  -0.004757  0  3.790723  0
C  C45  1  0.98397449  0.65944544  0.75071084  1  -0.015875  0  -0.151662  -0.17149  0  3.850869  0
C  C46  1  0.99972146  0.76253448  0.67559311  1  0.074327  0  -0.048902  -0.032634  0  3.847386  0
C  C47  1  0.60487361  0.26793090  0.29983345  1  -0.150792  0  -0.08812  -0.00711  0  3.6515  0
C  C48  1  0.60713447  0.19833240  0.22389270  1  -0.026363  0  -0.169828  -0.218724  0  3.879401  0
C  C49  1  0.34076147  0.34138517  0.24901663  1  -0.044146  0  -0.148657  -0.163216  0  3.829048  0
C  C50  1  0.24023115  0.23909669  0.31984142  1  -0.041968  0  -0.176158  -0.2219  0  3.884488  0
C  C51  1  0.39529720  0.30687664  0.31636977  1  0.053317  0  -0.02061  -0.003308  0  3.819198  0
C  C52  1  0.39414154  0.18376243  0.19055440  1  0.03362  0  -0.019834  -0.001462  0  3.814357  0
C  C53  1  0.31861843  0.26710679  0.17639551  1  -0.062008  0  -0.151356  -0.167864  0  3.846115  0
C  C54  1  0.24512764  0.16509435  0.24673170  1  -0.138262  0  -0.090275  -0.003636  0  3.647929  0
C  C55  1  0.38297905  0.36351108  0.63622833  1  0.210132  0  0.007185  -0.122458  0  3.818801  0
C  C56  1  0.38663528  0.31948186  0.67939300  1  -0.295692  0  -0.006516  0.024382  0  4.25027  0
C  C57  1  0.38986921  0.27121000  0.72647550  1  -0.104675  0  0.007179  0.009489  0  4.180949  0
C  C58  1  0.39220139  0.22666744  0.76969476  1  0.059261  0  -0.000443  -0.007296  0  4.185678  0
C  C59  1  0.39449160  0.17841337  0.81678876  1  -0.266975  0  -0.005454  0.03614  0  4.261028  0
C  C60  1  0.39660760  0.13446529  0.86006631  1  0.195622  0  -0.006124  -0.152905  0  3.842269  0
C  C61  1  0.39836866  0.08409779  0.91172175  1  1.70522  0  0.27607  0.70339  0  4.179642  0
C  C62  1  0.38935773  0.11547224  0.11490856  1  1.578786  0  0.266261  0.630138  0  4.068224  0
C  C63  1  0.88879701  0.91822045  0.08835865  1  1.678216  0  0.276608  0.704534  0  4.17245  0
C  C64  1  0.89614916  0.88417498  0.88541639  1  1.570932  0  0.274647  0.638743  0  4.028765  0
C  C65  1  0.92534941  0.78500340  0.60981857  1  0.833664  0  0.173186  0.252744  0  3.966611  0
I  I66  1  0.71168237  0.22117676  0.39332072  1  -0.006523  0  0.070163  -0.05996  0  1.424519  0
I  I67  1  0.30865113  0.04281667  0.26688356  1  -0.004643  0  0.022818  -0.097029  0  1.326674  0
N  N68  1  0.86203406  0.80063844  0.55666360  1  -1.154595  0  -0.330866  -0.389965  0  2.708753  0
O  O69  1  0.54412187  0.42503674  0.55526234  1  -1.225725  0  -0.220958  -0.574011  0  2.323701  0
O  O70  1  0.22389379  0.40331482  0.41942317  1  -1.263047  0  -0.233464  -0.584154  0  2.340385  0
O  O71  1  0.06132058  0.56208269  0.42938810  1  -1.23074  0  -0.227615  -0.580946  0  2.276669  0
O  O72  1  0.20691279  0.44227534  0.57295374  1  -1.222436  0  -0.219859  -0.556236  0  2.276015  0
O  O73  1  0.04361085  0.59324561  0.58264640  1  -1.261409  0  -0.233065  -0.59577  0  2.362837  0
O  O74  1  0.55813735  0.42059894  0.40638352  1  -1.271679  0  -0.238185  -0.604655  0  2.405859  0
O  O75  1  0.38308801  0.55204781  0.50736611  1  -1.427215  0  -0.448212  -0.993739  0  2.178949  0
O  O76  1  0.70798212  0.57954906  0.59267292  1  -1.257469  0  -0.22586  -0.573567  0  2.371058  0
O  O77  1  0.72243249  0.57805132  0.44464292  1  -1.231915  0  -0.222339  -0.57663  0  2.288493  0
O  O78  1  0.88345142  0.44874224  0.48964200  1  -1.440722  0  -0.450627  -0.994107  0  2.225434  0
O  O79  1  0.21785289  0.08672369  0.09001009  1  -1.264407  0  -0.237397  -0.594543  0  2.378787  0
O  O80  1  0.56856874  0.05759523  0.92644437  1  -1.229541  0  -0.224087  -0.573827  0  2.281027  0
O  O81  1  0.73219470  0.90572416  0.92082576  1  -1.266986  0  -0.234323  -0.597741  0  2.37818  0
O  O82  1  0.55576151  0.09605254  0.08079205  1  -1.264477  0  -0.237354  -0.592921  0  2.366882  0
O  O83  1  0.71802780  0.94487577  0.07431429  1  -1.231956  0  -0.223301  -0.574748  0  2.294898  0
O  O84  1  0.22943429  0.07134816  0.93859485  1  -1.23568  0  -0.223996  -0.575896  0  2.288031  0
O  O85  1  0.39289901  0.94940521  0.99453122  1  -1.417958  0  -0.446917  -0.988101  0  2.179496  0
O  O86  1  0.05592461  0.92926934  0.05922499  1  -1.237143  0  -0.225125  -0.585629  0  2.30936  0
O  O87  1  0.06825368  0.91534807  0.90738744  1  -1.260998  0  -0.237309  -0.594069  0  2.339685  0
O  O88  1  0.89346307  0.05238725  0.00567103  1  -1.419078  0  -0.447562  -0.988224  0  2.19384  0
