# generated using pymatgen
data_CuPH4C5NO3
_symmetry_space_group_name_H-M   'P 1'
_cell_length_a   4.78480338
_cell_length_b   8.93743308
_cell_length_c   15.15695278
_cell_angle_alpha   106.07574130
_cell_angle_beta   89.97336210
_cell_angle_gamma   90.05608451
_symmetry_Int_Tables_number   1
_chemical_formula_structural   CuPH4C5NO3
_chemical_formula_sum   'Cu4 P4 H16 C20 N4 O12'
_cell_volume   622.82377635
_cell_formula_units_Z   4
loop_
 _symmetry_equiv_pos_site_id
 _symmetry_equiv_pos_as_xyz
  1  'x, y, z'
loop_
 _atom_site_type_symbol
 _atom_site_label
 _atom_site_symmetry_multiplicity
 _atom_site_fract_x
 _atom_site_fract_y
 _atom_site_fract_z
 _atom_site_occupancy
 _atom_site_hle17_ddec_charge
 _atom_site_hle17_ddec_spin_density
 _atom_site_hle17_ddec_sum_bond_order
 _atom_site_hle17_magmom
 _atom_site_hse06_10hf_ddec_charge
 _atom_site_hse06_10hf_ddec_spin_density
 _atom_site_hse06_10hf_ddec_sum_bond_order
 _atom_site_hse06_10hf_magmom
 _atom_site_hse06_ddec_charge
 _atom_site_hse06_ddec_spin_density
 _atom_site_hse06_ddec_sum_bond_order
 _atom_site_hse06_magmom
 _atom_site_pbe_cm5_charge
 _atom_site_pbe_ddec_charge
 _atom_site_pbe_ddec_spin_density
 _atom_site_pbe_ddec_sum_bond_order
 _atom_site_pbe_magmom
Cu  Cu0  1  0.93793654  0.66716522  0.01001961  1  0.98047  0.706959  1.752983  0.526  0.966921  0.797831  2.153793  0.647  1.063564  0.865407  2.069146  0.731  0.749425  0.901005  0.746261  2.216739  0.589
Cu  Cu1  1  0.43914972  0.83318711  0.48972363  1  0.981777  -0.747613  1.751112  -0.52  0.968034  -0.832375  2.152157  -0.646  1.05994  -0.920581  2.075769  -0.732  0.749392  0.902463  -0.758292  2.214245  -0.582
Cu  Cu2  1  0.06204442  0.33287949  0.98993015  1  0.98052  0.705565  1.753115  0.524  0.966973  0.797341  2.153953  0.647  1.063529  0.865232  2.069351  0.731  0.749529  0.90113  0.745451  2.216879  0.588
Cu  Cu3  1  0.56081649  0.16675040  0.51026260  1  0.982252  0.703085  1.750377  0.522  0.96864  0.797143  2.151287  0.646  1.060425  0.866279  2.074919  0.732  0.749498  0.902969  0.739694  2.213457  0.584
P  P4  1  0.43769108  0.52315526  0.88740502  1  1.441786  0.005938  4.908528  -0.002  1.305639  0.013325  5.401911  0.007  1.365637  0.010449  5.367118  0.007  0.328476  1.262996  0.015451  5.424766  0.007
P  P5  1  0.93805990  0.97794541  0.61253645  1  1.442143  -0.000235  4.903757  0.003  1.306314  -0.002721  5.396249  0.001  1.36664  -0.002231  5.359732  0.001  0.328881  1.263456  -0.00295  5.419289  0.001
P  P6  1  0.56238176  0.47683963  0.11257779  1  1.441711  0.004555  4.908416  -0.002  1.305612  0.012179  5.401731  0.006  1.365678  0.009657  5.366699  0.006  0.328497  1.26294  0.014003  5.424699  0.006
P  P7  1  0.06189167  0.02198838  0.38745905  1  1.442172  0.000435  4.903427  -0.002  1.306449  0.003117  5.395792  0.0  1.366752  0.002167  5.359346  0.0  0.328924  1.263614  0.003904  5.418777  0.0
H  H8  1  0.62603809  0.29013375  0.71289554  1  0.097268  0.000812  0.949646  0.002  0.10596  0.00078  1.0115  0.001  0.108142  0.00053  1.009298  0.001  0.122148  0.104148  0.00097  1.013192  0.002
H  H9  1  0.12673922  0.21033857  0.78713580  1  0.096508  0.000852  0.951033  0.002  0.105496  0.000686  1.012511  0.001  0.107654  0.000471  1.010436  0.001  0.122063  0.103635  0.000858  1.014192  0.002
H  H10  1  0.37425225  0.70998905  0.28706751  1  0.097283  -0.000914  0.949827  -0.002  0.106021  -0.000661  1.011553  -0.001  0.108176  -0.00046  1.009358  -0.001  0.122264  0.104216  -0.000798  1.013254  -0.002
H  H11  1  0.87285519  0.78980865  0.21282553  1  0.096483  0.000761  0.951725  0.002  0.105475  0.000691  1.013071  0.001  0.107625  0.000472  1.011041  0.001  0.122072  0.103612  0.00086  1.014748  0.002
H  H12  1  0.21587590  0.42820710  0.50954816  1  0.084757  0.000857  0.966752  0.002  0.091484  0.0008  1.035288  0.002  0.092838  0.000543  1.034129  0.001  0.118227  0.090342  0.00103  1.036252  0.002
H  H13  1  0.71635012  0.07142283  0.99034875  1  0.084398  0.000883  0.966801  0.002  0.091515  0.00074  1.034954  0.002  0.092828  0.000494  1.033921  0.001  0.118197  0.090379  0.000948  1.035896  0.002
H  H14  1  0.78399210  0.57176626  0.49045409  1  0.084888  -0.000977  0.966793  -0.002  0.091634  -0.00079  1.035261  -0.002  0.092967  -0.000558  1.034125  -0.001  0.118244  0.090522  -0.000965  1.036194  -0.002
H  H15  1  0.28392538  0.92852447  0.00967278  1  0.084302  0.000775  0.966913  0.002  0.091563  0.000754  1.03493  0.002  0.092877  0.000499  1.033902  0.001  0.11825  0.090442  0.000973  1.035845  0.002
H  H16  1  0.00053737  0.65896559  0.62285155  1  0.113315  0.000391  0.987772  0.001  0.122267  0.000338  1.050125  0.001  0.125607  0.000235  1.049188  0.0  0.107183  0.119935  0.000412  1.050651  0.001
H  H17  1  0.50015888  0.84107656  0.87697283  1  0.113507  0.000484  0.988601  0.0  0.122674  0.000504  1.050549  0.0  0.126089  0.000349  1.049523  0.0  0.107215  0.12028  0.000635  1.051158  0.001
H  H18  1  0.99942467  0.34100755  0.37716122  1  0.113105  -0.000156  0.98804  0.0  0.122191  -0.000189  1.050237  0.0  0.125549  -0.000159  1.049287  0.0  0.107125  0.119842  -0.000187  1.050779  0.0
H  H19  1  0.49976558  0.15895597  0.12304941  1  0.113677  0.000611  0.988464  0.001  0.122575  0.000543  1.050685  0.001  0.125973  0.000377  1.049673  0.0  0.10718  0.120186  0.000677  1.051281  0.001
H  H20  1  0.08901035  0.69350846  0.79159731  1  0.102206  0.000265  0.953575  0.001  0.112235  8.9e-05  1.014652  0.0  0.114102  2e-06  1.01392  0.0  0.109504  0.110836  0.000202  1.015378  0.0
H  H21  1  0.58931923  0.80664702  0.70824527  1  0.101955  0.000478  0.95354  0.001  0.111994  0.000153  1.014848  0.0  0.113899  8.4e-05  1.014074  0.0  0.109267  0.11045  0.000229  1.015719  0.0
H  H22  1  0.91086597  0.30642857  0.20840931  1  0.102315  -0.00048  0.95338  -0.001  0.112368  -0.000102  1.01436  0.0  0.114213  -5.5e-05  1.013645  0.0  0.109523  0.110912  -0.00014  1.015174  0.0
H  H23  1  0.41079533  0.19328962  0.29178040  1  0.101851  0.00024  0.953712  0.001  0.111872  3.9e-05  1.015096  0.0  0.113808  -2.6e-05  1.014284  0.0  0.109213  0.110358  0.000122  1.01593  0.0
C  C24  1  0.36735602  0.49697667  0.76607214  1  -0.2591  0.02175  3.683456  0.024  -0.212427  0.011138  3.91144  0.013  -0.228468  0.00793  3.930214  0.01  -0.012767  -0.202267  0.014019  3.900214  0.016
C  C25  1  0.86797193  0.00335096  0.73387870  1  -0.260167  0.005873  3.683908  0.007  -0.212652  0.001721  3.911323  0.002  -0.228542  0.001845  3.930088  0.002  -0.013013  -0.203087  0.001724  3.90049  0.003
C  C26  1  0.63265201  0.50301384  0.23394821  1  -0.258245  0.004581  3.68265  0.005  -0.211891  0.004283  3.910845  0.005  -0.228012  0.002043  3.929698  0.002  -0.012713  -0.201683  0.00621  3.899562  0.006
C  C27  1  0.13205905  0.99659764  0.26613449  1  -0.259564  0.011316  3.683085  0.012  -0.21204  0.005114  3.910331  0.006  -0.227849  0.00396  3.929049  0.005  -0.013036  -0.202468  0.006089  3.899509  0.007
C  C28  1  0.48333912  0.37434732  0.69762299  1  0.167877  -0.004595  3.629338  -0.005  0.132915  0.000587  3.872131  0.0  0.145599  -0.000781  3.888764  -0.002  0.061492  0.124537  0.001685  3.861  0.001
C  C29  1  0.98403804  0.12596542  0.80238814  1  0.168698  -0.008069  3.630491  -0.008  0.133505  -0.001471  3.872957  -0.002  0.146064  -0.002365  3.890041  -0.003  0.061964  0.125297  -0.000589  3.861746  -0.001
C  C30  1  0.51679233  0.62572710  0.30235822  1  0.167565  0.006564  3.629579  0.007  0.132515  0.001143  3.872311  0.002  0.145222  0.001947  3.888928  0.003  0.061434  0.124103  0.000468  3.861224  0.001
C  C31  1  0.01577990  0.87410659  0.19759334  1  0.168273  -0.003859  3.631304  -0.004  0.133301  0.00056  3.873446  0.0  0.14586  -0.00074  3.890553  -0.001  0.061908  0.125074  0.001675  3.86225  0.001
C  C32  1  0.25537566  0.45338242  0.58279485  1  0.12809  -0.003015  3.686196  -0.003  0.094772  0.001405  3.947815  0.001  0.103649  -0.000135  3.968864  -0.001  0.044698  0.089043  0.002711  3.933414  0.002
C  C33  1  0.75576088  0.04653043  0.91710627  1  0.128697  -0.00763  3.685843  -0.007  0.095006  -0.000917  3.947475  -0.001  0.103769  -0.001839  3.969053  -0.002  0.045067  0.089372  -0.000201  3.932903  0.0
C  C34  1  0.74463658  0.54662277  0.41719698  1  0.127704  0.006498  3.686495  0.007  0.094286  0.000667  3.94815  0.001  0.103175  0.00146  3.969265  0.002  0.04465  0.088582  0.000225  3.93368  0.001
C  C35  1  0.24423674  0.95349775  0.08290202  1  0.128908  -0.002772  3.685828  -0.003  0.095031  0.001256  3.947396  0.001  0.103742  -0.000204  3.969014  -0.001  0.045042  0.089409  0.00252  3.932821  0.002
C  C36  1  0.13420143  0.57907925  0.64636375  1  -0.126253  0.008555  3.709765  0.009  -0.137799  0.003687  3.960935  0.004  -0.147679  0.003055  3.983058  0.004  -0.083921  -0.131189  0.004258  3.946083  0.005
C  C37  1  0.63417982  0.92097227  0.85349671  1  -0.125846  0.009529  3.710156  0.011  -0.13742  0.003696  3.961408  0.005  -0.147282  0.003258  3.983419  0.004  -0.083904  -0.130841  0.004071  3.946592  0.005
C  C38  1  0.86580660  0.42090091  0.35364889  1  -0.126025  -0.009048  3.709863  -0.009  -0.137759  -0.003547  3.961112  -0.004  -0.147672  -0.003332  3.983244  -0.004  -0.084059  -0.131123  -0.003604  3.946201  -0.004
C  C39  1  0.36571540  0.07907543  0.14652614  1  -0.126002  0.007662  3.71057  0.009  -0.137314  0.003315  3.96186  0.004  -0.147139  0.002719  3.983883  0.004  -0.083792  -0.130742  0.003792  3.947026  0.005
C  C40  1  0.18682138  0.59951778  0.73931386  1  0.034969  -0.004851  3.683892  -0.005  0.00969  -8.7e-05  3.919374  0.0  0.017586  -0.000937  3.936444  -0.001  -0.055035  0.003761  0.000677  3.909064  0.001
C  C41  1  0.68715054  0.90067198  0.76056310  1  0.034641  -0.009006  3.685167  -0.008  0.009066  -0.003003  3.920898  -0.003  0.017011  -0.003024  3.937929  -0.003  -0.055273  0.0032  -0.002918  3.910738  -0.003
C  C42  1  0.81312811  0.40044953  0.26069791  1  0.034612  0.008601  3.683594  0.009  0.00945  0.003609  3.919024  0.004  0.017391  0.003293  3.936108  0.004  -0.054965  0.003557  0.0038  3.908704  0.004
C  C43  1  0.31290344  0.09929160  0.23945990  1  0.034603  -0.005108  3.685013  -0.005  0.009035  -0.000958  3.920681  -0.001  0.016911  -0.001462  3.937735  -0.002  -0.055065  0.003161  -0.000316  3.910498  0.0
N  N44  1  0.42465618  0.35218544  0.60810797  1  -0.298369  0.071555  3.304981  0.091  -0.250364  0.051039  3.608799  0.069  -0.282839  0.041456  3.628902  0.059  -0.342674  -0.229215  0.056076  3.595985  0.073
N  N45  1  0.92540139  0.14788428  0.89189933  1  -0.298904  0.072312  3.305034  0.092  -0.251172  0.051165  3.609369  0.069  -0.284602  0.041842  3.629673  0.06  -0.34344  -0.229928  0.055993  3.596499  0.073
N  N46  1  0.57548150  0.64785747  0.39187116  1  -0.297766  -0.076444  3.304932  -0.091  -0.249712  -0.053559  3.608633  -0.069  -0.28232  -0.044631  3.628879  -0.06  -0.342496  -0.228523  -0.057312  3.595781  -0.072
N  N47  1  0.07443745  0.85218886  0.10808366  1  -0.299341  0.070829  3.305337  0.09  -0.251396  0.050845  3.609414  0.069  -0.284796  0.041361  3.6297  0.059  -0.343557  -0.230126  0.055891  3.596539  0.072
O  O48  1  0.75653942  0.54771028  0.89679689  1  -0.814809  0.094092  2.042207  0.127  -0.781997  0.05539  2.361218  0.08  -0.830115  0.040422  2.342092  0.062  -0.380747  -0.746812  0.06689  2.3724  0.093
O  O49  1  0.25697476  0.95467926  0.60244284  1  -0.817547  -0.081091  2.042827  -0.101  -0.784142  -0.049152  2.361663  -0.067  -0.830664  -0.038682  2.341758  -0.054  -0.381072  -0.748941  -0.054624  2.373145  -0.072
O  O50  1  0.24358985  0.45225827  0.10316295  1  -0.814932  0.093352  2.04252  0.126  -0.782015  0.05522  2.361417  0.08  -0.830089  0.040333  2.342263  0.062  -0.380697  -0.746845  0.066566  2.372603  0.092
O  O51  1  0.74293502  0.04524922  0.39752866  1  -0.817793  0.076918  2.042078  0.102  -0.784448  0.047177  2.360869  0.067  -0.830995  0.03632  2.340992  0.055  -0.381181  -0.749248  0.053598  2.372347  0.073
O  O52  1  0.34509698  0.37155237  0.90772079  1  -0.824282  0.066045  2.104782  0.09  -0.778363  0.042691  2.41426  0.062  -0.822619  0.032121  2.394896  0.049  -0.381363  -0.746865  0.050119  2.427099  0.07
O  O53  1  0.84501968  0.12969191  0.59256458  1  -0.823278  0.061525  2.102654  0.082  -0.778132  0.041408  2.412113  0.059  -0.821689  0.032576  2.393099  0.048  -0.381394  -0.746205  0.045967  2.424489  0.063
O  O54  1  0.65507198  0.62844060  0.09229601  1  -0.824054  0.065564  2.104668  0.089  -0.77828  0.042597  2.414187  0.062  -0.822602  0.032027  2.394873  0.049  -0.381342  -0.746776  0.049966  2.427031  0.07
O  O55  1  0.15492979  0.87024522  0.40743808  1  -0.823254  -0.064808  2.102361  -0.081  -0.778113  -0.043134  2.411974  -0.058  -0.821553  -0.034669  2.392759  -0.048  -0.381473  -0.746242  -0.046784  2.424413  -0.062
O  O56  1  0.27631527  0.67085329  0.93864829  1  -0.827931  0.068903  2.094868  0.094  -0.780953  0.043917  2.403787  0.064  -0.823931  0.032947  2.382998  0.051  -0.384603  -0.75046  0.051607  2.417858  0.072
O  O57  1  0.77675753  0.82994857  0.56132789  1  -0.82708  -0.069311  2.092238  -0.087  -0.780602  -0.044782  2.401712  -0.062  -0.822583  -0.035259  2.380645  -0.05  -0.384282  -0.749971  -0.049888  2.415735  -0.067
O  O58  1  0.72397284  0.32918115  0.06139603  1  -0.827797  0.066833  2.094915  0.091  -0.780701  0.04306  2.403784  0.063  -0.823691  0.032513  2.382988  0.05  -0.384552  -0.750179  0.050078  2.417826  0.07
O  O59  1  0.22304563  0.17001217  0.43871445  1  -0.826945  0.067177  2.092377  0.091  -0.780786  0.043705  2.402016  0.063  -0.822755  0.033456  2.380904  0.051  -0.384136  -0.750025  0.050212  2.415883  0.07
