# generated using pymatgen
data_ZnH16C26S(NO2)2
_symmetry_space_group_name_H-M   'P 1'
_cell_length_a   8.21140648
_cell_length_b   10.29399641
_cell_length_c   14.25160154
_cell_angle_alpha   70.85644245
_cell_angle_beta   89.24224432
_cell_angle_gamma   74.12996474
_symmetry_Int_Tables_number   1
_chemical_formula_structural   ZnH16C26S(NO2)2
_chemical_formula_sum   'Zn2 H32 C52 S2 N4 O8'
_cell_volume   1090.78580871
_cell_formula_units_Z   2
loop_
 _symmetry_equiv_pos_site_id
 _symmetry_equiv_pos_as_xyz
  1  'x, y, z'
loop_
 _atom_site_type_symbol
 _atom_site_label
 _atom_site_symmetry_multiplicity
 _atom_site_fract_x
 _atom_site_fract_y
 _atom_site_fract_z
 _atom_site_occupancy
 _atom_site_hle17_bader_spin_density
 _atom_site_hle17_ddec_charge
 _atom_site_hle17_ddec_spin_density
 _atom_site_hle17_ddec_sum_bond_order
 _atom_site_hle17_magmom
 _atom_site_hse06_10hf_bader_spin_density
 _atom_site_hse06_10hf_ddec_charge
 _atom_site_hse06_10hf_ddec_spin_density
 _atom_site_hse06_10hf_ddec_sum_bond_order
 _atom_site_hse06_10hf_magmom
 _atom_site_hse06_bader_spin_density
 _atom_site_hse06_ddec_charge
 _atom_site_hse06_ddec_spin_density
 _atom_site_hse06_ddec_sum_bond_order
 _atom_site_hse06_magmom
 _atom_site_pbe_bader_spin_density
 _atom_site_pbe_cm5_charge
 _atom_site_pbe_ddec_charge
 _atom_site_pbe_ddec_spin_density
 _atom_site_pbe_ddec_sum_bond_order
 _atom_site_pbe_magmom
Zn  Zn0  1  0.16324538  0.56343156  0.23072777  1  0  0.976385  0  1.883421  0  0  0.778714  0  2.366289  0  0  0.828434  0  2.310384  0  0  0.685511  0.74399  0  2.404642  0
Zn  Zn1  1  0.83675826  0.43656994  0.76927131  1  0  0.976424  0  1.883407  0  0  0.778756  0  2.36629  0  0  0.828475  0  2.310379  0  0  0.685518  0.744035  0  2.404658  0
H  H2  1  0.31909256  0.23905501  0.29043524  1  0  0.093062  0  0.920902  0  0  0.104079  0  0.978942  0  0  0.106375  0  0.977491  0  0  0.12436  0.102387  0  0.980013  0
H  H3  1  0.68089861  0.76095046  0.70955810  1  0  0.093041  0  0.920947  0  0  0.104045  0  0.978987  0  0  0.10634  0  0.977536  0  0  0.124359  0.102352  0  0.980063  0
H  H4  1  0.32547526  0.02489815  0.43726009  1  0  0.104473  0  0.946184  0  0  0.117818  0  1.001594  0  0  0.120979  0  1.000776  0  0  0.10788  0.115513  0  1.002447  0
H  H5  1  0.67450973  0.97510380  0.56272791  1  0  0.104494  0  0.946094  0  0  0.117787  0  1.001565  0  0  0.120948  0  1.000747  0  0  0.107849  0.115481  0  1.002421  0
H  H6  1  0.95651351  0.30625226  0.55733141  1  0  0.113766  0  0.986029  0  0  0.119907  0  1.052282  0  0  0.12382  0  1.050422  0  0  0.10526  0.117091  0  1.053766  0
H  H7  1  0.04348118  0.69374682  0.44266420  1  0  0.11381  0  0.985947  0  0  0.119947  0  1.052216  0  0  0.123854  0  1.050367  0  0  0.105256  0.117125  0  1.053712  0
H  H8  1  0.96092136  0.50479984  0.40447715  1  0  0.07134  0  0.948917  0  0  0.081129  0  1.013212  0  0  0.083055  0  1.012053  0  0  0.115409  0.079695  0  1.014097  0
H  H9  1  0.03908596  0.49520183  0.59552535  1  0  0.071387  0  0.948901  0  0  0.081177  0  1.013185  0  0  0.083101  0  1.012024  0  0  0.115436  0.079736  0  1.014074  0
H  H10  1  0.37529428  0.87595549  0.58934571  1  0  0.08539  0  0.968877  0  0  0.095802  0  1.033233  0  0  0.098507  0  1.031837  0  0  0.098094  0.093874  0  1.03429  0
H  H11  1  0.62470319  0.12403948  0.41065582  1  0  0.085412  0  0.968878  0  0  0.095837  0  1.033208  0  0  0.098542  0  1.031813  0  0  0.098088  0.093906  0  1.034269  0
H  H12  1  0.35709771  0.67578453  0.73514992  1  0  0.130643  0  0.960688  0  0  0.140996  0  1.0189  0  0  0.144809  0  1.01613  0  0  0.107794  0.138216  0  1.020987  0
H  H13  1  0.64289366  0.32421019  0.26484683  1  0  0.130604  0  0.960703  0  0  0.141003  0  1.018858  0  0  0.144816  0  1.016087  0  0  0.107795  0.138222  0  1.020946  0
H  H14  1  0.89227548  0.13808519  0.63801387  1  0  0.10537  0  0.975747  0  0  0.114784  0  1.040332  0  0  0.118049  0  1.037907  0  0  0.103216  0.112314  0  1.04231  0
H  H15  1  0.10771794  0.86191066  0.36198328  1  0  0.105368  0  0.975798  0  0  0.114777  0  1.040377  0  0  0.118041  0  1.037948  0  0  0.103188  0.112304  0  1.04236  0
H  H16  1  0.77368919  0.64459945  0.00343746  1  0  0.097353  0  0.964339  0  0  0.104167  0  1.033746  0  0  0.106632  0  1.033443  0  0  0.096791  0.102294  0  1.034264  0
H  H17  1  0.22631808  0.35539907  0.99656865  1  0  0.097377  0  0.964353  0  0  0.104186  0  1.033766  0  0  0.106658  0  1.033444  0  0  0.096793  0.102304  0  1.034279  0
H  H18  1  0.50059901  0.82962508  0.98675209  1  0  0.102997  0  0.983681  0  0  0.110933  0  1.049966  0  0  0.114115  0  1.048259  0  0  0.101342  0.108633  0  1.051203  0
H  H19  1  0.49940704  0.17037342  0.01325404  1  0  0.10295  0  0.983686  0  0  0.110895  0  1.049966  0  0  0.114078  0  1.048255  0  0  0.101316  0.108589  0  1.051207  0
H  H20  1  0.66423820  0.12613486  0.73821900  1  0  0.102754  0  0.96407  0  0  0.113058  0  1.027178  0  0  0.115837  0  1.025726  0  0  0.103556  0.110938  0  1.028471  0
H  H21  1  0.33576208  0.87385913  0.26178484  1  0  0.102732  0  0.964043  0  0  0.11304  0  1.027149  0  0  0.115841  0  1.025673  0  0  0.10355  0.11092  0  1.028437  0
H  H22  1  0.25211157  0.94122565  0.90883948  1  0  0.1227  0  0.950679  0  0  0.130489  0  1.012902  0  0  0.134257  0  1.011395  0  0  0.110501  0.127861  0  1.013965  0
H  H23  1  0.74789119  0.05877156  0.09116210  1  0  0.122702  0  0.95063  0  0  0.130486  0  1.012867  0  0  0.134251  0  1.011364  0  0  0.110511  0.127855  0  1.01393  0
H  H24  1  0.97268124  0.12862220  0.87363622  1  0  0.092735  0  0.933378  0  0  0.102487  0  0.9933  0  0  0.105166  0  0.990901  0  0  0.121256  0.100516  0  0.995031  0
H  H25  1  0.02732284  0.87137542  0.12637718  1  0  0.092727  0  0.933306  0  0  0.102487  0  0.993234  0  0  0.105157  0  0.990834  0  0  0.121267  0.100515  0  0.994966  0
H  H26  1  0.19923295  0.45535890  0.75651893  1  0  0.072244  0  0.957636  0  0  0.078592  0  1.028303  0  0  0.080882  0  1.026451  0  0  0.111227  0.076902  0  1.029695  0
H  H27  1  0.80076737  0.54463820  0.24347991  1  0  0.072181  0  0.957654  0  0  0.078536  0  1.028326  0  0  0.080818  0  1.026481  0  0  0.111201  0.076844  0  1.029723  0
H  H28  1  0.48617737  0.28457873  0.78820128  1  0  0.121037  0  0.964112  0  0  0.128829  0  1.026532  0  0  0.131832  0  1.026257  0  0  0.109769  0.126498  0  1.027089  0
H  H29  1  0.51382502  0.71541961  0.21180143  1  0  0.121073  0  0.964122  0  0  0.128892  0  1.026505  0  0  0.131893  0  1.026235  0  0  0.10979  0.126563  0  1.027058  0
H  H30  1  0.37042935  0.64305219  0.49371115  1  0  0.116965  0  0.941409  0  0  0.125724  0  1.001635  0  0  0.130096  0  0.999091  0  0  0.104661  0.122587  0  1.003619  0
H  H31  1  0.62958598  0.35697079  0.50627463  1  0  0.116912  0  0.941364  0  0  0.125698  0  1.001577  0  0  0.130076  0  0.999036  0  0  0.104636  0.122561  0  1.003566  0
H  H32  1  0.45701929  0.65481126  0.92672672  1  0  0.114132  0  0.959042  0  0  0.122942  0  1.021642  0  0  0.126185  0  1.020587  0  0  0.103142  0.120677  0  1.022493  0
H  H33  1  0.54298431  0.34518707  0.07327527  1  0  0.114128  0  0.959031  0  0  0.122926  0  1.021648  0  0  0.126169  0  1.020593  0  0  0.103135  0.120661  0  1.022491  0
C  C34  1  0.24036852  0.24817492  0.35147574  1  0  0.145552  0  3.691413  0  0  0.110631  0  3.948198  0  0  0.119631  0  3.964771  0  0  0.050898  0.104932  0  3.936776  0
C  C35  1  0.75962062  0.75182947  0.64851861  1  0  0.145492  0  3.691326  0  0  0.110614  0  3.948107  0  0  0.119606  0  3.964668  0  0  0.05089  0.104912  0  3.936698  0
C  C36  1  0.24435368  0.12944010  0.43482678  1  0  -0.169104  0  3.702445  0  0  -0.187248  0  3.953378  0  0  -0.19584  0  3.973668  0  0  -0.08251  -0.181741  0  3.939784  0
C  C37  1  0.75563288  0.87055767  0.56516576  1  0  -0.169019  0  3.702369  0  0  -0.18714  0  3.953269  0  0  -0.19573  0  3.973563  0  0  -0.082479  -0.181629  0  3.939668  0
C  C38  1  0.14126784  0.14433079  0.51254395  1  0  0.120379  0  3.747239  0  0  0.130666  0  3.975561  0  0  0.137727  0  3.996702  0  0  0.017177  0.126151  0  3.961141  0
C  C39  1  0.85872077  0.85566816  0.48745037  1  0  0.120355  0  3.747264  0  0  0.130667  0  3.975468  0  0  0.13772  0  3.996617  0  0  0.017209  0.126172  0  3.961043  0
C  C40  1  0.03834051  0.28405059  0.50024545  1  0  -0.170284  0  3.698359  0  0  -0.184306  0  3.940224  0  0  -0.193317  0  3.960941  0  0  -0.086534  -0.178681  0  3.926532  0
C  C41  1  0.96165410  0.71594523  0.49975028  1  0  -0.170322  0  3.698215  0  0  -0.184371  0  3.940084  0  0  -0.193384  0  3.960808  0  0  -0.086578  -0.178744  0  3.926387  0
C  C42  1  0.04017913  0.39641078  0.41464566  1  0  0.128775  0  3.730364  0  0  0.09765  0  3.978129  0  0  0.105233  0  3.997116  0  0  0.04112  0.092736  0  3.9653  0
C  C43  1  0.95981846  0.60359065  0.58535422  1  0  0.128606  0  3.730388  0  0  0.097499  0  3.978168  0  0  0.105075  0  3.997143  0  0  0.04106  0.092601  0  3.965333  0
C  C44  1  0.13483742  0.02291694  0.60171104  1  0  0.025353  0  3.791002  0  0  0.040348  0  4.027068  0  0  0.03779  0  4.051377  0  0  -0.015933  0.042092  0  4.010284  0
C  C45  1  0.86515242  0.97708207  0.39828465  1  0  0.025274  0  3.791264  0  0  0.040364  0  4.027154  0  0  0.037816  0  4.051447  0  0  -0.015921  0.042053  0  4.010437  0
C  C46  1  0.26415200  0.89059580  0.63160840  1  0  -0.093632  0  3.722273  0  0  -0.116073  0  3.97499  0  0  -0.117241  0  3.995783  0  0  -0.090014  -0.115229  0  3.96081  0
C  C47  1  0.73584264  0.10940013  0.36839082  1  0  -0.093659  0  3.722348  0  0  -0.11614  0  3.975029  0  0  -0.117309  0  3.995816  0  0  -0.090011  -0.115274  0  3.960846  0
C  C48  1  0.25537640  0.77605762  0.71520314  1  0  -0.108312  0  3.7408  0  0  -0.129215  0  3.993774  0  0  -0.132151  0  4.013358  0  0  -0.093238  -0.127055  0  3.980455  0
C  C49  1  0.74461945  0.22393833  0.28479605  1  0  -0.108278  0  3.740606  0  0  -0.129193  0  3.993576  0  0  -0.13213  0  4.01316  0  0  -0.093224  -0.12703  0  3.980251  0
C  C50  1  0.11241603  0.79279069  0.76951401  1  0  0.000721  0  3.768473  0  0  0.012051  0  4.029252  0  0  0.01358  0  4.052546  0  0  -0.004038  0.010922  0  4.013233  0
C  C51  1  0.88758591  0.20720544  0.23048786  1  0  0.000822  0  3.768436  0  0  0.012093  0  4.02931  0  0  0.013622  0  4.052604  0  0  -0.004052  0.010963  0  4.013289  0
C  C52  1  0.98105715  0.92410053  0.74135584  1  0  0.00834  0  3.853346  0  0  0.017729  0  4.089969  0  0  0.015989  0  4.115244  0  0  -0.016748  0.018908  0  4.072853  0
C  C53  1  0.01894365  0.07589886  0.25864662  1  0  0.008275  0  3.853365  0  0  0.017607  0  4.090046  0  0  0.015862  0  4.115323  0  0  -0.016803  0.018794  0  4.072922  0
C  C54  1  0.99432493  0.03790887  0.65835136  1  0  -0.12517  0  3.693277  0  0  -0.153401  0  3.942958  0  0  -0.155088  0  3.962958  0  0  -0.083842  -0.151962  0  3.929397  0
C  C55  1  0.00567214  0.96208712  0.34164850  1  0  -0.125074  0  3.693271  0  0  -0.153311  0  3.942912  0  0  -0.154999  0  3.962912  0  0  -0.083769  -0.15186  0  3.929366  0
C  C56  1  0.84213692  0.91724594  0.80453539  1  0  0.000882  0  3.842375  0  0  0.010555  0  4.077706  0  0  0.008278  0  4.103037  0  0  -0.017787  0.011923  0  4.060677  0
C  C57  1  0.15786672  0.08275253  0.19547078  1  0  0.000878  0  3.842381  0  0  0.010625  0  4.077612  0  0  0.008368  0  4.102913  0  0  -0.017786  0.011984  0  4.060589  0
C  C58  1  0.87216057  0.78065153  0.87942574  1  0  0.005342  0  3.758478  0  0  0.017632  0  4.016735  0  0  0.01959  0  4.038412  0  0  -0.002447  0.016331  0  4.001933  0
C  C59  1  0.12784267  0.21934797  0.12057877  1  0  0.005244  0  3.758639  0  0  0.017556  0  4.016821  0  0  0.019509  0  4.038499  0  0  -0.002442  0.016263  0  4.00201  0
C  C60  1  0.75076987  0.74948364  0.94613839  1  0  -0.084213  0  3.758284  0  0  -0.106271  0  4.014865  0  0  -0.108553  0  4.035222  0  0  -0.089722  -0.104704  0  4.001132  0
C  C61  1  0.24923460  0.25051597  0.05386888  1  0  -0.084117  0  3.758443  0  0  -0.106177  0  4.015  0  0  -0.108461  0  4.035364  0  0  -0.089724  -0.104609  0  4.001253  0
C  C62  1  0.59690955  0.85374385  0.93570643  1  0  -0.09881  0  3.707821  0  0  -0.118983  0  3.956287  0  0  -0.120918  0  3.977612  0  0  -0.084874  -0.117427  0  3.941812  0
C  C63  1  0.40309370  0.14625569  0.06429947  1  0  -0.09873  0  3.707782  0  0  -0.118894  0  3.956268  0  0  -0.120826  0  3.977595  0  0  -0.084817  -0.117331  0  3.94178  0
C  C64  1  0.56249270  0.98977966  0.86043991  1  0  0.034647  0  3.78144  0  0  0.04883  0  4.0168  0  0  0.046677  0  4.040597  0  0  -0.012914  0.050262  0  4.000571  0
C  C65  1  0.43751207  0.01021557  0.13956636  1  0  0.034501  0  3.781393  0  0  0.048602  0  4.016823  0  0  0.046441  0  4.040641  0  0  -0.012986  0.050034  0  4.000591  0
C  C66  1  0.68760171  0.02152493  0.79631282  1  0  -0.119864  0  3.683431  0  0  -0.145655  0  3.928678  0  0  -0.146927  0  3.948014  0  0  -0.080917  -0.14451  0  3.915414  0
C  C67  1  0.31239788  0.97847449  0.20369106  1  0  -0.119869  0  3.683382  0  0  -0.145667  0  3.928643  0  0  -0.146969  0  3.947976  0  0  -0.080933  -0.144525  0  3.91538  0
C  C68  1  0.39497293  0.09573883  0.84679778  1  0  0.116759  0  3.74643  0  0  0.127758  0  3.975389  0  0  0.134111  0  3.99639  0  0  0.021456  0.123564  0  3.961059  0
C  C69  1  0.60503022  0.90425734  0.15320477  1  0  0.1168  0  3.74645  0  0  0.127913  0  3.975278  0  0  0.134268  0  3.996277  0  0  0.021445  0.123715  0  3.960949  0
C  C70  1  0.24680368  0.05381310  0.87354688  1  0  -0.151031  0  3.665885  0  0  -0.167782  0  3.911263  0  0  -0.17618  0  3.931857  0  0  -0.077617  -0.16241  0  3.89771  0
C  C71  1  0.75320070  0.94618318  0.12645843  1  0  -0.151011  0  3.666037  0  0  -0.167779  0  3.911362  0  0  -0.176175  0  3.931951  0  0  -0.077573  -0.162396  0  3.897798  0
C  C72  1  0.09049540  0.15697319  0.85470894  1  0  0.142706  0  3.678215  0  0  0.111128  0  3.926732  0  0  0.119567  0  3.943641  0  0  0.04921  0.105489  0  3.915605  0
C  C73  1  0.90950619  0.84302419  0.14529823  1  0  0.142643  0  3.678411  0  0  0.111045  0  3.926944  0  0  0.119495  0  3.943847  0  0  0.049156  0.105403  0  3.915814  0
C  C74  1  0.21600046  0.34029006  0.78874537  1  0  0.116684  0  3.740556  0  0  0.085667  0  3.993207  0  0  0.093023  0  4.011991  0  0  0.040548  0.080787  0  3.980734  0
C  C75  1  0.78400145  0.65970598  0.21125371  1  0  0.116696  0  3.740507  0  0  0.085656  0  3.993175  0  0  0.093019  0  4.011965  0  0  0.040521  0.080773  0  3.980707  0
C  C76  1  0.37630142  0.24378133  0.80508883  1  0  -0.156684  0  3.690844  0  0  -0.172483  0  3.932176  0  0  -0.18103  0  3.953565  0  0  -0.081833  -0.166758  0  3.917896  0
C  C77  1  0.62370052  0.75621480  0.19491304  1  0  -0.15664  0  3.690709  0  0  -0.172485  0  3.931994  0  0  -0.181033  0  3.953383  0  0  -0.081811  -0.16676  0  3.917713  0
C  C78  1  0.38741933  0.55360065  0.36998026  1  0  0.650713  0  3.95789  0  0  0.608576  0  4.245478  0  0  0.642227  0  4.23776  0  0  0.187431  0.585843  0  4.249699  0
C  C79  1  0.61258733  0.44641251  0.63000811  1  0  0.650711  0  3.957686  0  0  0.608521  0  4.24533  0  0  0.64217  0  4.237607  0  0  0.187388  0.58579  0  4.249549  0
C  C80  1  0.43915195  0.55459775  0.46913106  1  0  -0.167742  0  3.677231  0  0  -0.183858  0  3.923694  0  0  -0.189346  0  3.938101  0  0  -0.089529  -0.180238  0  3.913883  0
C  C81  1  0.56085976  0.44542522  0.53085617  1  0  -0.167607  0  3.677253  0  0  -0.183696  0  3.92369  0  0  -0.189192  0  3.938103  0  0  -0.089432  -0.180076  0  3.91388  0
C  C82  1  0.33472583  0.60283598  0.06774429  1  0  0.652518  0  3.966375  0  0  0.60722  0  4.25853  0  0  0.641616  0  4.250312  0  0  0.185504  0.583776  0  4.263439  0
C  C83  1  0.66527852  0.39716014  0.93225615  1  0  0.652509  0  3.966558  0  0  0.607208  0  4.258724  0  0  0.641608  0  4.250499  0  0  0.185498  0.583776  0  4.263614  0
C  C84  1  0.44984223  0.56648399  0.99301994  1  0  -0.175128  0  3.689872  0  0  -0.192083  0  3.942321  0  0  -0.197328  0  3.957356  0  0  -0.09279  -0.18878  0  3.932525  0
C  C85  1  0.55015977  0.43351536  0.00698041  1  0  -0.175156  0  3.689904  0  0  -0.192098  0  3.942355  0  0  -0.197343  0  3.957391  0  0  -0.092783  -0.188784  0  3.932545  0
S  S86  1  0.06672945  0.66329436  0.87244016  1  0  0.085942  0  2.480002  0  0  0.087799  0  2.801905  0  0  0.081833  0  2.80722  0  0  0.092804  0.092171  0  2.797986  0
S  S87  1  0.93327126  0.33670171  0.12756034  1  0  0.085925  0  2.480041  0  0  0.087779  0  2.801965  0  0  0.081812  0  2.807282  0  0  0.092789  0.092142  0  2.798048  0
N  N88  1  0.13874072  0.38046343  0.34040759  1  0  -0.350372  0  3.319718  0  0  -0.266192  0  3.596363  0  0  -0.286173  0  3.611822  0  0  -0.337691  -0.252788  0  3.585624  0
N  N89  1  0.86125648  0.61953903  0.65959064  1  0  -0.350202  0  3.319541  0  0  -0.266108  0  3.596297  0  0  -0.286056  0  3.61172  0  0  -0.33766  -0.252727  0  3.585578  0
N  N90  1  0.07396416  0.29846839  0.81167638  1  0  -0.349613  0  3.329202  0  0  -0.264392  0  3.612664  0  0  -0.284306  0  3.626066  0  0  -0.34164  -0.251134  0  3.603806  0
N  N91  1  0.92603741  0.70152891  0.18832801  1  0  -0.349509  0  3.329221  0  0  -0.264256  0  3.612634  0  0  -0.284177  0  3.626043  0  0  -0.34157  -0.25101  0  3.603802  0
O  O92  1  0.47758324  0.46826702  0.33185420  1  0  -0.609321  0  1.921574  0  0  -0.562292  0  2.142797  0  0  -0.585225  0  2.134843  0  0  -0.319278  -0.545975  0  2.147518  0
O  O93  1  0.52241210  0.53174395  0.66813910  1  0  -0.609295  0  1.921198  0  0  -0.562249  0  2.142406  0  0  -0.585186  0  2.134469  0  0  -0.319275  -0.54593  0  2.147123  0
O  O94  1  0.23989219  0.64307206  0.32942930  1  0  -0.662942  0  2.007341  0  0  -0.58911  0  2.273303  0  0  -0.618525  0  2.258786  0  0  -0.335277  -0.568169  0  2.282345  0
O  O95  1  0.76010767  0.35694328  0.67056284  1  0  -0.663033  0  2.007417  0  0  -0.589134  0  2.273318  0  0  -0.618585  0  2.258888  0  0  -0.335294  -0.568198  0  2.282366  0
O  O96  1  0.29123734  0.72916541  0.06914173  1  0  -0.620332  0  1.889091  0  0  -0.572888  0  2.111402  0  0  -0.59576  0  2.101784  0  0  -0.32098  -0.556489  0  2.117391  0
O  O97  1  0.70877303  0.27082770  0.93086360  1  0  -0.620271  0  1.889204  0  0  -0.572816  0  2.111481  0  0  -0.59569  0  2.101865  0  0  -0.320928  -0.556422  0  2.117464  0
O  O98  1  0.28823602  0.49782842  0.12994431  1  0  -0.646149  0  2.064677  0  0  -0.572569  0  2.343632  0  0  -0.602086  0  2.329067  0  0  -0.337763  -0.551916  0  2.352929  0
O  O99  1  0.71176673  0.50216873  0.87005519  1  0  -0.64621  0  2.06474  0  0  -0.572594  0  2.343615  0  0  -0.602111  0  2.329045  0  0  -0.337791  -0.551951  0  2.35292  0
