# generated using pymatgen
data_Cu2H12AuC6(N2O)2
_symmetry_space_group_name_H-M   'P 1'
_cell_length_a   8.75433759
_cell_length_b   11.55481708
_cell_length_c   15.21765524
_cell_angle_alpha   90.00538600
_cell_angle_beta   92.76317985
_cell_angle_gamma   89.98748719
_symmetry_Int_Tables_number   1
_chemical_formula_structural   Cu2H12AuC6(N2O)2
_chemical_formula_sum   'Cu8 H48 Au4 C24 N16 O8'
_cell_volume   1537.54861396
_cell_formula_units_Z   4
loop_
 _symmetry_equiv_pos_site_id
 _symmetry_equiv_pos_as_xyz
  1  'x, y, z'
loop_
 _atom_site_type_symbol
 _atom_site_label
 _atom_site_symmetry_multiplicity
 _atom_site_fract_x
 _atom_site_fract_y
 _atom_site_fract_z
 _atom_site_occupancy
 _atom_site_pbe_bader_charge
 _atom_site_pbe_bader_spin_density
 _atom_site_pbe_cm5_charge
 _atom_site_pbe_ddec_charge
 _atom_site_pbe_ddec_spin_density
 _atom_site_pbe_ddec_sum_bond_order
 _atom_site_pbe_magmom
Cu  Cu0  1  0.31376999  0.14957123  0.75872134  1  0.944276  0.345656  0.632068  0.692987  0.428044  2.274023  0.348
Cu  Cu1  1  0.52602665  0.35337074  0.85441283  1  0.915289  0.29482  0.610303  0.653773  0.361075  2.303857  0.296
Cu  Cu2  1  0.68038627  0.14771329  0.73890432  1  0.948717  0.352864  0.634773  0.698525  0.434493  2.287712  0.356
Cu  Cu3  1  0.47577711  0.35162475  0.64713642  1  0.911467  -0.280594  0.604538  0.647286  -0.360032  2.283003  -0.284
Cu  Cu4  1  0.68038955  0.85224886  0.23887726  1  0.948382  0.352585  0.634483  0.698374  0.434117  2.286319  0.355
Cu  Cu5  1  0.47586677  0.64823606  0.14699201  1  0.910905  -0.279736  0.604161  0.646816  -0.358889  2.282139  -0.283
Cu  Cu6  1  0.31382299  0.85036636  0.25858584  1  0.9442  0.346028  0.631804  0.692974  0.428569  2.273321  0.348
Cu  Cu7  1  0.52623513  0.64658519  0.35428335  1  0.915963  0.294934  0.61061  0.654481  0.361243  2.304311  0.296
H  H8  1  0.31159274  0.12841409  0.54979247  1  -0.001818  8.4e-05  0.074598  0.037077  -4.3e-05  1.017132  0.0
H  H9  1  0.50775404  0.09025397  0.54048622  1  0.011025  0.00432  0.0871  0.056286  0.002204  1.007726  0.003
H  H10  1  0.48915780  0.94142217  0.65496056  1  0.034946  -0.000202  0.098256  0.074027  -0.000221  0.983716  0.0
H  H11  1  0.34258592  0.91602849  0.57095152  1  0.029376  0.001146  0.086926  0.057431  0.000674  1.019543  0.001
H  H12  1  0.48063643  0.58472854  0.85932371  1  0.387343  0.000182  0.293964  0.274575  0.000265  0.946573  0.0
H  H13  1  0.37747503  0.52292087  0.93226536  1  0.415339  0.000342  0.282761  0.273004  0.000301  0.98594  0.0
H  H14  1  0.12617697  0.39399601  0.74012325  1  0.01541  0.003817  0.089217  0.059911  0.001746  1.000033  0.003
H  H15  1  0.16095308  0.36551288  0.85451600  1  0.012916  0.00068  0.074994  0.039946  0.000133  1.023363  0.0
H  H16  1  0.18383574  0.57602809  0.82972355  1  0.056344  0.000702  0.084277  0.052994  0.000425  1.008053  0.0
H  H17  1  0.31122691  0.55042551  0.74305198  1  -0.00393  0.000158  0.096105  0.066291  3.1e-05  0.996083  0.0
H  H18  1  0.16282589  0.00019507  0.66431273  1  0.42016  4.4e-05  0.273999  0.255881  0.000129  1.006204  0.0
H  H19  1  0.26711178  0.91933621  0.73289586  1  0.394094  -5e-06  0.296269  0.279072  0.000198  0.940606  0.0
H  H20  1  0.68850087  0.12912021  0.95022768  1  0.024178  -0.00018  0.073526  0.036338  -0.000302  1.016821  0.0
H  H21  1  0.49197247  0.09150142  0.95856821  1  0.017234  0.004914  0.08691  0.055302  0.002363  1.007301  0.003
H  H22  1  0.51157728  0.94249784  0.84432588  1  0.012359  -7.2e-05  0.098018  0.07412  -0.000139  0.982996  0.0
H  H23  1  0.65746713  0.91680205  0.92871271  1  0.034275  0.001446  0.086306  0.056239  0.000857  1.020724  0.001
H  H24  1  0.51934506  0.58468686  0.64007251  1  0.384344  8.4e-05  0.29267  0.272972  -0.000159  0.950119  0.0
H  H25  1  0.62382969  0.52409970  0.56719497  1  0.446102  -3.7e-05  0.281705  0.272724  -0.00014  0.989744  0.0
H  H26  1  0.87450089  0.39680782  0.76120275  1  0.007957  -0.002832  0.087865  0.058281  -0.001564  0.99879  -0.002
H  H27  1  0.83658733  0.36438660  0.64769410  1  0.034649  0.001034  0.07537  0.039299  0.000562  1.023356  0.0
H  H28  1  0.81805225  0.57588367  0.66871637  1  0.045829  -0.000299  0.083154  0.051899  -0.000236  1.011702  -0.001
H  H29  1  0.69034504  0.55475341  0.75580551  1  0.010265  -1.3e-05  0.095119  0.064801  1.6e-05  0.994449  0.0
H  H30  1  0.83756202  0.00363554  0.83600555  1  0.419799  8.5e-05  0.27327  0.256439  0.000147  1.007368  0.0
H  H31  1  0.73644948  0.91975075  0.76806775  1  0.406358  0.000267  0.296277  0.279266  0.000391  0.939454  0.0
H  H32  1  0.68854935  0.87085584  0.45018340  1  0.02402  -0.000173  0.073583  0.036334  -0.000299  1.016787  0.0
H  H33  1  0.49200851  0.90853120  0.45855515  1  0.017606  0.004902  0.086753  0.055129  0.002358  1.007275  0.003
H  H34  1  0.51158952  0.05759757  0.34437462  1  0.013358  -7.2e-05  0.098092  0.074201  -0.000138  0.982926  0.0
H  H35  1  0.65750459  0.08318170  0.42876343  1  0.033341  0.001449  0.086223  0.056286  0.000857  1.020848  0.001
H  H36  1  0.51960122  0.41518089  0.14012828  1  0.386167  8.3e-05  0.29232  0.272628  -0.000158  0.950068  0.0
H  H37  1  0.62411822  0.47564108  0.06722727  1  0.445758  -3.8e-05  0.281353  0.272338  -0.00014  0.990667  0.0
H  H38  1  0.87451040  0.60315291  0.26131582  1  0.043048  -0.002755  0.088113  0.058816  -0.001552  0.999045  -0.002
H  H39  1  0.83677809  0.63549168  0.14777708  1  0.035144  0.001034  0.075321  0.039517  0.000562  1.023235  0.0
H  H40  1  0.81833787  0.42401277  0.16882481  1  0.051508  -0.000295  0.083322  0.052091  -0.000234  1.011367  -0.001
H  H41  1  0.69051760  0.44519214  0.25587092  1  0.01035  -1.5e-05  0.095078  0.065112  1.5e-05  0.994369  0.0
H  H42  1  0.83757356  0.99636607  0.33598331  1  0.419783  8.3e-05  0.273256  0.256524  0.000146  1.007329  0.0
H  H43  1  0.73640839  0.08029387  0.26808027  1  0.406348  0.000266  0.296355  0.279355  0.00039  0.939701  0.0
H  H44  1  0.31175094  0.87181049  0.04960385  1  -0.003279  8.4e-05  0.074618  0.03742  -4.4e-05  1.017272  0.0
H  H45  1  0.50794118  0.90993286  0.04042979  1  0.009949  0.004327  0.087193  0.056746  0.002206  1.007819  0.003
H  H46  1  0.48923683  0.05861281  0.15499527  1  0.036337  -0.000201  0.098176  0.073706  -0.000221  0.983563  0.0
H  H47  1  0.34265151  0.08413815  0.07101348  1  0.029415  0.001152  0.087076  0.057207  0.000676  1.019461  0.001
H  H48  1  0.48072396  0.41524162  0.35950388  1  0.386641  0.000187  0.293886  0.274433  0.000267  0.946689  0.0
H  H49  1  0.37772430  0.47738398  0.43238929  1  0.414375  0.000343  0.283047  0.273342  0.0003  0.985769  0.0
H  H50  1  0.12619878  0.60603743  0.24028199  1  0.017494  0.00382  0.089262  0.060002  0.001748  0.999824  0.003
H  H51  1  0.16128863  0.63470967  0.35462838  1  0.011748  0.000677  0.074878  0.039901  0.000132  1.023084  0.0
H  H52  1  0.18394836  0.42412952  0.32999308  1  0.054934  0.0007  0.084279  0.053276  0.000424  1.008332  0.0
H  H53  1  0.31122715  0.44947278  0.24322789  1  -0.002171  0.000157  0.096057  0.066366  3.1e-05  0.995133  0.0
H  H54  1  0.16290877  0.99995212  0.16432848  1  0.421256  4.4e-05  0.274122  0.255808  0.000132  1.006353  0.0
H  H55  1  0.26728013  0.08063400  0.23299139  1  0.406954  -1.2e-05  0.295991  0.278755  0.0002  0.941172  0.0
Au  Au56  1  0.99957169  0.00024927  0.99946944  1  0.221305  -0.001256  0.276913  0.013634  -0.00172  2.869295  0.0
Au  Au57  1  0.99963493  0.99977264  0.49943146  1  0.221009  -0.00126  0.276813  0.013494  -0.001727  2.869575  0.0
Au  Au58  1  0.00082511  0.49967825  0.00041844  1  0.224676  9.2e-05  0.260761  -0.002656  -0.000289  2.838283  0.0
Au  Au59  1  0.00077052  0.50020968  0.50049937  1  0.22573  9.3e-05  0.260834  -0.002552  -0.000287  2.838464  0.0
C  C60  1  0.10471275  0.07674848  0.90402268  1  0.780032  -0.005207  -0.024517  0.0302  -0.002882  3.996825  0.0
C  C61  1  0.81111099  0.42261709  0.95916590  1  0.778723  -0.002904  -0.022489  0.043884  -0.001592  3.994451  0.0
C  C62  1  0.41524780  0.09616547  0.58715447  1  0.538941  -3.1e-05  -0.100795  0.051069  8.1e-05  4.025125  -0.001
C  C63  1  0.38277696  0.97587840  0.62355991  1  0.267646  -0.00183  -0.090655  -0.031743  -0.001101  3.970015  -0.002
C  C64  1  0.21526567  0.39530081  0.79407096  1  0.505284  -0.000985  -0.101925  0.041059  0.000544  4.014763  -0.003
C  C65  1  0.27451545  0.51856871  0.80678734  1  0.272627  0.007381  -0.088455  -0.016407  0.005146  3.953065  0.005
C  C66  1  0.89115707  0.07625509  0.59362866  1  0.765565  -0.00446  -0.025057  0.030844  -0.002435  3.997631  0.0
C  C67  1  0.19040277  0.42353859  0.54239483  1  0.778628  0.001689  -0.021814  0.04453  0.000478  3.999236  -0.001
C  C68  1  0.58519679  0.09708821  0.91233599  1  0.487381  -0.000229  -0.100844  0.050223  0.001019  4.025436  -0.002
C  C69  1  0.61769554  0.97684673  0.87612842  1  0.28998  0.006456  -0.089912  -0.029683  0.004591  3.967378  0.004
C  C70  1  0.78401452  0.39679695  0.70795325  1  0.496287  -0.000575  -0.102065  0.043951  -0.000232  4.020022  0.0
C  C71  1  0.72636751  0.52022671  0.69269287  1  0.261035  0.002742  -0.088258  -0.015663  0.001612  3.958  0.003
C  C72  1  0.89121083  0.92371721  0.09366008  1  0.765118  -0.004436  -0.024902  0.031026  -0.002418  3.997457  0.0
C  C73  1  0.19044964  0.57631464  0.04230713  1  0.777841  0.001691  -0.021547  0.045018  0.000478  3.999348  -0.001
C  C74  1  0.58522344  0.90292872  0.41231545  1  0.487167  -0.000216  -0.100764  0.050442  0.001027  4.025616  -0.002
C  C75  1  0.61771378  0.02318726  0.37615103  1  0.289825  0.006442  -0.089998  -0.029927  0.004583  3.967933  0.004
C  C76  1  0.78412325  0.60310914  0.20801173  1  0.465651  -0.000626  -0.102319  0.042781  -0.000229  4.020944  0.0
C  C77  1  0.72657503  0.47966350  0.19275722  1  0.254449  0.002736  -0.088959  -0.017127  0.001611  3.958387  0.003
C  C78  1  0.10484648  0.92327159  0.40398193  1  0.780034  -0.005199  -0.024079  0.031215  -0.002877  3.996057  0.0
C  C79  1  0.81109625  0.57735252  0.45922117  1  0.777821  -0.002872  -0.022725  0.043646  -0.00157  3.994916  0.0
C  C80  1  0.41536494  0.90396186  0.08704889  1  0.540432  -3.4e-05  -0.101122  0.049439  8.2e-05  4.025621  -0.001
C  C81  1  0.38286430  0.02421290  0.12356592  1  0.265235  -0.001814  -0.090449  -0.030237  -0.001089  3.9683  -0.002
C  C82  1  0.21541940  0.60475628  0.29416282  1  0.503726  -0.000983  -0.101644  0.04152  0.000543  4.014243  -0.003
C  C83  1  0.27461955  0.48147680  0.30695348  1  0.272075  0.007391  -0.088163  -0.016569  0.005153  3.952726  0.005
N  N84  1  0.16708643  0.12072649  0.84618394  1  -1.312257  0.022101  -0.399025  -0.357749  0.015325  3.506852  0.019
N  N85  1  0.69352673  0.38000612  0.93673384  1  -1.334207  0.014621  -0.415603  -0.388947  0.010044  3.534781  0.012
N  N86  1  0.41046220  0.51586924  0.86879816  1  -1.073637  0.036719  -0.635113  -0.567082  0.023759  3.42378  0.03
N  N87  1  0.27073963  0.98964997  0.69252620  1  -1.103359  0.041127  -0.636923  -0.568676  0.026642  3.464034  0.034
N  N88  1  0.82268477  0.12009991  0.64909434  1  -1.296142  0.020712  -0.39907  -0.360082  0.014415  3.515018  0.018
N  N89  1  0.30771062  0.38168538  0.56619835  1  -1.330806  -0.015413  -0.415948  -0.387467  -0.01114  3.54252  -0.012
N  N90  1  0.59094948  0.51667770  0.63063671  1  -1.105154  -0.034163  -0.635495  -0.571133  -0.023125  3.419969  -0.029
N  N91  1  0.73034351  0.99092851  0.80740740  1  -1.115298  0.043596  -0.637065  -0.568978  0.028114  3.460314  0.036
N  N92  1  0.82281186  0.87982199  0.14911848  1  -1.295762  0.020644  -0.399263  -0.36026  0.014367  3.514854  0.017
N  N93  1  0.30777659  0.61814082  0.06607501  1  -1.329275  -0.015338  -0.416154  -0.387884  -0.011086  3.543253  -0.012
N  N94  1  0.59120392  0.48314878  0.13065761  1  -1.105785  -0.03403  -0.634429  -0.569687  -0.023043  3.419916  -0.028
N  N95  1  0.73034006  0.00911627  0.30741105  1  -1.11541  0.04355  -0.637036  -0.569206  0.028086  3.46035  0.036
N  N96  1  0.16719520  0.87925945  0.34613269  1  -1.311752  0.022114  -0.399147  -0.358526  0.015338  3.505815  0.019
N  N97  1  0.69356591  0.62002546  0.43671888  1  -1.333613  0.014642  -0.4157  -0.389171  0.010055  3.535186  0.012
N  N98  1  0.41065133  0.48421228  0.36890277  1  -1.071743  0.03674  -0.635308  -0.567407  0.023776  3.424457  0.03
N  N99  1  0.27083837  0.01039425  0.19253317  1  -1.116805  0.04118  -0.636683  -0.568391  0.02667  3.464547  0.034
O  O100  1  0.33940226  0.32352230  0.77472194  1  -1.072763  0.117421  -0.412668  -0.543671  0.072434  2.599916  0.106
O  O101  1  0.45640343  0.17009482  0.65759702  1  -1.099764  0.027985  -0.416067  -0.565819  0.016967  2.584209  0.026
O  O102  1  0.66031656  0.32674143  0.73002570  1  -1.085435  0.006566  -0.416488  -0.552531  0.003921  2.594766  0.008
O  O103  1  0.54536242  0.17098462  0.84162104  1  -1.073839  0.108673  -0.411594  -0.557686  0.067369  2.556978  0.098
O  O104  1  0.66032608  0.67317007  0.22999814  1  -1.090437  0.006803  -0.416278  -0.55197  0.004075  2.594548  0.008
O  O105  1  0.54537113  0.82904261  0.34159543  1  -1.074053  0.108484  -0.411698  -0.557986  0.067254  2.557226  0.097
O  O106  1  0.33954125  0.67642529  0.27466162  1  -1.072436  0.117559  -0.412917  -0.544077  0.072537  2.599064  0.106
O  O107  1  0.45644061  0.82988626  0.15741905  1  -1.098329  0.028266  -0.415939  -0.565709  0.01715  2.582108  0.026
