# generated using pymatgen
data_CuH24C24(N6Cl)2
_symmetry_space_group_name_H-M   'P 1'
_cell_length_a   7.54716300
_cell_length_b   8.32468068
_cell_length_c   11.10036273
_cell_angle_alpha   77.87965620
_cell_angle_beta   88.60730866
_cell_angle_gamma   72.14516065
_symmetry_Int_Tables_number   1
_chemical_formula_structural   CuH24C24(N6Cl)2
_chemical_formula_sum   'Cu1 H24 C24 N12 Cl2'
_cell_volume   648.42131606
_cell_formula_units_Z   1
loop_
 _symmetry_equiv_pos_site_id
 _symmetry_equiv_pos_as_xyz
  1  'x, y, z'
loop_
 _atom_site_type_symbol
 _atom_site_label
 _atom_site_symmetry_multiplicity
 _atom_site_fract_x
 _atom_site_fract_y
 _atom_site_fract_z
 _atom_site_occupancy
 _atom_site_hle17_ddec_charge
 _atom_site_hle17_ddec_spin_density
 _atom_site_hle17_ddec_sum_bond_order
 _atom_site_hle17_magmom
 _atom_site_hse06_10hf_ddec_charge
 _atom_site_hse06_10hf_ddec_spin_density
 _atom_site_hse06_10hf_ddec_sum_bond_order
 _atom_site_hse06_10hf_magmom
 _atom_site_hse06_ddec_charge
 _atom_site_hse06_ddec_spin_density
 _atom_site_hse06_ddec_sum_bond_order
 _atom_site_hse06_magmom
 _atom_site_pbe_cm5_charge
 _atom_site_pbe_ddec_charge
 _atom_site_pbe_ddec_spin_density
 _atom_site_pbe_ddec_sum_bond_order
 _atom_site_pbe_magmom
Cu  Cu0  1  0.99999674  0.00000187  0.99999851  1  0.784748  0.711262  1.919927  0.545  0.748136  0.788159  2.293211  0.647  0.826947  0.845482  2.240268  0.722  0.733972  0.698891  0.747327  2.329461  0.596
H  H1  1  0.21494137  0.48305337  0.39992709  1  0.098986  2.2e-05  0.996088  0.0  0.103041  4.4e-05  1.071924  0.0  0.106481  3e-05  1.069868  0.0  0.098474  0.100579  5.2e-05  1.073425  0.0
H  H2  1  0.78506353  0.51695297  0.60007132  1  0.098964  3.6e-05  0.996037  0.0  0.10304  4.4e-05  1.071849  0.0  0.10648  2.9e-05  1.069792  0.0  0.098481  0.100579  5.2e-05  1.073351  0.0
H  H3  1  0.63683700  0.10108925  0.64931765  1  0.084095  -0.000102  0.965393  0.0  0.096438  -1.4e-05  1.027663  0.0  0.098502  -1.3e-05  1.026936  0.0  0.096809  0.094674  -1.1e-05  1.028849  0.0
H  H4  1  0.36316478  0.89891451  0.35068122  1  0.084075  -9.4e-05  0.965388  0.0  0.0964  -1.4e-05  1.027677  0.0  0.098463  -1.3e-05  1.026951  0.0  0.09678  0.094604  -1.1e-05  1.028896  0.0
H  H5  1  0.80213888  0.99096912  0.47185220  1  0.08959  -1e-05  0.954887  0.0  0.098874  -1e-05  1.015304  0.0  0.1018  -7e-06  1.014208  0.0  0.098542  0.096788  -1e-05  1.016057  0.0
H  H6  1  0.19785935  0.00903336  0.52814693  1  0.089624  -9e-06  0.954812  0.0  0.09885  -1e-05  1.015291  0.0  0.101777  -6e-06  1.014194  0.0  0.098553  0.096765  -1e-05  1.016045  0.0
H  H7  1  0.66976843  0.12619514  0.25781761  1  0.091227  -0.000193  0.974968  0.0  0.098577  -5.4e-05  1.044552  0.0  0.1005  -5.4e-05  1.044911  0.0  0.094496  0.096917  -5.1e-05  1.044986  0.0
H  H8  1  0.33023061  0.87380087  0.74218163  1  0.091232  -0.000187  0.975039  0.0  0.09857  -5.4e-05  1.044633  0.0  0.100493  -5.4e-05  1.044992  0.0  0.09451  0.096913  -5.1e-05  1.04507  0.0
H  H9  1  0.29145127  0.53225905  0.17040377  1  0.105417  0.000226  0.947082  0.0  0.115711  0.000151  1.014839  0.0  0.117461  9.5e-05  1.013124  0.0  0.105856  0.114413  0.000204  1.016069  0.0
H  H10  1  0.70855220  0.46773564  0.82959202  1  0.105417  0.000233  0.947014  0.0  0.115682  0.000151  1.01481  0.0  0.117433  9.5e-05  1.013094  0.0  0.10586  0.114379  0.000204  1.01604  0.0
H  H11  1  0.45508554  0.36120824  0.11680623  1  0.093695  -3e-05  0.957965  0.0  0.104607  5e-06  1.026889  0.0  0.10595  9e-06  1.025258  0.0  0.101084  0.103506  -6e-06  1.028203  0.0
H  H12  1  0.54491832  0.63878130  0.88319127  1  0.093731  -2e-05  0.958062  0.0  0.10467  5e-06  1.026929  0.0  0.106013  9e-06  1.0253  0.0  0.101135  0.103565  -6e-06  1.02824  0.0
H  H13  1  0.42206145  0.36941415  0.71328117  1  0.096684  -5.2e-05  0.9307  0.0  0.109569  4e-06  0.995685  0.0  0.110227  4e-06  0.99554  0.0  0.113407  0.108842  6e-06  0.996108  0.0
H  H14  1  0.57794554  0.63058187  0.28672156  1  0.096645  -3.8e-05  0.930708  0.0  0.109545  5e-06  0.995699  0.0  0.110201  4e-06  0.995559  0.0  0.113414  0.108817  6e-06  0.996119  0.0
H  H15  1  0.23312012  0.50819535  0.61016587  1  0.102885  9.6e-05  0.905024  0.0  0.116047  7.7e-05  0.967497  0.0  0.117515  5e-05  0.966562  0.0  0.120155  0.114927  0.000107  0.968217  0.0
H  H16  1  0.76688601  0.49180715  0.38984034  1  0.102816  0.000104  0.905036  0.0  0.116062  7.7e-05  0.967385  0.0  0.117529  5e-05  0.966454  0.0  0.120176  0.114941  0.000107  0.968107  0.0
H  H17  1  0.78073173  0.34760344  0.11010049  1  0.100102  -0.000127  0.939766  0.0  0.109088  1.9e-05  1.000256  0.0  0.110713  -0.0  0.997924  0.0  0.129985  0.107672  3.8e-05  1.002188  0.0
H  H18  1  0.21926613  0.65240416  0.88989242  1  0.100165  -0.000133  0.939696  0.0  0.109117  1.9e-05  1.000209  0.0  0.110741  -0.0  0.997879  0.0  0.130018  0.107685  3.8e-05  1.002165  0.0
H  H19  1  0.35336078  0.09484131  0.09408256  1  0.110484  -8.4e-05  0.973861  0.0  0.114467  9.2e-05  1.044633  0.0  0.116982  7.6e-05  1.041023  0.0  0.123005  0.112327  0.000102  1.047579  0.0
H  H20  1  0.64663503  0.90514441  0.90592559  1  0.11046  -8e-05  0.973884  0.0  0.114439  9.2e-05  1.044669  0.0  0.116993  7.6e-05  1.040998  0.0  0.123001  0.1123  0.000102  1.047613  0.0
H  H21  1  0.84119379  0.15898250  0.72160914  1  0.085872  -0.000179  0.967003  0.0  0.091817  -1e-06  1.034293  0.0  0.093529  -1.5e-05  1.032014  0.0  0.126352  0.090341  1.3e-05  1.03622  0.0
H  H22  1  0.15880451  0.84102381  0.27838307  1  0.085874  -0.00018  0.966994  0.0  0.091817  -1e-06  1.034296  0.0  0.093542  -1.5e-05  1.032  0.0  0.126343  0.090341  1.3e-05  1.036222  0.0
H  H23  1  0.33696976  0.17048064  0.88245224  1  0.106755  -0.00025  0.993522  0.0  0.110311  -6.3e-05  1.066179  0.0  0.113149  -5.5e-05  1.061708  0.0  0.119903  0.107951  -6.5e-05  1.069701  0.0
H  H24  1  0.66302313  0.82952187  0.11755236  1  0.106735  -0.00024  0.993545  0.0  0.110339  -6.3e-05  1.066135  0.0  0.113172  -5.5e-05  1.061675  0.0  0.119909  0.107978  -6.5e-05  1.069655  0.0
C  C25  1  0.43264640  0.31178066  0.31487787  1  0.074624  -0.000924  3.760189  -0.001  0.097324  -0.000394  3.999063  0.0  0.09548  -0.000406  4.025212  0.0  -0.014872  0.098661  -0.000212  3.981014  0.0
C  C26  1  0.56735529  0.68821536  0.68512314  1  0.074652  -0.00085  3.760184  -0.001  0.097264  -0.000398  3.999176  0.0  0.095421  -0.0004  4.025325  0.0  -0.014845  0.098594  -0.000212  3.981137  0.0
C  C27  1  0.34405229  0.37546857  0.41507013  1  -0.153355  0.000302  3.694694  0.0  -0.181173  9.1e-05  3.936346  0.0  -0.184048  0.0001  3.95717  0.0  -0.091839  -0.178982  0.000441  3.921998  0.0
C  C28  1  0.65595212  0.62453520  0.58493050  1  -0.153284  0.000241  3.694631  0.0  -0.181091  9.2e-05  3.936304  0.0  -0.183964  9.8e-05  3.957128  0.0  -0.091837  -0.178905  0.000441  3.921966  0.0
C  C29  1  0.41884343  0.30261360  0.53505020  1  0.074832  -0.000193  3.767683  0.0  0.096219  -0.000228  4.009452  0.0  0.095095  -0.000302  4.034653  0.0  -0.013591  0.097012  -6e-05  3.992161  0.0
C  C30  1  0.58116011  0.69738886  0.46494705  1  0.074706  -0.000129  3.767518  0.0  0.096096  -0.000223  4.009308  0.0  0.094969  -0.0003  4.034517  0.0  -0.013602  0.096898  -6e-05  3.991998  0.0
C  C31  1  0.58290489  0.16274611  0.55507075  1  -0.111733  0.001757  3.743949  0.002  -0.133891  0.000526  3.98938  0.001  -0.13674  0.00038  4.012345  0.0  -0.089746  -0.13178  0.000337  3.973744  0.0
C  C32  1  0.41709644  0.83725895  0.44492972  1  -0.111643  0.001712  3.743962  0.002  -0.133759  0.000525  3.989325  0.001  -0.13661  0.000379  4.012298  0.0  -0.089684  -0.13162  0.000337  3.973688  0.0
C  C33  1  0.67443390  0.10009725  0.45591944  1  -0.058442  -0.001364  3.783066  -0.001  -0.069314  -0.000255  4.031392  0.0  -0.070838  -0.00029  4.053103  0.0  -0.094398  -0.06804  -7.5e-05  4.016221  0.0
C  C34  1  0.32557049  0.89990263  0.54407911  1  -0.05853  -0.001312  3.783001  -0.001  -0.069354  -0.000255  4.031332  0.0  -0.070879  -0.000288  4.053042  0.0  -0.094448  -0.068078  -7.5e-05  4.016157  0.0
C  C35  1  0.59935146  0.17478131  0.33594882  1  -0.123745  0.002005  3.740479  0.002  -0.146987  0.000507  3.991038  0.0  -0.150279  0.000348  4.014689  0.0  -0.094467  -0.144494  0.000332  3.97491  0.0
C  C36  1  0.40064980  0.82521601  0.66405289  1  -0.123781  0.00197  3.740315  0.002  -0.146977  0.000509  3.990873  0.0  -0.150268  0.000347  4.014522  0.0  -0.094512  -0.144489  0.000332  3.974765  0.0
C  C37  1  0.34967713  0.39133103  0.18571183  1  -0.076394  0.000639  3.643634  0.001  -0.15311  0.000527  3.882379  0.001  -0.149542  0.000388  3.892665  0.001  -0.054366  -0.155149  0.000665  3.875367  0.001
C  C38  1  0.65032148  0.60866628  0.81428901  1  -0.07651  0.000606  3.643653  0.001  -0.153148  0.000528  3.882454  0.001  -0.149588  0.000388  3.892757  0.001  -0.054413  -0.155163  0.000666  3.875417  0.001
C  C39  1  0.32177416  0.37406873  0.64157404  1  -0.059372  0.000668  3.638634  0.001  -0.138552  0.000564  3.885662  0.001  -0.134862  0.000434  3.896146  0.001  -0.040836  -0.140726  0.000671  3.87859  0.001
C  C40  1  0.67823335  0.62593373  0.35842405  1  -0.059262  0.000633  3.638384  0.001  -0.138574  0.000564  3.885566  0.001  -0.134889  0.000435  3.896052  0.001  -0.04092  -0.140754  0.000671  3.878492  0.001
C  C41  1  0.93072485  0.31563809  0.12091148  1  0.194736  -0.004775  3.692753  -0.002  0.145814  -0.000966  3.986506  0.0  0.159256  -0.001821  3.999269  -0.001  0.140139  0.137174  -0.000424  3.977663  0.001
C  C42  1  0.06927116  0.68436308  0.87908519  1  0.19473  -0.004721  3.692744  -0.002  0.145844  -0.000967  3.986457  0.0  0.159286  -0.001819  3.999216  -0.001  0.140146  0.137222  -0.000424  3.977627  0.001
C  C43  1  0.22094606  0.18379020  0.11122505  1  0.156426  -0.005886  3.633375  -0.003  0.085602  -0.001658  3.893694  0.0  0.100407  -0.002829  3.906741  -0.001  0.153358  0.076315  -0.000892  3.885059  0.0
C  C44  1  0.77905202  0.81620068  0.88878044  1  0.156442  -0.005882  3.633416  -0.003  0.085662  -0.001658  3.893792  0.0  0.100448  -0.002827  3.906823  -0.001  0.153387  0.076379  -0.000893  3.885163  0.0
C  C45  1  0.97195378  0.18278209  0.73359094  1  0.196286  -0.005448  3.715897  -0.002  0.147185  -0.001691  4.008198  0.0  0.160417  -0.00253  4.020815  -0.001  0.145032  0.138738  -0.001165  3.999587  0.0
C  C46  1  0.02804669  0.81722165  0.26640434  1  0.196302  -0.005454  3.715953  -0.002  0.147215  -0.001691  4.008242  0.0  0.160437  -0.002533  4.020864  -0.001  0.14501  0.138766  -0.001166  3.999622  0.0
C  C47  1  0.22011525  0.18664180  0.82025688  1  0.172665  -0.005549  3.618698  -0.002  0.096267  -0.001392  3.892117  0.0  0.112313  -0.002533  3.903507  -0.001  0.161435  0.085956  -0.000649  3.884843  0.001
C  C48  1  0.77988339  0.81335940  0.17974515  1  0.172685  -0.005616  3.61872  -0.002  0.096224  -0.001389  3.892139  0.0  0.112259  -0.002535  3.90354  -0.001  0.161432  0.08591  -0.000649  3.884855  0.001
N  N49  1  0.20031058  0.32639235  0.15499573  1  0.061045  0.001647  3.543393  0.003  0.182648  0.001214  3.728009  0.002  0.172863  0.000851  3.750372  0.001  -0.127366  0.188078  0.001505  3.714298  0.002
N  N50  1  0.79969244  0.67360367  0.84500526  1  0.06125  0.001658  3.543287  0.003  0.182682  0.001215  3.728092  0.002  0.172892  0.000849  3.75047  0.001  -0.127365  0.188107  0.001505  3.714377  0.002
N  N51  1  0.01609856  0.41223631  0.16272184  1  -0.256372  0.008966  2.821412  0.011  -0.261137  0.004177  3.087675  0.005  -0.269382  0.002816  3.101532  0.004  -0.219911  -0.254985  0.005677  3.077945  0.007
N  N52  1  0.98390190  0.58776744  0.83727525  1  -0.256475  0.008938  2.821554  0.011  -0.261184  0.004177  3.087846  0.005  -0.269423  0.002816  3.101696  0.004  -0.219928  -0.25503  0.005677  3.078112  0.007
N  N53  1  0.05180365  0.17313458  0.08856311  1  -0.370606  0.070867  3.290504  0.095  -0.327778  0.050911  3.604514  0.072  -0.361029  0.040881  3.625722  0.062  -0.359755  -0.306822  0.057375  3.59079  0.077
N  N54  1  0.94819145  0.82686532  0.91143737  1  -0.370684  0.070859  3.29047  0.095  -0.327843  0.050911  3.604452  0.072  -0.361094  0.040882  3.625664  0.062  -0.359785  -0.306894  0.057376  3.590733  0.077
N  N55  1  0.20254286  0.27532918  0.70325107  1  0.054717  0.001988  3.557185  0.003  0.172095  0.001397  3.748483  0.002  0.162865  0.001014  3.769435  0.002  -0.129002  0.17741  0.001683  3.735338  0.002
N  N56  1  0.79746067  0.72467329  0.29674798  1  0.054775  0.002016  3.557123  0.003  0.172236  0.001395  3.748368  0.002  0.163055  0.001016  3.769231  0.002  -0.128936  0.177552  0.001683  3.735213  0.002
N  N57  1  0.04548588  0.27450028  0.64594916  1  -0.263893  0.008051  2.850928  0.01  -0.263602  0.003759  3.118753  0.005  -0.27116  0.002524  3.129472  0.003  -0.218627  -0.258146  0.005188  3.111292  0.006
N  N58  1  0.95451633  0.72550219  0.35404990  1  -0.263957  0.008057  2.851015  0.01  -0.263685  0.003759  3.1188  0.005  -0.271254  0.002525  3.129521  0.003  -0.218621  -0.258231  0.005188  3.111335  0.006
N  N59  1  0.07471209  0.12579670  0.84214774  1  -0.379333  0.073036  3.32865  0.097  -0.34107  0.050985  3.653129  0.071  -0.37559  0.040935  3.67454  0.061  -0.369522  -0.319413  0.057404  3.639575  0.077
N  N60  1  0.92528260  0.87420448  0.15785075  1  -0.379326  0.073045  3.328658  0.097  -0.34108  0.050987  3.653173  0.071  -0.375603  0.040936  3.674597  0.061  -0.369526  -0.319421  0.057408  3.639609  0.077
Cl  Cl61  1  0.37937269  0.79753249  0.04986017  1  -0.690222  -0.000765  0.686747  0.001  -0.649151  -0.002407  0.908541  0.0  -0.661517  -0.002827  0.888182  -0.001  -0.376724  -0.639187  -0.001846  0.923432  0.0
Cl  Cl62  1  0.62062198  0.20246871  0.95014101  1  -0.690236  -0.000767  0.686771  0.001  -0.649128  -0.002407  0.908551  0.0  -0.661498  -0.002827  0.88819  -0.001  -0.376714  -0.63916  -0.001846  0.923438  0.0
