# generated using pymatgen
data_TmH7C8NO8
_symmetry_space_group_name_H-M   'P 1'
_cell_length_a   7.41799236
_cell_length_b   9.80216237
_cell_length_c   14.57966201
_cell_angle_alpha   90.00001809
_cell_angle_beta   97.58060294
_cell_angle_gamma   90.00010739
_symmetry_Int_Tables_number   1
_chemical_formula_structural   TmH7C8NO8
_chemical_formula_sum   'Tm4 H28 C32 N4 O32'
_cell_volume   1050.85652393
_cell_formula_units_Z   4
loop_
 _symmetry_equiv_pos_site_id
 _symmetry_equiv_pos_as_xyz
  1  'x, y, z'
loop_
 _atom_site_type_symbol
 _atom_site_label
 _atom_site_symmetry_multiplicity
 _atom_site_fract_x
 _atom_site_fract_y
 _atom_site_fract_z
 _atom_site_occupancy
 _atom_site_hle17_bader_spin_density
 _atom_site_hle17_ddec_charge
 _atom_site_hle17_ddec_spin_density
 _atom_site_hle17_ddec_sum_bond_order
 _atom_site_hle17_magmom
 _atom_site_hse06_10hf_bader_spin_density
 _atom_site_hse06_10hf_ddec_charge
 _atom_site_hse06_10hf_ddec_spin_density
 _atom_site_hse06_10hf_ddec_sum_bond_order
 _atom_site_hse06_10hf_magmom
 _atom_site_hse06_bader_spin_density
 _atom_site_hse06_ddec_charge
 _atom_site_hse06_ddec_spin_density
 _atom_site_hse06_ddec_sum_bond_order
 _atom_site_hse06_magmom
 _atom_site_pbe_bader_spin_density
 _atom_site_pbe_cm5_charge
 _atom_site_pbe_ddec_charge
 _atom_site_pbe_ddec_spin_density
 _atom_site_pbe_ddec_sum_bond_order
 _atom_site_pbe_magmom
Tm  Tm0  1  0.14809784  0.54483915  0.35774991  1  0  2.307871  0  1.631764  0  0  2.251146  0  1.953442  0  0  2.298984  0  1.911078  0  0  1.536342  2.132056  0  2.143614  0
Tm  Tm1  1  0.35190269  0.04483835  0.14225062  1  0  2.30785  0  1.631806  0  0  2.251122  0  1.953493  0  0  2.298962  0  1.911129  0  0  1.536323  2.132018  0  2.143678  0
Tm  Tm2  1  0.85189619  0.45516154  0.64225066  1  0  2.307841  0  1.631815  0  0  2.251098  0  1.953493  0  0  2.298936  0  1.911133  0  0  1.536321  2.131947  0  2.14377  0
Tm  Tm3  1  0.64810360  0.95516031  0.85774874  1  0  2.307877  0  1.631745  0  0  2.251136  0  1.953422  0  0  2.298976  0  1.911058  0  0  1.536332  2.132005  0  2.143656  0
H  H4  1  0.16615742  0.11933101  0.35272158  1  0  0.124397  0  0.92301  0  0  0.130308  0  0.989728  0  0  0.135452  0  0.983696  0  0  0.125329  0.126689  0  0.993691  0
H  H5  1  0.33385282  0.61932688  0.14728033  1  0  0.124446  0  0.922909  0  0  0.130323  0  0.989668  0  0  0.135469  0  0.98363  0  0  0.125345  0.126701  0  0.993631  0
H  H6  1  0.83384752  0.88066356  0.64727563  1  0  0.124428  0  0.922959  0  0  0.130328  0  0.989705  0  0  0.135478  0  0.983658  0  0  0.125315  0.126705  0  0.993662  0
H  H7  1  0.66614799  0.38066464  0.85272345  1  0  0.124396  0  0.923026  0  0  0.130316  0  0.989747  0  0  0.135463  0  0.983706  0  0  0.125328  0.126691  0  0.99371  0
H  H8  1  0.39283542  0.78353057  0.52007620  1  0  0.087565  0  0.962118  0  0  0.094108  0  1.028686  0  0  0.096728  0  1.026305  0  0  0.119876  0.091756  0  1.031107  0
H  H9  1  0.10716712  0.28352652  0.97992433  1  0  0.087517  0  0.962065  0  0  0.094041  0  1.028666  0  0  0.09666  0  1.026285  0  0  0.119877  0.091686  0  1.031088  0
H  H10  1  0.60715996  0.21647012  0.47992583  1  0  0.087559  0  0.962059  0  0  0.094083  0  1.028667  0  0  0.0967  0  1.026289  0  0  0.119871  0.091734  0  1.031088  0
H  H11  1  0.89283510  0.71647214  0.02007338  1  0  0.087605  0  0.961995  0  0  0.094103  0  1.028632  0  0  0.09672  0  1.026258  0  0  0.11988  0.091754  0  1.031053  0
H  H12  1  0.20930193  0.12160102  0.65097258  1  0  0.103164  0  0.92397  0  0  0.109405  0  0.98847  0  0  0.113614  0  0.983711  0  0  0.123338  0.105898  0  0.99281  0
H  H13  1  0.29069201  0.62160202  0.84902870  1  0  0.103177  0  0.923952  0  0  0.109431  0  0.988443  0  0  0.11364  0  0.98368  0  0  0.123355  0.105922  0  0.992785  0
H  H14  1  0.79069213  0.87840172  0.34902525  1  0  0.103157  0  0.923937  0  0  0.109442  0  0.988392  0  0  0.113637  0  0.983643  0  0  0.12336  0.105934  0  0.992737  0
H  H15  1  0.70930744  0.37840174  0.15097431  1  0  0.103135  0  0.923983  0  0  0.109408  0  0.988441  0  0  0.113613  0  0.983683  0  0  0.123356  0.105905  0  0.992781  0
H  H16  1  0.92454962  0.63302428  0.18077033  1  0  0.393767  0  0.929765  0  0  0.350626  0  1.014149  0  0  0.362467  0  0.99729  0  0  0.28346  0.341912  0  1.026361  0
H  H17  1  0.57544659  0.13302419  0.31922894  1  0  0.393767  0  0.929754  0  0  0.350623  0  1.014145  0  0  0.362464  0  0.997286  0  0  0.283451  0.341906  0  1.026361  0
H  H18  1  0.07544716  0.36698050  0.81922631  1  0  0.393744  0  0.929777  0  0  0.3506  0  1.01417  0  0  0.362441  0  0.997311  0  0  0.283426  0.341881  0  1.026388  0
H  H19  1  0.42454878  0.86697753  0.68077447  1  0  0.393735  0  0.929795  0  0  0.350588  0  1.01419  0  0  0.362429  0  0.997331  0  0  0.283441  0.34187  0  1.026407  0
H  H20  1  0.76407306  0.55263683  0.29329573  1  0  0.439054  0  0.799152  0  0  0.423649  0  0.849036  0  0  0.431534  0  0.840418  0  0  0.332331  0.417584  0  0.854731  0
H  H21  1  0.73592565  0.05263691  0.20670438  1  0  0.439047  0  0.79915  0  0  0.42364  0  0.849036  0  0  0.431525  0  0.840416  0  0  0.33234  0.417579  0  0.854728  0
H  H22  1  0.23591964  0.44736591  0.70670132  1  0  0.43915  0  0.799052  0  0  0.423739  0  0.848938  0  0  0.431625  0  0.840313  0  0  0.332389  0.417673  0  0.854635  0
H  H23  1  0.26407653  0.94736481  0.79329744  1  0  0.43914  0  0.799074  0  0  0.423732  0  0.848959  0  0  0.431619  0  0.840332  0  0  0.332365  0.417669  0  0.854653  0
H  H24  1  0.79479485  0.44117167  0.37012921  1  0  0.441494  0  0.851444  0  0  0.40983  0  0.917533  0  0  0.421471  0  0.900309  0  0  0.303434  0.401211  0  0.930043  0
H  H25  1  0.70520624  0.94117143  0.12987046  1  0  0.441447  0  0.851522  0  0  0.409783  0  0.917606  0  0  0.421426  0  0.900379  0  0  0.303401  0.401164  0  0.930117  0
H  H26  1  0.20519513  0.55883209  0.62986765  1  0  0.441421  0  0.85159  0  0  0.40976  0  0.917645  0  0  0.421401  0  0.900422  0  0  0.303411  0.401143  0  0.930151  0
H  H27  1  0.29480819  0.05882825  0.87013221  1  0  0.441477  0  0.851527  0  0  0.409826  0  0.917551  0  0  0.421466  0  0.900329  0  0  0.303438  0.401205  0  0.930062  0
H  H28  1  0.04158951  0.76887022  0.20912635  1  0  0.452379  0  0.815294  0  0  0.42667  0  0.8745  0  0  0.436094  0  0.860549  0  0  0.313366  0.419027  0  0.885717  0
H  H29  1  0.45840753  0.26887066  0.29087262  1  0  0.452351  0  0.815331  0  0  0.42665  0  0.874523  0  0  0.436073  0  0.860576  0  0  0.313362  0.419007  0  0.885739  0
H  H30  1  0.95841408  0.23113048  0.79087077  1  0  0.452411  0  0.815263  0  0  0.426706  0  0.874454  0  0  0.43613  0  0.860501  0  0  0.313355  0.419061  0  0.885671  0
H  H31  1  0.54158515  0.73112902  0.70912648  1  0  0.452404  0  0.815264  0  0  0.426694  0  0.87447  0  0  0.436117  0  0.86052  0  0  0.313393  0.419051  0  0.885686  0
C  C32  1  0.27894295  0.93895230  0.42532637  1  0  -0.132093  0  3.743395  0  0  -0.10671  0  3.982943  0  0  -0.120571  0  4.006574  0  0  -0.010118  -0.098662  0  3.969176  0
C  C33  1  0.22105862  0.43894720  0.07467227  1  0  -0.132119  0  3.743473  0  0  -0.106705  0  3.982999  0  0  -0.120587  0  4.00665  0  0  -0.010115  -0.098655  0  3.969234  0
C  C34  1  0.72105656  0.06104840  0.57467047  1  0  -0.132056  0  3.743463  0  0  -0.106633  0  3.983028  0  0  -0.120498  0  4.006659  0  0  -0.010111  -0.098582  0  3.969254  0
C  C35  1  0.77893950  0.56104942  0.92532721  1  0  -0.132209  0  3.743522  0  0  -0.106757  0  3.983084  0  0  -0.120625  0  4.006714  0  0  -0.010143  -0.098705  0  3.969314  0
C  C36  1  0.30807478  0.85768962  0.34129039  1  0  0.751198  0  3.845684  0  0  0.70652  0  4.133114  0  0  0.742772  0  4.121273  0  0  0.242797  0.680674  0  4.13685  0
C  C37  1  0.19192792  0.35768656  0.15871104  1  0  0.75116  0  3.84556  0  0  0.706428  0  4.133072  0  0  0.742702  0  4.121205  0  0  0.242776  0.680583  0  4.13681  0
C  C38  1  0.69192743  0.14230904  0.65870937  1  0  0.7511  0  3.84577  0  0  0.706329  0  4.133328  0  0  0.74259  0  4.121481  0  0  0.242715  0.680479  0  4.137063  0
C  C39  1  0.80807156  0.64230802  0.84128922  1  0  0.751212  0  3.845585  0  0  0.706392  0  4.133221  0  0  0.742654  0  4.121369  0  0  0.242747  0.680544  0  4.136952  0
C  C40  1  0.20346833  0.06968487  0.41948369  1  0  -0.003538  0  3.642314  0  0  -0.046365  0  3.894102  0  0  -0.038454  0  3.90881  0  0  -0.045603  -0.051277  0  3.885641  0
C  C41  1  0.29653906  0.56967963  0.08051733  1  0  -0.003624  0  3.642329  0  0  -0.046427  0  3.894109  0  0  -0.038508  0  3.908818  0  0  -0.045658  -0.051338  0  3.885652  0
C  C42  1  0.79652843  0.93031277  0.58051570  1  0  -0.003504  0  3.642134  0  0  -0.046345  0  3.89391  0  0  -0.03843  0  3.908618  0  0  -0.045561  -0.05125  0  3.885442  0
C  C43  1  0.70346857  0.43031393  0.91948350  1  0  -0.003438  0  3.642131  0  0  -0.046284  0  3.893912  0  0  -0.038368  0  3.908621  0  0  -0.04556  -0.051192  0  3.885447  0
C  C44  1  0.45493855  0.53134545  0.53979693  1  0  0.562077  0  3.915652  0  0  0.519011  0  4.21841  0  0  0.548695  0  4.208354  0  0  0.214781  0.498956  0  4.217206  0
C  C45  1  0.04506742  0.03133824  0.96020242  1  0  0.562147  0  3.915491  0  0  0.519035  0  4.218336  0  0  0.548716  0  4.20828  0  0  0.214779  0.498978  0  4.217135  0
C  C46  1  0.54505269  0.46866647  0.46021236  1  0  0.562207  0  3.915632  0  0  0.519059  0  4.218444  0  0  0.548744  0  4.208386  0  0  0.214669  0.499003  0  4.217242  0
C  C47  1  0.95495120  0.96866246  0.03978682  1  0  0.562231  0  3.915519  0  0  0.519082  0  4.218363  0  0  0.548768  0  4.208303  0  0  0.21468  0.499025  0  4.217164  0
C  C48  1  0.33008784  0.88374107  0.51315423  1  0  0.136216  0  3.6763  0  0  0.091725  0  3.932968  0  0  0.101455  0  3.949078  0  0  0.059487  0.085277  0  3.923446  0
C  C49  1  0.16991495  0.38373711  0.98684634  1  0  0.1364  0  3.676243  0  0  0.091926  0  3.93291  0  0  0.101661  0  3.949021  0  0  0.059526  0.085479  0  3.923393  0
C  C50  1  0.66990890  0.11625963  0.48684721  1  0  0.136293  0  3.676305  0  0  0.091794  0  3.932995  0  0  0.101526  0  3.949104  0  0  0.059521  0.085342  0  3.923478  0
C  C51  1  0.83008590  0.61626053  0.01315196  1  0  0.13631  0  3.676127  0  0  0.091821  0  3.93284  0  0  0.101553  0  3.948949  0  0  0.059514  0.085367  0  3.923328  0
C  C52  1  0.09139376  0.27568323  0.49892883  1  0  0.748396  0  3.856024  0  0  0.701991  0  4.147677  0  0  0.738227  0  4.136023  0  0  0.239214  0.676012  0  4.15143  0
C  C53  1  0.40861008  0.77568322  0.00107267  1  0  0.748408  0  3.855975  0  0  0.701919  0  4.147769  0  0  0.738164  0  4.136104  0  0  0.239189  0.675944  0  4.15151  0
C  C54  1  0.90859212  0.72431339  0.50107049  1  0  0.748583  0  3.855576  0  0  0.702038  0  4.147453  0  0  0.738283  0  4.135785  0  0  0.239258  0.676067  0  4.151198  0
C  C55  1  0.59140706  0.22431340  0.99893087  1  0  0.748376  0  3.855781  0  0  0.701945  0  4.147484  0  0  0.73818  0  4.135833  0  0  0.239189  0.675975  0  4.151219  0
C  C56  1  0.17464571  0.13612939  0.50110201  1  0  -0.124607  0  3.722991  0  0  -0.098323  0  3.96058  0  0  -0.112569  0  3.985295  0  0  -0.010856  -0.090242  0  3.9465  0
C  C57  1  0.32535915  0.63612643  0.99889934  1  0  -0.124629  0  3.722982  0  0  -0.098322  0  3.960589  0  0  -0.112569  0  3.985299  0  0  -0.010866  -0.090239  0  3.946504  0
C  C58  1  0.82534563  0.86386723  0.49889494  1  0  -0.124839  0  3.723093  0  0  -0.098511  0  3.960726  0  0  -0.112761  0  3.985433  0  0  -0.01091  -0.090431  0  3.946643  0
C  C59  1  0.67465662  0.36386713  0.00110548  1  0  -0.124771  0  3.722995  0  0  -0.098507  0  3.960636  0  0  -0.112755  0  3.98535  0  0  -0.010924  -0.090423  0  3.946549  0
C  C60  1  0.22805913  0.07158858  0.58601534  1  0  0.138353  0  3.643023  0  0  0.095371  0  3.898694  0  0  0.104638  0  3.914269  0  0  0.062672  0.089256  0  3.889423  0
C  C61  1  0.27194012  0.57158959  0.91398561  1  0  0.138365  0  3.643008  0  0  0.095371  0  3.898689  0  0  0.104637  0  3.914264  0  0  0.062673  0.089257  0  3.889415  0
C  C62  1  0.77193219  0.92841007  0.41398367  1  0  0.138454  0  3.643121  0  0  0.095444  0  3.898763  0  0  0.104723  0  3.914342  0  0  0.062656  0.089324  0  3.889496  0
C  C63  1  0.72806479  0.42841111  0.08601571  1  0  0.138466  0  3.643067  0  0  0.095493  0  3.898699  0  0  0.104764  0  3.914276  0  0  0.062693  0.089371  0  3.889435  0
N  N64  1  0.30774267  0.94839211  0.59182605  1  0  -0.309579  0  3.164743  0  0  -0.243883  0  3.418362  0  0  -0.259931  0  3.433387  0  0  -0.306807  -0.233645  0  3.409427  0
N  N65  1  0.19225757  0.44839019  0.90817368  1  0  -0.309631  0  3.164653  0  0  -0.243945  0  3.418294  0  0  -0.259991  0  3.433314  0  0  -0.306808  -0.233709  0  3.409359  0
N  N66  1  0.69225002  0.05160756  0.40817237  1  0  -0.309622  0  3.164684  0  0  -0.243922  0  3.418318  0  0  -0.259971  0  3.433336  0  0  -0.306788  -0.233686  0  3.40939  0
N  N67  1  0.80774325  0.55161051  0.09182805  1  0  -0.309655  0  3.164508  0  0  -0.243963  0  3.418137  0  0  -0.260011  0  3.433158  0  0  -0.306829  -0.233728  0  3.409214  0
O  O68  1  0.83901507  0.47323298  0.31211628  1  0  -0.864597  0  1.859489  0  0  -0.830065  0  2.044583  0  0  -0.848112  0  2.016753  0  0  -0.622279  -0.80753  0  2.069257  0
O  O69  1  0.66098473  0.97323271  0.18788468  1  0  -0.864558  0  1.859562  0  0  -0.830021  0  2.044649  0  0  -0.848071  0  2.016826  0  0  -0.62226  -0.807489  0  2.069319  0
O  O70  1  0.16097761  0.52677078  0.68788282  1  0  -0.86467  0  1.859534  0  0  -0.830112  0  2.044565  0  0  -0.848172  0  2.016765  0  0  -0.622341  -0.807574  0  2.069242  0
O  O71  1  0.33902154  0.02676901  0.81211674  1  0  -0.864708  0  1.859499  0  0  -0.830157  0  2.044516  0  0  -0.848216  0  2.016709  0  0  -0.622344  -0.807623  0  2.069195  0
O  O72  1  0.28853332  0.56363514  0.52107694  1  0  -0.668465  0  2.135201  0  0  -0.624358  0  2.372068  0  0  -0.648453  0  2.363504  0  0  -0.329594  -0.598153  0  2.378162  0
O  O73  1  0.21147002  0.06362818  0.97892223  1  0  -0.668465  0  2.135177  0  0  -0.624353  0  2.372098  0  0  -0.648447  0  2.363535  0  0  -0.329588  -0.598152  0  2.378199  0
O  O74  1  0.71145657  0.43637474  0.47893158  1  0  -0.668485  0  2.135303  0  0  -0.624327  0  2.372187  0  0  -0.648428  0  2.36363  0  0  -0.329524  -0.598113  0  2.378277  0
O  O75  1  0.78854450  0.93637354  0.02106946  1  0  -0.668501  0  2.13515  0  0  -0.624349  0  2.372047  0  0  -0.648448  0  2.363483  0  0  -0.329538  -0.598139  0  2.378137  0
O  O76  1  0.33053176  0.72937305  0.35077447  1  0  -0.757429  0  2.019251  0  0  -0.721673  0  2.267758  0  0  -0.747445  0  2.255569  0  0  -0.412047  -0.690829  0  2.280529  0
O  O77  1  0.16946787  0.22937097  0.14922810  1  0  -0.75742  0  2.019172  0  0  -0.721654  0  2.267724  0  0  -0.74743  0  2.255524  0  0  -0.412037  -0.690803  0  2.280492  0
O  O78  1  0.66946770  0.27062561  0.64922784  1  0  -0.757421  0  2.019249  0  0  -0.721631  0  2.267791  0  0  -0.7474  0  2.255587  0  0  -0.412073  -0.690779  0  2.280559  0
O  O79  1  0.83052754  0.77062462  0.85077051  1  0  -0.757421  0  2.019193  0  0  -0.721612  0  2.267756  0  0  -0.747381  0  2.255555  0  0  -0.412049  -0.690755  0  2.280517  0
O  O80  1  0.00286727  0.68210975  0.23328593  1  0  -0.928079  0  1.901013  0  0  -0.887941  0  2.10836  0  0  -0.905965  0  2.074397  0  0  -0.63896  -0.864416  0  2.139004  0
O  O81  1  0.49713363  0.18211125  0.26671329  1  0  -0.928037  0  1.901021  0  0  -0.887891  0  2.108353  0  0  -0.905914  0  2.074389  0  0  -0.638945  -0.864371  0  2.139022  0
O  O82  1  0.99713087  0.31789401  0.76671150  1  0  -0.928094  0  1.901053  0  0  -0.887954  0  2.108384  0  0  -0.90598  0  2.07443  0  0  -0.638921  -0.864405  0  2.139004  0
O  O83  1  0.50286312  0.81788945  0.73328884  1  0  -0.928082  0  1.901035  0  0  -0.887934  0  2.108357  0  0  -0.905956  0  2.074395  0  0  -0.638973  -0.864413  0  2.139023  0
O  O84  1  0.09535507  0.34569022  0.42631094  1  0  -0.739005  0  2.075945  0  0  -0.701574  0  2.334351  0  0  -0.727177  0  2.321444  0  0  -0.403649  -0.670725  0  2.347076  0
O  O85  1  0.40464622  0.84568819  0.07369246  1  0  -0.738972  0  2.075998  0  0  -0.701507  0  2.334445  0  0  -0.727118  0  2.321541  0  0  -0.403608  -0.670656  0  2.347163  0
O  O86  1  0.90463220  0.65430946  0.57368437  1  0  -0.739007  0  2.075927  0  0  -0.701529  0  2.334398  0  0  -0.727133  0  2.321489  0  0  -0.403625  -0.670677  0  2.34712  0
O  O87  1  0.59537494  0.15430843  0.92631822  1  0  -0.738911  0  2.075934  0  0  -0.701466  0  2.334341  0  0  -0.727066  0  2.321438  0  0  -0.403611  -0.670617  0  2.34706  0
O  O88  1  0.30709492  0.92065530  0.26567500  1  0  -0.735243  0  2.071931  0  0  -0.696961  0  2.331562  0  0  -0.722157  0  2.316899  0  0  -0.404877  -0.66587  0  2.346341  0
O  O89  1  0.19291067  0.42065431  0.23432528  1  0  -0.735276  0  2.071926  0  0  -0.69697  0  2.331561  0  0  -0.722172  0  2.316887  0  0  -0.404896  -0.665882  0  2.346342  0
O  O90  1  0.69291138  0.07934132  0.73432299  1  0  -0.735248  0  2.072057  0  0  -0.696911  0  2.331678  0  0  -0.722109  0  2.31701  0  0  -0.404832  -0.665822  0  2.346463  0
O  O91  1  0.80709016  0.57934128  0.76567576  1  0  -0.735268  0  2.071987  0  0  -0.696918  0  2.331641  0  0  -0.722116  0  2.316972  0  0  -0.404846  -0.665825  0  2.346426  0
O  O92  1  0.02469306  0.31278114  0.57056034  1  0  -0.758328  0  2.107503  0  0  -0.724414  0  2.373971  0  0  -0.750412  0  2.361691  0  0  -0.409518  -0.693019  0  2.386014  0
O  O93  1  0.47530410  0.81278244  0.92944120  1  0  -0.758338  0  2.107428  0  0  -0.724393  0  2.373937  0  0  -0.750396  0  2.361652  0  0  -0.409493  -0.693002  0  2.385974  0
O  O94  1  0.97529422  0.68721650  0.42943428  1  0  -0.758404  0  2.107098  0  0  -0.724446  0  2.373648  0  0  -0.750448  0  2.361359  0  0  -0.409597  -0.693062  0  2.38569  0
O  O95  1  0.52469940  0.18722030  0.07056620  1  0  -0.758341  0  2.10717  0  0  -0.724422  0  2.373669  0  0  -0.750423  0  2.361385  0  0  -0.409532  -0.693038  0  2.385711  0
O  O96  1  0.55231386  0.54689721  0.61705347  1  0  -0.664947  0  2.061401  0  0  -0.628071  0  2.303646  0  0  -0.650862  0  2.293368  0  0  -0.362045  -0.60189  0  2.312495  0
O  O97  1  0.94769032  0.04689053  0.88294477  1  0  -0.664995  0  2.061268  0  0  -0.628096  0  2.303525  0  0  -0.650887  0  2.29325  0  0  -0.362046  -0.601919  0  2.312373  0
O  O98  1  0.44767738  0.45311165  0.38295582  1  0  -0.665035  0  2.061335  0  0  -0.628146  0  2.303605  0  0  -0.650932  0  2.293317  0  0  -0.362074  -0.601971  0  2.312455  0
O  O99  1  0.05232286  0.95310915  0.11704409  1  0  -0.665062  0  2.061381  0  0  -0.628152  0  2.303646  0  0  -0.650939  0  2.293357  0  0  -0.362062  -0.601975  0  2.312494  0
