# generated using pymatgen
data_BaH3C7NO4
_symmetry_space_group_name_H-M   'P 1'
_cell_length_a   9.45599057
_cell_length_b   10.97181475
_cell_length_c   12.72941599
_cell_angle_alpha   115.52344573
_cell_angle_beta   91.50727371
_cell_angle_gamma   90.01161616
_symmetry_Int_Tables_number   1
_chemical_formula_structural   BaH3C7NO4
_chemical_formula_sum   'Ba6 H18 C42 N6 O24'
_cell_volume   1191.27383333
_cell_formula_units_Z   6
loop_
 _symmetry_equiv_pos_site_id
 _symmetry_equiv_pos_as_xyz
  1  'x, y, z'
loop_
 _atom_site_type_symbol
 _atom_site_label
 _atom_site_symmetry_multiplicity
 _atom_site_fract_x
 _atom_site_fract_y
 _atom_site_fract_z
 _atom_site_occupancy
 _atom_site_hle17_bader_spin_density
 _atom_site_hle17_ddec_charge
 _atom_site_hle17_ddec_spin_density
 _atom_site_hle17_ddec_sum_bond_order
 _atom_site_hle17_magmom
 _atom_site_hse06_10hf_bader_spin_density
 _atom_site_hse06_10hf_ddec_charge
 _atom_site_hse06_10hf_ddec_spin_density
 _atom_site_hse06_10hf_ddec_sum_bond_order
 _atom_site_hse06_10hf_magmom
 _atom_site_hse06_bader_spin_density
 _atom_site_hse06_ddec_charge
 _atom_site_hse06_ddec_spin_density
 _atom_site_hse06_ddec_sum_bond_order
 _atom_site_hse06_magmom
 _atom_site_pbe_bader_spin_density
 _atom_site_pbe_cm5_charge
 _atom_site_pbe_ddec_charge
 _atom_site_pbe_ddec_spin_density
 _atom_site_pbe_ddec_sum_bond_order
 _atom_site_pbe_magmom
Ba  Ba0  1  0.74995240  0.92681197  0.99999332  1  0  1.637888  0  1.162193  0  0  1.477327  0  1.566293  0  0  1.52301  0  1.518852  0  0  1.006066  1.444219  0  1.599216  0
Ba  Ba1  1  0.25004556  0.07318810  0.00000652  1  0  1.637835  0  1.162251  0  0  1.477317  0  1.566281  0  0  1.522971  0  1.518889  0  0  1.006057  1.44421  0  1.599198  0
Ba  Ba2  1  0.92269507  0.31904280  0.32618105  1  0  1.610118  0  1.14425  0  0  1.453574  0  1.536133  0  0  1.498427  0  1.491875  0  0  0.986689  1.420428  0  1.567842  0
Ba  Ba3  1  0.57717803  0.99272942  0.67382926  1  0  1.610127  0  1.144583  0  0  1.453101  0  1.537216  0  0  1.497681  0  1.493366  0  0  0.986755  1.420363  0  1.56828  0
Ba  Ba4  1  0.07730393  0.68095628  0.67381607  1  0  1.610086  0  1.144286  0  0  1.453536  0  1.536177  0  0  1.498391  0  1.491917  0  0  0.986681  1.420386  0  1.567886  0
Ba  Ba5  1  0.42282414  0.00726659  0.32617305  1  0  1.610099  0  1.144624  0  0  1.453086  0  1.537234  0  0  1.497707  0  1.493318  0  0  0.98676  1.420341  0  1.568285  0
H  H6  1  0.90217700  0.35401237  0.86216300  1  0  0.110651  0  0.95726  0  0  0.11681  0  1.023182  0  0  0.119727  0  1.022909  0  0  0.109477  0.114713  0  1.023401  0
H  H7  1  0.59759871  0.49181861  0.13777472  1  0  0.11064  0  0.95745  0  0  0.116965  0  1.023262  0  0  0.119896  0  1.022956  0  0  0.109498  0.11477  0  1.023692  0
H  H8  1  0.09782414  0.64598770  0.13783768  1  0  0.110622  0  0.957203  0  0  0.116827  0  1.023098  0  0  0.119745  0  1.022824  0  0  0.109462  0.114723  0  1.023333  0
H  H9  1  0.40240138  0.50818247  0.86222553  1  0  0.110621  0  0.957481  0  0  0.116962  0  1.023288  0  0  0.119893  0  1.022981  0  0  0.10949  0.114764  0  1.023728  0
H  H10  1  0.74981111  0.30360027  0.99997228  1  0  0.104592  0  0.936195  0  0  0.114934  0  0.993902  0  0  0.118498  0  0.991574  0  0  0.122808  0.112609  0  0.995188  0
H  H11  1  0.25018793  0.69640080  0.00002874  1  0  0.104592  0  0.936178  0  0  0.114933  0  0.993882  0  0  0.118497  0  0.991557  0  0  0.122809  0.112605  0  0.995178  0
H  H12  1  0.32442280  0.34631750  0.22161664  1  0  0.101994  0  0.990285  0  0  0.108113  0  1.059995  0  0  0.111817  0  1.05786  0  0  0.121683  0.105439  0  1.06169  0
H  H13  1  0.17562428  0.12475564  0.77838629  1  0  0.101462  0  0.990649  0  0  0.108079  0  1.059667  0  0  0.111795  0  1.057504  0  0  0.121469  0.105437  0  1.061271  0
H  H14  1  0.67557734  0.65368660  0.77838632  1  0  0.101936  0  0.990322  0  0  0.108059  0  1.060029  0  0  0.111762  0  1.057896  0  0  0.121658  0.105378  0  1.061734  0
H  H15  1  0.82437590  0.87525251  0.22161741  1  0  0.101504  0  0.990562  0  0  0.108087  0  1.059624  0  0  0.1118  0  1.057467  0  0  0.121487  0.105439  0  1.061233  0
H  H16  1  0.27789470  0.58779702  0.35783952  1  0  0.103717  0  0.928839  0  0  0.114986  0  0.985269  0  0  0.117679  0  0.984261  0  0  0.122087  0.112991  0  0.986156  0
H  H17  1  0.22216945  0.22997270  0.64205934  1  0  0.103629  0  0.92844  0  0  0.114841  0  0.985183  0  0  0.117597  0  0.984081  0  0  0.122012  0.112838  0  0.986076  0
H  H18  1  0.72210859  0.41220711  0.64216036  1  0  0.103737  0  0.928872  0  0  0.115008  0  0.98529  0  0  0.117704  0  0.984281  0  0  0.122097  0.113007  0  0.986184  0
H  H19  1  0.77783169  0.77002840  0.35793780  1  0  0.103592  0  0.928516  0  0  0.114802  0  0.985261  0  0  0.117556  0  0.984163  0  0  0.12201  0.112802  0  0.986152  0
H  H20  1  0.47362804  0.72422248  0.49157822  1  0  0.090613  0  0.993836  0  0  0.098277  0  1.064135  0  0  0.102022  0  1.061294  0  0  0.117931  0.095512  0  1.066406  0
H  H21  1  0.02628065  0.23261848  0.50836150  1  0  0.089348  0  0.993731  0  0  0.097186  0  1.063916  0  0  0.100878  0  1.061182  0  0  0.117681  0.094469  0  1.066075  0
H  H22  1  0.52637102  0.27578062  0.50842277  1  0  0.090665  0  0.993806  0  0  0.098317  0  1.064116  0  0  0.10206  0  1.061278  0  0  0.117948  0.095553  0  1.066384  0
H  H23  1  0.97371726  0.76737654  0.49163566  1  0  0.089351  0  0.993733  0  0  0.097201  0  1.06392  0  0  0.100893  0  1.061186  0  0  0.117682  0.094485  0  1.066078  0
C  C24  1  0.58141322  0.22031073  0.18699789  1  0  0.645399  0  3.938689  0  0  0.596529  0  4.231253  0  0  0.630759  0  4.221725  0  0  0.239853  0.573412  0  4.236765  0
C  C25  1  0.91864963  0.03304399  0.81288052  1  0  0.645128  0  3.938704  0  0  0.596037  0  4.231412  0  0  0.630272  0  4.221899  0  0  0.239491  0.572873  0  4.237018  0
C  C26  1  0.41858689  0.77969136  0.81300353  1  0  0.645349  0  3.938712  0  0  0.596425  0  4.231365  0  0  0.630656  0  4.221836  0  0  0.239775  0.573313  0  4.236878  0
C  C27  1  0.08135788  0.96695710  0.18712065  1  0  0.645167  0  3.938464  0  0  0.596021  0  4.231265  0  0  0.630255  0  4.221753  0  0  0.239491  0.572858  0  4.23686  0
C  C28  1  0.83166406  0.55881029  0.92714795  1  0  0.099199  0  3.757086  0  0  0.107437  0  3.998887  0  0  0.106944  0  4.018203  0  0  0.117076  0.107465  0  3.985988  0
C  C29  1  0.66812556  0.63160820  0.07273508  1  0  0.099899  0  3.755655  0  0  0.106765  0  3.999689  0  0  0.106256  0  4.019016  0  0  0.117116  0.106791  0  3.986728  0
C  C30  1  0.16833599  0.44118675  0.07285001  1  0  0.099074  0  3.757147  0  0  0.107328  0  3.998943  0  0  0.106834  0  4.018258  0  0  0.117023  0.107352  0  3.986049  0
C  C31  1  0.33187237  0.36838985  0.92726243  1  0  0.099751  0  3.755654  0  0  0.106733  0  3.99961  0  0  0.106223  0  4.018936  0  0  0.117069  0.106754  0  3.986648  0
C  C32  1  0.83437534  0.42983596  0.92397631  1  0  -0.086092  0  3.659918  0  0  -0.110428  0  3.909986  0  0  -0.112794  0  3.928717  0  0  -0.063527  -0.108818  0  3.897471  0
C  C33  1  0.66533424  0.50580528  0.07590553  1  0  -0.086496  0  3.660464  0  0  -0.110498  0  3.910739  0  0  -0.112865  0  3.929506  0  0  -0.063927  -0.10888  0  3.898293  0
C  C34  1  0.16562365  0.57016108  0.07602163  1  0  -0.085991  0  3.659701  0  0  -0.110407  0  3.909795  0  0  -0.112775  0  3.928527  0  0  -0.063502  -0.108807  0  3.897315  0
C  C35  1  0.33466581  0.49419278  0.92409280  1  0  -0.086527  0  3.660564  0  0  -0.110585  0  3.910829  0  0  -0.112952  0  3.929596  0  0  -0.063973  -0.108973  0  3.898408  0
C  C36  1  0.74979965  0.40302605  0.99992234  1  0  0.002532  0  3.677774  0  0  -0.015254  0  3.933658  0  0  -0.013879  0  3.949699  0  0  -0.051901  -0.016284  0  3.92271  0
C  C37  1  0.25020040  0.59697303  0.00007480  1  0  0.002561  0  3.677622  0  0  -0.015203  0  3.933534  0  0  -0.013829  0  3.949576  0  0  -0.051873  -0.016238  0  3.922623  0
C  C38  1  0.91907976  0.59448003  0.84617028  1  0  0.610988  0  3.968285  0  0  0.565447  0  4.259373  0  0  0.597916  0  4.252725  0  0  0.201862  0.543501  0  4.262991  0
C  C39  1  0.58072295  0.74820306  0.15376965  1  0  0.610074  0  3.966387  0  0  0.564811  0  4.25788  0  0  0.597284  0  4.25123  0  0  0.201017  0.542892  0  4.26149  0
C  C40  1  0.08091603  0.40551601  0.15382566  1  0  0.610934  0  3.968277  0  0  0.565444  0  4.259295  0  0  0.597912  0  4.252648  0  0  0.201831  0.543509  0  4.262916  0
C  C41  1  0.41927497  0.25179398  0.84622748  1  0  0.610319  0  3.966292  0  0  0.564928  0  4.257943  0  0  0.597403  0  4.251284  0  0  0.201056  0.543021  0  4.261553  0
C  C42  1  0.74430440  0.63674031  0.50970865  1  0  0.644028  0  3.941269  0  0  0.594759  0  4.238333  0  0  0.628431  0  4.229816  0  0  0.227215  0.571924  0  4.243174  0
C  C43  1  0.75562571  0.12693729  0.49042009  1  0  0.643775  0  3.940826  0  0  0.594152  0  4.238463  0  0  0.62781  0  4.229925  0  0  0.22675  0.571331  0  4.243312  0
C  C44  1  0.25569676  0.36325974  0.49029516  1  0  0.64407  0  3.941275  0  0  0.594849  0  4.238248  0  0  0.628524  0  4.229727  0  0  0.227268  0.572015  0  4.243089  0
C  C45  1  0.24437123  0.87306479  0.50958205  1  0  0.643691  0  3.94043  0  0  0.594016  0  4.238159  0  0  0.627674  0  4.229621  0  0  0.22671  0.571196  0  4.243009  0
C  C46  1  0.54508080  0.36187291  0.27390661  1  0  0.089856  0  3.762286  0  0  0.096757  0  4.0092  0  0  0.09672  0  4.026924  0  0  0.12566  0.096612  0  3.997177  0
C  C47  1  0.95500848  0.08788531  0.72607626  1  0  0.089746  0  3.762832  0  0  0.096743  0  4.009676  0  0  0.0967  0  4.02741  0  0  0.125248  0.096563  0  3.997739  0
C  C48  1  0.45492033  0.63812512  0.72609567  1  0  0.089766  0  3.762196  0  0  0.096687  0  4.009119  0  0  0.096648  0  4.026845  0  0  0.125619  0.096546  0  3.99709  0
C  C49  1  0.04499473  0.91211073  0.27392294  1  0  0.089732  0  3.762846  0  0  0.09677  0  4.00966  0  0  0.096725  0  4.027399  0  0  0.125286  0.096589  0  3.997718  0
C  C50  1  0.40817005  0.41137769  0.27794287  1  0  -0.100024  0  3.685048  0  0  -0.126976  0  3.939757  0  0  -0.129532  0  3.957787  0  0  -0.059241  -0.125258  0  3.927662  0
C  C51  1  0.09189058  0.13349286  0.72206906  1  0  -0.100519  0  3.683927  0  0  -0.127474  0  3.938352  0  0  -0.130075  0  3.956457  0  0  -0.058986  -0.125702  0  3.926143  0
C  C52  1  0.59183218  0.58862440  0.72205937  1  0  -0.099882  0  3.685044  0  0  -0.126825  0  3.939723  0  0  -0.129383  0  3.957757  0  0  -0.059198  -0.125109  0  3.927642  0
C  C53  1  0.90811065  0.86651428  0.27793427  1  0  -0.100461  0  3.683949  0  0  -0.127401  0  3.938379  0  0  -0.130002  0  3.956488  0  0  -0.058953  -0.125628  0  3.92617  0
C  C54  1  0.38227917  0.54458019  0.35500964  1  0  0.016922  0  3.658978  0  0  -0.000595  0  3.915036  0  0  0.001487  0  3.930618  0  0  -0.047922  -0.001908  0  3.904589  0
C  C55  1  0.11775499  0.18963129  0.64497438  1  0  0.017618  0  3.657371  0  0  -0.000467  0  3.914039  0  0  0.001598  0  3.929556  0  0  -0.048069  -0.001794  0  3.903603  0
C  C56  1  0.61772411  0.45542190  0.64499184  1  0  0.016882  0  3.659002  0  0  -0.000645  0  3.91508  0  0  0.001436  0  3.930664  0  0  -0.047918  -0.001959  0  3.90464  0
C  C57  1  0.88224720  0.81036777  0.35502593  1  0  0.01752  0  3.657578  0  0  -0.000549  0  3.914266  0  0  0.001516  0  3.92978  0  0  -0.048104  -0.001874  0  3.903827  0
C  C58  1  0.49179463  0.62068424  0.42972521  1  0  -0.076183  0  3.672308  0  0  -0.103972  0  3.926007  0  0  -0.105638  0  3.943669  0  0  -0.053491  -0.102893  0  3.914338  0
C  C59  1  0.00817272  0.19094469  0.57027320  1  0  -0.0748  0  3.671525  0  0  -0.102431  0  3.924832  0  0  -0.104087  0  3.942489  0  0  -0.05317  -0.101354  0  3.913166  0
C  C60  1  0.50820761  0.37931886  0.57027663  1  0  -0.076145  0  3.672323  0  0  -0.10393  0  3.926036  0  0  -0.105597  0  3.9437  0  0  -0.053471  -0.102849  0  3.914362  0
C  C61  1  0.99182841  0.80905436  0.42972710  1  0  -0.074716  0  3.671627  0  0  -0.102409  0  3.924967  0  0  -0.104066  0  3.942626  0  0  -0.053169  -0.10133  0  3.913299  0
C  C62  1  0.62406018  0.56198486  0.42452194  1  0  0.090617  0  3.743726  0  0  0.097008  0  3.989437  0  0  0.096311  0  4.008865  0  0  0.122042  0.097258  0  3.976402  0
C  C63  1  0.87596018  0.13729709  0.57547647  1  0  0.09065  0  3.744837  0  0  0.097399  0  3.990003  0  0  0.096706  0  4.009419  0  0  0.122613  0.09765  0  3.976937  0
C  C64  1  0.37593991  0.43801417  0.57548226  1  0  0.090405  0  3.744034  0  0  0.096797  0  3.989719  0  0  0.096097  0  4.009148  0  0  0.121916  0.097049  0  3.976685  0
C  C65  1  0.12403990  0.86270196  0.42452460  1  0  0.090658  0  3.744877  0  0  0.097467  0  3.990017  0  0  0.096774  0  4.009434  0  0  0.122616  0.097714  0  3.976956  0
N  N66  1  0.74988318  0.65750463  0.99992782  1  0  -0.387687  0  3.204776  0  0  -0.346164  0  3.454931  0  0  -0.35792  0  3.474557  0  0  -0.345125  -0.337951  0  3.44153  0
N  N67  1  0.25011792  0.34249241  0.00007093  1  0  -0.38757  0  3.204739  0  0  -0.346081  0  3.454849  0  0  -0.357832  0  3.474473  0  0  -0.34508  -0.33787  0  3.441445  0
N  N68  1  0.65083168  0.43592061  0.34523216  1  0  -0.37545  0  3.20002  0  0  -0.331414  0  3.450388  0  0  -0.342794  0  3.469049  0  0  -0.358384  -0.323365  0  3.437781  0
N  N69  1  0.84924814  0.09042634  0.65471521  1  0  -0.37517  0  3.201419  0  0  -0.331322  0  3.45154  0  0  -0.342656  0  3.470187  0  0  -0.358189  -0.323322  0  3.438922  0
N  N70  1  0.34916945  0.56407742  0.65477011  1  0  -0.3753  0  3.200079  0  0  -0.331275  0  3.450447  0  0  -0.34265  0  3.469108  0  0  -0.358287  -0.32323  0  3.437842  0
N  N71  1  0.15075402  0.90956969  0.34528397  1  0  -0.375195  0  3.201471  0  0  -0.331358  0  3.451562  0  0  -0.342698  0  3.470212  0  0  -0.358199  -0.323354  0  3.438937  0
O  O72  1  0.71036243  0.19614946  0.16014292  1  0  -0.708672  0  1.980136  0  0  -0.64487  0  2.22134  0  0  -0.671812  0  2.210203  0  0  -0.38615  -0.625582  0  2.227765  0
O  O73  1  0.78968803  0.03573699  0.83973836  1  0  -0.708781  0  1.979679  0  0  -0.644907  0  2.220961  0  0  -0.671828  0  2.209819  0  0  -0.386519  -0.625672  0  2.227445  0
O  O74  1  0.28963764  0.80384960  0.83985736  1  0  -0.708645  0  1.980131  0  0  -0.644833  0  2.221362  0  0  -0.671771  0  2.210224  0  0  -0.386149  -0.625558  0  2.227798  0
O  O75  1  0.21031953  0.96427018  0.16026273  1  0  -0.708711  0  1.979598  0  0  -0.644825  0  2.220918  0  0  -0.671745  0  2.209772  0  0  -0.386515  -0.625593  0  2.2274  0
O  O76  1  0.48103971  0.13382712  0.14697881  1  0  -0.725877  0  1.970047  0  0  -0.662083  0  2.212747  0  0  -0.688973  0  2.202435  0  0  -0.360015  -0.643163  0  2.219155  0
O  O77  1  0.01898591  0.98654700  0.85289835  1  0  -0.725252  0  1.968714  0  0  -0.661477  0  2.211445  0  0  -0.688387  0  2.201177  0  0  -0.359102  -0.642515  0  2.217976  0
O  O78  1  0.51896045  0.86617696  0.85302886  1  0  -0.725858  0  1.970118  0  0  -0.662022  0  2.212812  0  0  -0.688911  0  2.202498  0  0  -0.359976  -0.643111  0  2.21923  0
O  O79  1  0.98101827  0.01344300  0.14709467  1  0  -0.725332  0  1.96855  0  0  -0.661533  0  2.211308  0  0  -0.688446  0  2.201039  0  0  -0.359106  -0.642561  0  2.21783  0
O  O80  1  0.91070590  0.71698925  0.85791522  1  0  -0.758613  0  2.004711  0  0  -0.692254  0  2.246646  0  0  -0.720141  0  2.236741  0  0  -0.428674  -0.672694  0  2.252902  0
O  O81  1  0.58914331  0.85905272  0.14214062  1  0  -0.758336  0  2.004487  0  0  -0.691897  0  2.246433  0  0  -0.719751  0  2.236476  0  0  -0.428516  -0.672422  0  2.252677  0
O  O82  1  0.08929627  0.28300779  0.14208434  1  0  -0.758625  0  2.004729  0  0  -0.692288  0  2.246645  0  0  -0.720171  0  2.23674  0  0  -0.428707  -0.672768  0  2.252927  0
O  O83  1  0.41085459  0.14094332  0.85785535  1  0  -0.758397  0  2.004428  0  0  -0.691939  0  2.246442  0  0  -0.719786  0  2.236482  0  0  -0.428572  -0.672492  0  2.252702  0
O  O84  1  0.72578855  0.75849161  0.58076750  1  0  -0.697323  0  1.948479  0  0  -0.643647  0  2.194155  0  0  -0.669822  0  2.185451  0  0  -0.359988  -0.625123  0  2.199706  0
O  O85  1  0.77380267  0.17801618  0.41957962  1  0  -0.697357  0  1.948027  0  0  -0.643728  0  2.193874  0  0  -0.669961  0  2.185227  0  0  -0.35947  -0.625132  0  2.199398  0
O  O86  1  0.27421260  0.24150947  0.41923356  1  0  -0.697321  0  1.948567  0  0  -0.643659  0  2.194204  0  0  -0.66984  0  2.185496  0  0  -0.359984  -0.625135  0  2.199752  0
O  O87  1  0.22619540  0.82199093  0.58042758  1  0  -0.697291  0  1.947729  0  0  -0.643646  0  2.193602  0  0  -0.66988  0  2.184961  0  0  -0.359437  -0.625053  0  2.199129  0
O  O88  1  0.99175638  0.50439918  0.77080556  1  0  -0.638819  0  1.899937  0  0  -0.589648  0  2.119512  0  0  -0.614354  0  2.114615  0  0  -0.34942  -0.572425  0  2.122445  0
O  O89  1  0.50804927  0.73340496  0.22911197  1  0  -0.637922  0  1.898393  0  0  -0.588827  0  2.118062  0  0  -0.613511  0  2.113222  0  0  -0.348394  -0.571657  0  2.120948  0
O  O90  1  0.00822982  0.49559181  0.22918596  1  0  -0.63873  0  1.899825  0  0  -0.589596  0  2.119394  0  0  -0.614298  0  2.114493  0  0  -0.349397  -0.572383  0  2.122335  0
O  O91  1  0.49194332  0.26658907  0.77088158  1  0  -0.637985  0  1.89849  0  0  -0.588848  0  2.118222  0  0  -0.613527  0  2.113379  0  0  -0.348357  -0.571696  0  2.121121  0
O  O92  1  0.85753943  0.57109112  0.50444844  1  0  -0.725816  0  1.981608  0  0  -0.658966  0  2.223247  0  0  -0.686882  0  2.214074  0  0  -0.390995  -0.639074  0  2.229018  0
O  O93  1  0.64258541  0.06618455  0.49555964  1  0  -0.726017  0  1.981998  0  0  -0.658748  0  2.223296  0  0  -0.686576  0  2.214075  0  0  -0.390891  -0.639021  0  2.229132  0
O  O94  1  0.14246169  0.42890795  0.49555029  1  0  -0.725854  0  1.981494  0  0  -0.659022  0  2.223108  0  0  -0.686942  0  2.21394  0  0  -0.391033  -0.639131  0  2.22888  0
O  O95  1  0.35741050  0.93381955  0.50444246  1  0  -0.725985  0  1.981871  0  0  -0.658707  0  2.223207  0  0  -0.686535  0  2.213985  0  0  -0.390881  -0.638958  0  2.229029  0
