# generated using pymatgen
data_CuH16C16(NO)6
_symmetry_space_group_name_H-M   'P 1'
_cell_length_a   8.24904123
_cell_length_b   10.81952026
_cell_length_c   14.64169717
_cell_angle_alpha   71.18516649
_cell_angle_beta   80.59134930
_cell_angle_gamma   71.55200143
_symmetry_Int_Tables_number   1
_chemical_formula_structural   CuH16C16(NO)6
_chemical_formula_sum   'Cu2 H32 C32 N12 O12'
_cell_volume   1170.64076029
_cell_formula_units_Z   2
loop_
 _symmetry_equiv_pos_site_id
 _symmetry_equiv_pos_as_xyz
  1  'x, y, z'
loop_
 _atom_site_type_symbol
 _atom_site_label
 _atom_site_symmetry_multiplicity
 _atom_site_fract_x
 _atom_site_fract_y
 _atom_site_fract_z
 _atom_site_occupancy
 _atom_site_pbe_bader_charge
 _atom_site_pbe_bader_spin_density
 _atom_site_pbe_cm5_charge
 _atom_site_pbe_ddec_charge
 _atom_site_pbe_ddec_spin_density
 _atom_site_pbe_ddec_sum_bond_order
 _atom_site_pbe_magmom
Cu  Cu0  1  0.74700983  0.93342088  0.73389653  1  1.001069  -0.526964  0.741592  0.691481  -0.695816  2.243431  -0.529
Cu  Cu1  1  0.25297600  0.06657066  0.26610504  1  1.001085  -0.526973  0.74158  0.691355  -0.695821  2.243524  -0.529
H  H2  1  0.70164166  0.66264253  0.84839739  1  0.108219  -0.002072  0.115946  0.091674  -0.000948  1.022557  -0.002
H  H3  1  0.29836430  0.33735995  0.15159575  1  0.108161  -0.002072  0.115991  0.091743  -0.000948  1.022356  -0.002
H  H4  1  0.70347557  0.45449892  0.80839425  1  0.092037  -0.001633  0.109385  0.115205  -0.000861  0.996767  -0.001
H  H5  1  0.29652714  0.54549742  0.19160453  1  0.091959  -0.001633  0.109369  0.115191  -0.000861  0.996758  -0.001
H  H6  1  0.74469400  0.45347717  0.63533614  1  0.147383  -0.000254  0.111198  0.128461  -0.000117  1.037736  0.0
H  H7  1  0.25528833  0.54653381  0.36465598  1  0.147113  -0.000254  0.111187  0.128443  -0.000117  1.037886  0.0
H  H8  1  0.80593797  0.85691148  0.55838141  1  0.164985  -0.002743  0.123179  0.114472  -0.001214  1.016267  -0.002
H  H9  1  0.19405248  0.14310215  0.44161852  1  0.165057  -0.002743  0.123216  0.114548  -0.001214  1.016234  -0.002
H  H10  1  0.83092241  0.75384154  0.44120636  1  0.517215  -0.000215  0.304005  0.275683  -0.000311  1.014251  0.0
H  H11  1  0.16907098  0.24616515  0.55878804  1  0.517252  -0.000215  0.304099  0.27571  -0.000311  1.014214  0.0
H  H12  1  0.90130036  0.67780894  0.31669501  1  0.490806  -0.000124  0.299061  0.266521  -0.000216  1.029592  0.0
H  H13  1  0.09871891  0.32218843  0.68329223  1  0.490748  -0.000124  0.299159  0.266535  -0.000216  1.029589  0.0
H  H14  1  0.90850779  0.41465994  0.32345188  1  0.063345  -8e-06  0.101395  0.076325  -4e-06  0.999785  0.0
H  H15  1  0.09148452  0.58534753  0.67655132  1  0.063231  -8e-06  0.101397  0.076294  -4e-06  0.999796  0.0
H  H16  1  0.90196566  0.55451150  0.21697762  1  0.062725  -3.4e-05  0.107529  0.08684  -1.4e-05  0.976261  0.0
H  H17  1  0.09806411  0.44547435  0.78301897  1  0.062915  -3.4e-05  0.107546  0.086833  -1.4e-05  0.976375  0.0
H  H18  1  0.67451033  0.44112307  0.23313976  1  0.050029  -1.5e-05  0.109142  0.086882  -4e-06  0.967665  0.0
H  H19  1  0.32550254  0.55887729  0.76685272  1  0.050178  -1.5e-05  0.109121  0.086903  -4e-06  0.96759  0.0
H  H20  1  0.59071402  0.48225037  0.34294288  1  0.091839  2e-06  0.11241  0.097341  2e-05  0.983885  0.0
H  H21  1  0.40929012  0.51773713  0.65704745  1  0.091794  2e-06  0.112452  0.097382  2e-05  0.983926  0.0
H  H22  1  0.45929990  0.70420918  0.25509494  1  0.465423  -8.1e-05  0.314525  0.278308  -0.000128  0.957311  0.0
H  H23  1  0.54069375  0.29577124  0.74490375  1  0.468813  -8e-05  0.314476  0.278214  -0.000128  0.957441  0.0
H  H24  1  0.34551682  0.84557422  0.13308075  1  0.519928  -0.000467  0.303395  0.27519  -0.000538  1.010197  0.0
H  H25  1  0.65449042  0.15442895  0.86692243  1  0.519942  -0.000467  0.303385  0.275212  -0.000538  1.010172  0.0
H  H26  1  0.67745439  0.79401423  0.93580095  1  0.176486  -0.002691  0.121083  0.103875  -0.001176  1.03854  -0.002
H  H27  1  0.32255402  0.20599595  0.06420269  1  0.176431  -0.00269  0.12109  0.103949  -0.001176  1.038559  -0.002
H  H28  1  0.37960887  0.08958696  0.71829295  1  0.129334  -0.002169  0.119522  0.093121  -0.000898  1.007368  -0.002
H  H29  1  0.62037925  0.91041449  0.28171249  1  0.129362  -0.002168  0.119527  0.093075  -0.000898  1.007384  -0.002
H  H30  1  0.13235313  0.13700200  0.83803487  1  0.135978  -0.001427  0.110463  0.122904  -0.00078  1.025945  -0.001
H  H31  1  0.86765288  0.86299893  0.16197708  1  0.134653  -0.001427  0.110567  0.122991  -0.00078  1.025979  -0.001
H  H32  1  0.15900261  0.00152299  0.01230635  1  0.078116  -7.8e-05  0.112082  0.119923  7e-06  0.982709  0.0
H  H33  1  0.84101040  0.99848586  0.98770549  1  0.078148  -7.9e-05  0.112117  0.119938  7e-06  0.982681  0.0
C  C34  1  0.72282897  0.65790143  0.77413293  1  0.401139  0.000146  0.023737  0.030532  0.000603  3.988976  0.0
C  C35  1  0.27717401  0.34210092  0.22586659  1  0.401509  0.000147  0.023665  0.030387  0.000603  3.989202  0.0
C  C36  1  0.72216196  0.54336516  0.75095924  1  0.009281  -0.006404  -0.079613  -0.09127  -0.004523  4.013458  -0.005
C  C37  1  0.27784131  0.45663319  0.24903907  1  0.00875  -0.006405  -0.0796  -0.091237  -0.004523  4.013597  -0.005
C  C38  1  0.74555914  0.54155638  0.65521441  1  -0.019579  0.003626  -0.073236  -0.135627  0.004137  3.902735  0.002
C  C39  1  0.25442862  0.45845539  0.34478199  1  -0.01926  0.003626  -0.073276  -0.13561  0.004138  3.902667  0.002
C  C40  1  0.77466399  0.65596363  0.58238378  1  0.458821  -0.006498  0.118436  0.242153  -0.00453  4.009577  -0.005
C  C41  1  0.22532316  0.34404497  0.41761813  1  0.459363  -0.006496  0.11852  0.242121  -0.004529  4.009713  -0.005
C  C42  1  0.77849311  0.76737165  0.61138471  1  0.440637  0.001032  0.043109  -0.015572  0.001271  3.858537  0.001
C  C43  1  0.22149655  0.23264397  0.38861621  1  0.440099  0.001029  0.043049  -0.015635  0.00127  3.858675  0.001
C  C44  1  0.79182696  0.57190260  0.44134394  1  1.812993  -0.00025  0.323006  0.628012  -0.000246  4.183487  0.0
C  C45  1  0.20816402  0.42809893  0.55865652  1  1.812967  -0.00025  0.32301  0.628065  -0.000246  4.183365  0.0
C  C46  1  0.83547333  0.51961842  0.28745977  1  0.330226  -5.4e-05  -0.063389  -0.02068  -4.1e-05  3.934149  0.0
C  C47  1  0.16453415  0.48038187  0.71253854  1  0.33015  -5.4e-05  -0.063362  -0.020524  -4.1e-05  3.934194  0.0
C  C48  1  0.65807852  0.51575128  0.27254840  1  0.33429  -4.6e-05  -0.058442  -0.024228  -2.4e-05  3.924647  0.0
C  C49  1  0.34193115  0.48424705  0.72744677  1  0.334021  -4.6e-05  -0.058538  -0.024432  -2.4e-05  3.924724  0.0
C  C50  1  0.56450729  0.68988788  0.12058024  1  1.805832  -2e-06  0.320632  0.614654  -2.9e-05  4.227188  0.0
C  C51  1  0.43550399  0.31011830  0.87942066  1  1.805621  -2e-06  0.320544  0.61439  -2.9e-05  4.227312  0.0
C  C52  1  0.41955650  0.88277496  0.98751580  1  0.443119  -0.006005  0.11167  0.239018  -0.004127  4.048636  -0.005
C  C53  1  0.58045982  0.11723300  0.01248987  1  0.443258  -0.006005  0.111701  0.238968  -0.004127  4.048471  -0.005
C  C54  1  0.55422638  0.86682458  0.91587730  1  0.470681  0.000801  0.031168  -0.041873  0.001119  3.915137  0.001
C  C55  1  0.44577022  0.13317371  0.08412761  1  0.47035  0.000801  0.031194  -0.042068  0.001118  3.915083  0.001
C  C56  1  0.38759243  0.03422295  0.79483586  1  0.430236  0.001291  0.032232  0.057153  0.001681  3.950236  0.001
C  C57  1  0.61240158  0.96577239  0.20516848  1  0.429383  0.001285  0.032347  0.057469  0.001679  3.950334  0.001
C  C58  1  0.25023779  0.05895578  0.86228079  1  -0.001101  -0.006234  -0.083683  -0.099845  -0.004343  3.995511  -0.005
C  C59  1  0.74976215  0.94104416  0.13773449  1  -0.000162  -0.006232  -0.083862  -0.100208  -0.004342  3.995618  -0.005
C  C60  1  0.26534919  0.98334198  0.95862239  1  -0.049571  0.003981  -0.077896  -0.147272  0.004516  3.928611  0.002
C  C61  1  0.73465183  0.01666128  0.04138185  1  -0.049411  0.003982  -0.07785  -0.147051  0.004516  3.928296  0.002
C  C62  1  0.01078317  0.04816377  0.65449061  1  1.598522  0.003525  0.200319  0.465291  0.003634  4.235848  0.003
C  C63  1  0.98924206  0.95182343  0.34549709  1  1.599208  0.003525  0.200507  0.465443  0.003639  4.234526  0.003
C  C64  1  0.89490928  0.13590703  0.71885615  1  1.555884  0.002652  0.208276  0.462155  0.003017  4.19848  0.002
C  C65  1  0.10508097  0.86405946  0.28113960  1  1.555386  0.002649  0.20835  0.462195  0.003014  4.198926  0.002
N  N66  1  0.75082473  0.76758733  0.70418879  1  -1.218684  -0.095659  -0.361319  -0.223658  -0.064655  3.742751  -0.083
N  N67  1  0.24916102  0.23242237  0.29581092  1  -1.218702  -0.095675  -0.361236  -0.223635  -0.064668  3.742686  -0.083
N  N68  1  0.80274241  0.66600231  0.48516907  1  -1.271049  -0.001984  -0.40507  -0.420689  -0.001156  3.544057  -0.001
N  N69  1  0.19724973  0.33400736  0.51482751  1  -1.27127  -0.001982  -0.405128  -0.420638  -0.001155  3.544307  -0.001
N  N70  1  0.82961885  0.61024303  0.34345041  1  -1.22783  -0.000975  -0.447504  -0.439683  -0.000611  3.537706  -0.001
N  N71  1  0.17038469  0.38976134  0.65654864  1  -1.227779  -0.000974  -0.44756  -0.439697  -0.000611  3.537948  -0.001
N  N72  1  0.55066375  0.64578481  0.21891218  1  -1.198527  -0.000415  -0.434781  -0.410037  -0.000275  3.568926  0.0
N  N73  1  0.44935562  0.35421329  0.78108448  1  -1.201622  -0.000415  -0.434635  -0.40981  -0.000275  3.568763  0.0
N  N74  1  0.43576789  0.80935845  0.08333669  1  -1.298872  -0.002554  -0.413312  -0.434734  -0.001557  3.577292  -0.002
N  N75  1  0.56424491  0.19064668  0.91666503  1  -1.298775  -0.002555  -0.41341  -0.434768  -0.001557  3.577206  -0.002
N  N76  1  0.53635044  0.94079684  0.82291463  1  -1.241856  -0.089193  -0.356906  -0.213698  -0.060555  3.711415  -0.077
N  N77  1  0.46363941  0.05920658  0.17709097  1  -1.240593  -0.089174  -0.356995  -0.213646  -0.060545  3.711341  -0.077
O  O78  1  0.74908477  0.46691089  0.48526065  1  -1.161959  -0.001596  -0.319939  -0.534314  -0.001023  2.062392  -0.001
O  O79  1  0.25090305  0.53309751  0.51474810  1  -1.161743  -0.001594  -0.319961  -0.534375  -0.001022  2.062193  -0.001
O  O80  1  0.67564778  0.62993348  0.06929876  1  -1.176708  -0.00076  -0.327846  -0.544031  -0.000522  2.05246  -0.001
O  O81  1  0.32436602  0.37007790  0.93069470  1  -1.176496  -0.000759  -0.327758  -0.543824  -0.000522  2.052652  -0.001
O  O82  1  0.95891518  0.94759930  0.65371726  1  -1.08673  -0.116126  -0.324014  -0.49263  -0.076012  2.313156  -0.106
O  O83  1  0.04108368  0.05238748  0.34626673  1  -1.086909  -0.116062  -0.323882  -0.492373  -0.07597  2.313578  -0.106
O  O84  1  0.14232139  0.07626841  0.61023388  1  -1.14799  -0.025869  -0.291156  -0.47159  -0.016844  2.190036  -0.023
O  O85  1  0.85764345  0.92372757  0.38976670  1  -1.148174  -0.025902  -0.291457  -0.471989  -0.016866  2.188372  -0.023
O  O86  1  0.75716584  0.09954293  0.75875213  1  -1.134272  -0.091034  -0.330799  -0.539498  -0.059822  2.428793  -0.085
O  O87  1  0.24284021  0.90042687  0.24125832  1  -1.134147  -0.091058  -0.330944  -0.539695  -0.059839  2.428548  -0.085
O  O88  1  0.93202183  0.23062667  0.73231716  1  -1.15194  -0.024431  -0.279691  -0.462306  -0.016089  2.241199  -0.022
O  O89  1  0.06796963  0.76935458  0.26768901  1  -1.15177  -0.02442  -0.279609  -0.46208  -0.016081  2.24214  -0.022
