# generated using pymatgen
data_CdH14C8S2N6O
_symmetry_space_group_name_H-M   'P 1'
_cell_length_a   6.02945957
_cell_length_b   9.84956610
_cell_length_c   12.45589190
_cell_angle_alpha   104.90433841
_cell_angle_beta   100.97676844
_cell_angle_gamma   108.40465628
_symmetry_Int_Tables_number   1
_chemical_formula_structural   CdH14C8S2N6O
_chemical_formula_sum   'Cd2 H28 C16 S4 N12 O2'
_cell_volume   647.83211556
_cell_formula_units_Z   2
loop_
 _symmetry_equiv_pos_site_id
 _symmetry_equiv_pos_as_xyz
  1  'x, y, z'
loop_
 _atom_site_type_symbol
 _atom_site_label
 _atom_site_symmetry_multiplicity
 _atom_site_fract_x
 _atom_site_fract_y
 _atom_site_fract_z
 _atom_site_occupancy
 _atom_site_hle17_bader_spin_density
 _atom_site_hle17_ddec_charge
 _atom_site_hle17_ddec_spin_density
 _atom_site_hle17_ddec_sum_bond_order
 _atom_site_hle17_magmom
 _atom_site_hse06_10hf_bader_spin_density
 _atom_site_hse06_10hf_ddec_charge
 _atom_site_hse06_10hf_ddec_spin_density
 _atom_site_hse06_10hf_ddec_sum_bond_order
 _atom_site_hse06_10hf_magmom
 _atom_site_hse06_bader_spin_density
 _atom_site_hse06_ddec_charge
 _atom_site_hse06_ddec_spin_density
 _atom_site_hse06_ddec_sum_bond_order
 _atom_site_hse06_magmom
 _atom_site_pbe_bader_spin_density
 _atom_site_pbe_cm5_charge
 _atom_site_pbe_ddec_charge
 _atom_site_pbe_ddec_spin_density
 _atom_site_pbe_ddec_sum_bond_order
 _atom_site_pbe_magmom
Cd  Cd0  1  0.42644527  0.31003361  0.20103034  1  0  1.00973  0  1.874394  0  0  0.84058  0  2.320423  0  0  0.885735  0  2.281442  0  0  0.72314  0.809881  0  2.346823  0
Cd  Cd1  1  0.57355916  0.68995898  0.79897349  1  0  1.009765  0  1.874357  0  0  0.840599  0  2.320417  0  0  0.885755  0  2.281413  0  0  0.723142  0.8099  0  2.346822  0
H  H2  1  0.35141924  0.05672024  0.00033244  1  0  0.42724  0  0.817621  0  0  0.403557  0  0.883245  0  0  0.412362  0  0.873186  0  0  0.312522  0.397236  0  0.890582  0
H  H3  1  0.64841463  0.94330729  0.99964276  1  0  0.42702  0  0.817395  0  0  0.403369  0  0.883022  0  0  0.41217  0  0.872957  0  0  0.312421  0.397056  0  0.890353  0
H  H4  1  0.19038539  0.95981042  0.05955229  1  0  0.387822  0  0.913391  0  0  0.357183  0  0.9858  0  0  0.366738  0  0.97216  0  0  0.2722  0.350424  0  0.99547  0
H  H5  1  0.80954658  0.04016733  0.94043097  1  0  0.387837  0  0.913585  0  0  0.357237  0  0.985754  0  0  0.36679  0  0.972117  0  0  0.272245  0.35048  0  0.995421  0
H  H6  1  0.77897671  0.61095976  0.16708028  1  0  0.062486  0  0.958238  0  0  0.0737  0  1.029844  0  0  0.074027  0  1.029644  0  0  0.104144  0.073483  0  1.030008  0
H  H7  1  0.22101482  0.38903374  0.83291847  1  0  0.062545  0  0.958128  0  0  0.073672  0  1.0298  0  0  0.073997  0  1.029598  0  0  0.104143  0.073455  0  1.029969  0
H  H8  1  0.47324133  0.58826463  0.10146583  1  0  0.061312  0  0.940849  0  0  0.07116  0  1.015337  0  0  0.070921  0  1.016199  0  0  0.103315  0.071368  0  1.014728  0
H  H9  1  0.52675429  0.41173010  0.89853278  1  0  0.061426  0  0.941138  0  0  0.071292  0  1.015535  0  0  0.071052  0  1.016391  0  0  0.103364  0.0715  0  1.014928  0
H  H10  1  0.18785276  0.57534017  0.21494264  1  0  0.05985  0  0.94188  0  0  0.072945  0  1.013175  0  0  0.072605  0  1.013759  0  0  0.109036  0.073015  0  1.013079  0
H  H11  1  0.81215336  0.42466710  0.78506200  1  0  0.059785  0  0.941922  0  0  0.072875  0  1.013242  0  0  0.072526  0  1.013818  0  0  0.108995  0.072945  0  1.013147  0
H  H12  1  0.28172713  0.58524102  0.36305278  1  0  0.061479  0  0.930033  0  0  0.073957  0  1.001418  0  0  0.074089  0  1.001236  0  0  0.108715  0.073597  0  1.001981  0
H  H13  1  0.71827603  0.41476396  0.63694949  1  0  0.061375  0  0.929999  0  0  0.073869  0  1.001369  0  0  0.073999  0  1.001184  0  0  0.108667  0.073509  0  1.001932  0
H  H14  1  0.69479315  0.61612514  0.45047963  1  0  0.058622  0  0.927581  0  0  0.071701  0  0.99651  0  0  0.071645  0  0.996498  0  0  0.106775  0.071685  0  0.996516  0
H  H15  1  0.30522536  0.38388258  0.54951346  1  0  0.058625  0  0.9274  0  0  0.071681  0  0.996402  0  0  0.071624  0  0.996393  0  0  0.10679  0.071664  0  0.996409  0
H  H16  1  0.90656587  0.62512474  0.36747763  1  0  0.063116  0  0.937711  0  0  0.074859  0  1.010465  0  0  0.074854  0  1.010876  0  0  0.108062  0.074514  0  1.010823  0
H  H17  1  0.09340898  0.37487841  0.63253033  1  0  0.062976  0  0.937572  0  0  0.074777  0  1.010317  0  0  0.074772  0  1.010728  0  0  0.107976  0.074428  0  1.01068  0
H  H18  1  0.34168104  0.79365555  0.16199823  1  0  0.049674  0  0.969886  0  0  0.06242  0  1.040568  0  0  0.062163  0  1.04092  0  0  0.099358  0.062626  0  1.040255  0
H  H19  1  0.65832190  0.20634280  0.83799462  1  0  0.049726  0  0.969906  0  0  0.062465  0  1.040574  0  0  0.062201  0  1.040935  0  0  0.099375  0.062667  0  1.040263  0
H  H20  1  0.55181780  0.97075239  0.26958075  1  0  0.060525  0  0.948597  0  0  0.072482  0  1.017644  0  0  0.072622  0  1.017671  0  0  0.103947  0.071936  0  1.018412  0
H  H21  1  0.44819872  0.02924620  0.73041667  1  0  0.060593  0  0.948547  0  0  0.072519  0  1.017617  0  0  0.07266  0  1.017645  0  0  0.103972  0.071968  0  1.018387  0
H  H22  1  0.68506152  0.98726331  0.46654275  1  0  0.073911  0  0.930287  0  0  0.083139  0  1.003102  0  0  0.084139  0  1.002176  0  0  0.116798  0.08237  0  1.003899  0
H  H23  1  0.31495698  0.01273870  0.53345477  1  0  0.07393  0  0.93028  0  0  0.08316  0  1.003057  0  0  0.084158  0  1.002138  0  0  0.116808  0.082399  0  1.003845  0
H  H24  1  0.56875688  0.82483902  0.50929311  1  0  0.058352  0  0.940669  0  0  0.073558  0  1.007082  0  0  0.073713  0  1.006742  0  0  0.103123  0.073278  0  1.007642  0
H  H25  1  0.43125500  0.17516948  0.49071315  1  0  0.058411  0  0.94078  0  0  0.073547  0  1.007214  0  0  0.07373  0  1.006848  0  0  0.103125  0.073268  0  1.007777  0
H  H26  1  0.06172911  0.84677914  0.31272937  1  0  0.066759  0  0.960317  0  0  0.073258  0  1.033078  0  0  0.075018  0  1.03144  0  0  0.108087  0.072115  0  1.033906  0
H  H27  1  0.93827954  0.15321474  0.68727033  1  0  0.066608  0  0.960242  0  0  0.073173  0  1.033038  0  0  0.074946  0  1.031392  0  0  0.108034  0.072021  0  1.033878  0
H  H28  1  0.96242438  0.00048957  0.35663902  1  0  0.068398  0  0.944591  0  0  0.076855  0  1.017112  0  0  0.077246  0  1.017024  0  0  0.110598  0.076751  0  1.016868  0
H  H29  1  0.03758025  0.99950312  0.64335844  1  0  0.068347  0  0.94469  0  0  0.076905  0  1.017164  0  0  0.077299  0  1.017073  0  0  0.110641  0.076803  0  1.016923  0
C  C30  1  0.62619376  0.64276791  0.18233981  1  0  0.077264  0  3.646247  0  0  0.008986  0  3.904583  0  0  0.01726  0  3.914816  0  0  0.003592  0.003416  0  3.897339  0
C  C31  1  0.37383680  0.35724093  0.81767236  1  0  0.07689  0  3.646525  0  0  0.008688  0  3.904696  0  0  0.017005  0  3.914911  0  0  0.003526  0.003131  0  3.897423  0
C  C32  1  0.34075309  0.62809215  0.29570501  1  0  0.089907  0  3.637474  0  0  0.015573  0  3.904735  0  0  0.024532  0  3.914715  0  0  0.01337  0.009695  0  3.897847  0
C  C33  1  0.65927171  0.37191546  0.70430554  1  0  0.090053  0  3.637002  0  0  0.015719  0  3.904265  0  0  0.024683  0  3.914219  0  0  0.013466  0.009845  0  3.897384  0
C  C34  1  0.75434307  0.65779893  0.38271935  1  0  0.080807  0  3.657617  0  0  0.006277  0  3.928026  0  0  0.015105  0  3.938208  0  0  0.010841  0.000514  0  3.920496  0
C  C35  1  0.24568348  0.34219976  0.61728630  1  0  0.080956  0  3.65753  0  0  0.006353  0  3.928097  0  0  0.01518  0  3.938288  0  0  0.010989  0.000586  0  3.920573  0
C  C36  1  0.49626188  0.84672006  0.24188675  1  0  0.088714  0  3.646387  0  0  0.023488  0  3.902813  0  0  0.032084  0  3.911347  0  0  0.01161  0.017701  0  3.897059  0
C  C37  1  0.50376356  0.15327972  0.75812062  1  0  0.088515  0  3.646289  0  0  0.023333  0  3.902655  0  0  0.031931  0  3.911224  0  0  0.011539  0.017562  0  3.89688  0
C  C38  1  0.62554632  0.86300383  0.43973992  1  0  0.086036  0  3.642734  0  0  0.017907  0  3.904957  0  0  0.026095  0  3.913559  0  0  0.017252  0.012559  0  3.899016  0
C  C39  1  0.37447217  0.13699818  0.56025760  1  0  0.085846  0  3.642526  0  0  0.017831  0  3.904684  0  0  0.025987  0  3.913275  0  0  0.017194  0.012484  0  3.898725  0
C  C40  1  0.90610878  0.87638877  0.32738117  1  0  0.076766  0  3.625144  0  0  0.012935  0  3.884378  0  0  0.020703  0  3.892568  0  0  0.009254  0.007843  0  3.878154  0
C  C41  1  0.09391376  0.12359979  0.67261798  1  0  0.076996  0  3.624959  0  0  0.012846  0  3.884518  0  0  0.020628  0  3.892722  0  0  0.009225  0.007791  0  3.878213  0
C  C42  1  0.96126793  0.27147839  0.32222948  1  0  0.334777  0  3.966429  0  0  0.312194  0  4.269639  0  0  0.335235  0  4.282329  0  0  0.161991  0.296513  0  4.261176  0
C  C43  1  0.03874387  0.72852113  0.67777491  1  0  0.334806  0  3.966566  0  0  0.312212  0  4.26979  0  0  0.33525  0  4.282484  0  0  0.162021  0.296529  0  4.261328  0
C  C44  1  0.86589321  0.31864554  0.06146424  1  0  0.29788  0  3.988248  0  0  0.274944  0  4.293192  0  0  0.296062  0  4.307471  0  0  0.153927  0.260149  0  4.284753  0
C  C45  1  0.13410873  0.68136375  0.93855085  1  0  0.298003  0  3.988488  0  0  0.275062  0  4.293403  0  0  0.296182  0  4.307677  0  0  0.153994  0.260269  0  4.284968  0
S  S46  1  0.74184159  0.28952966  0.37635641  1  0  -0.327226  0  2.157728  0  0  -0.297831  0  2.502662  0  0  -0.314289  0  2.493068  0  0  -0.119795  -0.286463  0  2.509515  0
S  S47  1  0.25816255  0.71047092  0.62364022  1  0  -0.327291  0  2.15775  0  0  -0.297874  0  2.502642  0  0  -0.31433  0  2.493041  0  0  -0.119816  -0.286509  0  2.509509  0
S  S48  1  0.07492706  0.28614882  0.00444634  1  0  -0.329149  0  2.237301  0  0  -0.295935  0  2.580172  0  0  -0.311351  0  2.569951  0  0  -0.101303  -0.285117  0  2.588416  0
S  S49  1  0.92509333  0.71386881  0.99556585  1  0  -0.329111  0  2.237595  0  0  -0.295857  0  2.580467  0  0  -0.311279  0  2.570246  0  0  -0.101254  -0.285033  0  2.588708  0
N  N50  1  0.54456399  0.58063213  0.27257873  1  0  -0.327517  0  3.185191  0  0  -0.225035  0  3.420688  0  0  -0.246946  0  3.442562  0  0  -0.350081  -0.210012  0  3.404968  0
N  N51  1  0.45543211  0.41936935  0.72742133  1  0  -0.327439  0  3.185143  0  0  -0.224914  0  3.420553  0  0  -0.246824  0  3.442416  0  0  -0.350127  -0.209896  0  3.404839  0
N  N52  1  0.70251007  0.80761125  0.21817546  1  0  -0.287762  0  3.133944  0  0  -0.222423  0  3.398187  0  0  -0.237362  0  3.413255  0  0  -0.355454  -0.21165  0  3.387146  0
N  N53  1  0.29748693  0.19238579  0.78182135  1  0  -0.287644  0  3.133695  0  0  -0.222177  0  3.397876  0  0  -0.237203  0  3.413028  0  0  -0.355375  -0.211412  0  3.386841  0
N  N54  1  0.41512816  0.79297356  0.33350888  1  0  -0.28567  0  3.139036  0  0  -0.213805  0  3.393989  0  0  -0.228828  0  3.409159  0  0  -0.346006  -0.20377  0  3.383442  0
N  N55  1  0.58487468  0.20702802  0.66649506  1  0  -0.285567  0  3.13906  0  0  -0.213771  0  3.394036  0  0  -0.22875  0  3.409175  0  0  -0.34602  -0.203747  0  3.3835  0
N  N56  1  0.83325316  0.82263937  0.42060002  1  0  -0.281008  0  3.148647  0  0  -0.21377  0  3.411861  0  0  -0.228826  0  3.428106  0  0  -0.345718  -0.202994  0  3.399587  0
N  N57  1  0.16674836  0.17737457  0.57940395  1  0  -0.280953  0  3.148205  0  0  -0.213686  0  3.411491  0  0  -0.228743  0  3.42775  0  0  -0.345673  -0.202908  0  3.399221  0
N  N58  1  0.12347135  0.25568670  0.28674696  1  0  -0.541785  0  2.853982  0  0  -0.480734  0  3.123123  0  0  -0.502159  0  3.128362  0  0  -0.391872  -0.466649  0  3.119701  0
N  N59  1  0.87655586  0.74432210  0.71326247  1  0  -0.541779  0  2.853988  0  0  -0.480726  0  3.123126  0  0  -0.502155  0  3.128367  0  0  -0.391899  -0.466644  0  3.119706  0
N  N60  1  0.70895306  0.34138774  0.09789707  1  0  -0.517915  0  2.875137  0  0  -0.460765  0  3.151941  0  0  -0.481366  0  3.160086  0  0  -0.386018  -0.447083  0  3.147007  0
N  N61  1  0.29102813  0.65862018  0.90210286  1  0  -0.518064  0  2.87518  0  0  -0.460912  0  3.151973  0  0  -0.481518  0  3.160115  0  0  -0.386103  -0.44723  0  3.147044  0
O  O62  1  0.33969321  0.05078745  0.07628020  1  0  -0.803427  0  1.911727  0  0  -0.743395  0  2.101514  0  0  -0.763881  0  2.076321  0  0  -0.575429  -0.72898  0  2.119499  0
O  O63  1  0.66030919  0.94917071  0.92368498  1  0  -0.80316  0  1.91195  0  0  -0.743232  0  2.101658  0  0  -0.763665  0  2.076388  0  0  -0.575365  -0.72883  0  2.119648  0
