# generated using pymatgen
data_CoH22C20(NO4)2
_symmetry_space_group_name_H-M   'P 1'
_cell_length_a   8.29240760
_cell_length_b   17.46599328
_cell_length_c   17.46345131
_cell_angle_alpha   119.99431579
_cell_angle_beta   89.99906195
_cell_angle_gamma   89.98388314
_symmetry_Int_Tables_number   1
_chemical_formula_structural   CoH22C20(NO4)2
_chemical_formula_sum   'Co3 H66 C60 N6 O24'
_cell_volume   2190.58186206
_cell_formula_units_Z   3
loop_
 _symmetry_equiv_pos_site_id
 _symmetry_equiv_pos_as_xyz
  1  'x, y, z'
loop_
 _atom_site_type_symbol
 _atom_site_label
 _atom_site_symmetry_multiplicity
 _atom_site_fract_x
 _atom_site_fract_y
 _atom_site_fract_z
 _atom_site_occupancy
 _atom_site_pbe_bader_charge
 _atom_site_pbe_bader_spin_density
 _atom_site_pbe_cm5_charge
 _atom_site_pbe_ddec_charge
 _atom_site_pbe_ddec_spin_density
 _atom_site_pbe_ddec_sum_bond_order
 _atom_site_pbe_magmom
Co  Co0  1  0.99999005  0.00000335  0.52670975  1  1.329337  2.609265  0.643771  0.99197  2.817806  2.34402  2.596
Co  Co1  1  0.33334623  0.52665818  0.00000318  1  1.329481  2.609159  0.643153  0.991784  2.821167  2.343071  2.596
Co  Co2  1  0.66667136  0.47334991  0.47334971  1  1.3285  2.609146  0.643309  0.991922  2.821172  2.343703  2.596
H  H3  1  0.17635268  0.56259894  0.14052125  1  0.640849  -5e-06  0.289598  0.336794  -0.000158  1.019227  0.0
H  H4  1  0.51021247  0.57804374  0.43749417  1  0.638921  -6e-06  0.289842  0.336975  -0.000155  1.019495  0.0
H  H5  1  0.84304835  0.85962524  0.42193752  1  0.63544  -1.1e-05  0.290076  0.337858  -0.000155  1.018951  0.0
H  H6  1  0.48976685  0.42193623  0.85945434  1  0.634182  -9e-06  0.289729  0.336789  -0.000155  1.019702  0.0
H  H7  1  0.15698096  0.14039026  0.56233919  1  0.638283  -1e-05  0.290022  0.337785  -0.000155  1.019156  0.0
H  H8  1  0.82362330  0.43742872  0.57791846  1  0.63991  -6e-06  0.289613  0.336842  -0.000158  1.019171  0.0
H  H9  1  0.00346675  0.76140500  0.30588892  1  0.0709  -9.2e-05  0.104018  0.115691  -0.000132  1.036898  0.0
H  H10  1  0.33734438  0.54442597  0.23842418  1  0.077728  -9.1e-05  0.104408  0.116168  -0.000133  1.037625  0.0
H  H11  1  0.67032096  0.69409239  0.45543780  1  0.073146  -9.5e-05  0.104275  0.115622  -0.000132  1.037212  0.0
H  H12  1  0.66262312  0.45556388  0.69400367  1  0.080269  -9.7e-05  0.104451  0.116173  -0.000133  1.03744  0.0
H  H13  1  0.32969592  0.30590823  0.76134543  1  0.069966  -9.3e-05  0.104251  0.115597  -0.000132  1.037247  0.0
H  H14  1  0.99653954  0.23859618  0.54446929  1  0.079387  -9.2e-05  0.104022  0.115709  -0.000132  1.036881  0.0
H  H15  1  0.21727871  0.80502078  0.10653785  1  0.118831  0.000307  0.106132  0.116075  9.6e-05  0.99709  0.0
H  H16  1  0.55165569  0.30159195  0.19483311  1  0.076532  0.000346  0.105763  0.116055  9.5e-05  0.998123  0.0
H  H17  1  0.88433086  0.89335226  0.69827584  1  0.107917  0.000316  0.106714  0.116863  9.6e-05  0.998425  0.0
H  H18  1  0.44833084  0.69841815  0.89324727  1  0.114302  0.000314  0.105811  0.11614  9.5e-05  0.998074  0.0
H  H19  1  0.11565457  0.10663675  0.80492254  1  0.105086  0.000324  0.106662  0.116802  9.6e-05  0.998263  0.0
H  H20  1  0.78271829  0.19496847  0.30151202  1  0.064136  0.000357  0.106075  0.115968  9.6e-05  0.997053  0.0
H  H21  1  0.30971935  0.97123988  0.41562619  1  0.105246  0.00142  0.119468  0.044943  0.000311  1.028937  0.001
H  H22  1  0.64310302  0.44423862  0.02870799  1  0.118675  0.001405  0.119891  0.045313  0.00031  1.02888  0.001
H  H23  1  0.97627713  0.58446836  0.55579522  1  0.114595  0.001414  0.11962  0.045061  0.000315  1.028367  0.001
H  H24  1  0.35689770  0.55575357  0.58445035  1  0.115913  0.001405  0.119885  0.04518  0.000311  1.028875  0.001
H  H25  1  0.02370427  0.41553003  0.97132001  1  0.104585  0.001416  0.119621  0.045016  0.000315  1.028526  0.001
H  H26  1  0.69028194  0.02877253  0.44438771  1  0.115791  0.001422  0.119426  0.044861  0.000311  1.028976  0.001
H  H27  1  0.13763517  0.96433193  0.19410220  1  0.069962  6.8e-05  0.099817  0.100806  -2.1e-05  1.000121  0.0
H  H28  1  0.47155367  0.22974880  0.03562137  1  0.046976  6.9e-05  0.099588  0.101413  -2e-05  0.998688  0.0
H  H29  1  0.80441136  0.80601612  0.77019997  1  0.054278  6.8e-05  0.099644  0.100496  -2.1e-05  0.999563  0.0
H  H30  1  0.52846483  0.77024360  0.80586319  1  0.089429  7.1e-05  0.099596  0.100461  -2.1e-05  0.999864  0.0
H  H31  1  0.19557010  0.19397101  0.96418295  1  0.044134  6.7e-05  0.099646  0.100496  -2.1e-05  0.999553  0.0
H  H32  1  0.86236518  0.03566014  0.22977199  1  0.050168  6.8e-05  0.099787  0.100751  -2.1e-05  1.000265  0.0
H  H33  1  0.32168341  0.77796047  0.43847370  1  0.085952  0.000388  0.110444  0.130293  0.000188  1.008815  0.0
H  H34  1  0.65509290  0.66026143  0.22211038  1  0.090173  0.000391  0.110199  0.129993  0.000187  1.008684  0.0
H  H35  1  0.98910031  0.56136997  0.33953310  1  0.095608  0.000386  0.110988  0.131316  0.000188  1.007897  0.0
H  H36  1  0.34492298  0.33972171  0.56183544  1  0.090446  0.000387  0.110225  0.129942  0.000188  1.00851  0.0
H  H37  1  0.01090620  0.43862728  0.77815412  1  0.087453  0.000388  0.110956  0.13125  0.000188  1.007951  0.0
H  H38  1  0.67831378  0.22204860  0.66050575  1  0.087659  0.000392  0.110439  0.130181  0.000189  1.008866  0.0
H  H39  1  0.52510673  0.75522893  0.39840593  1  0.098516  0.00021  0.102465  0.117871  7.9e-05  1.038476  0.0
H  H40  1  0.85860285  0.64294281  0.24465956  1  0.072335  0.000215  0.102364  0.117533  8e-05  1.038738  0.0
H  H41  1  0.19244908  0.60145919  0.35698639  1  0.085138  0.000209  0.102314  0.118063  7.8e-05  1.037991  0.0
H  H42  1  0.14142039  0.35704320  0.60170894  1  0.083837  0.000213  0.102371  0.117549  8e-05  1.038726  0.0
H  H43  1  0.80755632  0.39854372  0.75552788  1  0.093924  0.000208  0.102325  0.118074  7.8e-05  1.038063  0.0
H  H44  1  0.47488903  0.24478299  0.64317385  1  0.089769  0.000212  0.10244  0.117848  7.9e-05  1.03845  0.0
H  H45  1  0.36001156  0.71151864  0.32217166  1  0.076406  0.000132  0.102213  0.114638  1.5e-05  1.009853  0.0
H  H46  1  0.69370023  0.61037453  0.28847343  1  0.065493  0.000135  0.102193  0.114936  1.5e-05  1.009876  0.0
H  H47  1  0.02723366  0.67763470  0.38932165  1  0.059222  0.000131  0.102457  0.114704  1.4e-05  1.009186  0.0
H  H48  1  0.30631130  0.38961168  0.67808259  1  0.073942  0.000133  0.102238  0.114993  1.5e-05  1.009824  0.0
H  H49  1  0.97276953  0.32236269  0.71168396  1  0.054406  0.000133  0.102453  0.114672  1.4e-05  1.009181  0.0
H  H50  1  0.63998727  0.28849254  0.61064713  1  0.063231  0.000133  0.1022  0.114628  1.5e-05  1.009836  0.0
H  H51  1  0.48052620  0.90964317  0.30870024  1  0.045699  0.000138  0.10833  0.116476  5.1e-05  1.001209  0.0
H  H52  1  0.81353821  0.39878140  0.09021755  1  0.051805  0.000138  0.108254  0.11687  5.1e-05  1.002102  0.0
H  H53  1  0.14722875  0.69111229  0.60109227  1  0.038153  0.00014  0.10792  0.116024  5.2e-05  1.002102  0.0
H  H54  1  0.18648735  0.60119975  0.69142261  1  0.041025  0.000139  0.10831  0.116966  5.1e-05  1.002181  0.0
H  H55  1  0.85275775  0.30888706  0.90997498  1  0.038584  0.00014  0.107904  0.116076  5.2e-05  1.002275  0.0
H  H56  1  0.51947530  0.09037133  0.39905500  1  0.049333  0.000138  0.108315  0.116518  5.1e-05  1.001125  0.0
H  H57  1  0.47214563  0.79221886  0.24522904  1  0.062094  0.000477  0.108638  0.12699  0.000149  0.985561  0.0
H  H58  1  0.80527240  0.45272246  0.20765313  1  0.058062  0.000481  0.108446  0.127044  0.000149  0.985789  0.0
H  H59  1  0.13903673  0.75464320  0.54719496  1  0.05984  0.000474  0.108437  0.126857  0.000148  0.985729  0.0
H  H60  1  0.19474885  0.54724978  0.75490510  1  0.060869  0.00048  0.108463  0.127085  0.000149  0.985843  0.0
H  H61  1  0.86095995  0.24535547  0.79254941  1  0.067418  0.000471  0.108473  0.126925  0.000148  0.985759  0.0
H  H62  1  0.52785121  0.20779727  0.45300768  1  0.095824  0.000468  0.108602  0.126982  0.000149  0.985391  0.0
H  H63  1  0.63040417  0.84516832  0.32451081  1  0.060659  0.000277  0.10469  0.12852  0.000123  1.005779  0.0
H  H64  1  0.96368190  0.47885760  0.15462217  1  0.072055  0.000277  0.10461  0.128201  0.000123  1.006193  0.0
H  H65  1  0.29735745  0.67536541  0.52095296  1  0.07059  0.000276  0.104299  0.127916  0.000123  1.00604  0.0
H  H66  1  0.03634402  0.52112810  0.67575459  1  0.070958  0.000277  0.104588  0.128218  0.000123  1.006071  0.0
H  H67  1  0.70263152  0.32463772  0.84558886  1  0.082671  0.000273  0.104293  0.127893  0.000123  1.006034  0.0
H  H68  1  0.36959688  0.15484563  0.47934386  1  0.060306  0.000278  0.104727  0.128549  0.000123  1.005772  0.0
C  C69  1  0.11470543  0.77354197  0.20086044  1  -0.026077  0.003422  -0.027122  -0.034571  0.001387  4.047493  0.002
C  C70  1  0.44883392  0.42736989  0.22637279  1  -0.028583  0.003406  -0.026493  -0.033978  0.001373  4.046604  0.002
C  C71  1  0.78176951  0.79903905  0.57249245  1  -0.041686  0.003413  -0.026195  -0.032977  0.001392  4.046708  0.002
C  C72  1  0.55114283  0.57263189  0.79900176  1  -0.022322  0.003363  -0.026471  -0.033839  0.001374  4.047019  0.002
C  C73  1  0.21821862  0.20096155  0.77345602  1  -0.074184  0.003451  -0.026207  -0.032918  0.001391  4.046565  0.002
C  C74  1  0.88530950  0.22646534  0.42731396  1  -0.016213  0.003401  -0.027052  -0.034285  0.001386  4.047441  0.002
C  C75  1  0.02374325  0.95297584  0.29857786  1  -0.023041  0.009283  -0.018536  -0.020895  0.004493  3.963337  0.006
C  C76  1  0.35735842  0.34549114  0.04693272  1  0.02239  0.009395  -0.018169  -0.020942  0.004564  3.963511  0.006
C  C77  1  0.69038922  0.70152010  0.65444026  1  -0.058703  0.009347  -0.018166  -0.020791  0.004526  3.962201  0.006
C  C78  1  0.64264600  0.65450306  0.70144366  1  0.007875  0.009412  -0.018075  -0.020714  0.004565  3.963251  0.006
C  C79  1  0.30960527  0.29847580  0.95292056  1  -0.053406  0.009331  -0.018172  -0.020812  0.00452  3.962298  0.006
C  C80  1  0.97626055  0.04702211  0.34559910  1  -0.035714  0.009283  -0.018542  -0.020963  0.004496  3.963335  0.006
C  C81  1  0.03093283  0.80554340  0.28050630  1  -0.011465  0.006272  -0.104804  -0.227846  0.003108  3.955525  0.004
C  C82  1  0.36489603  0.47495042  0.19433962  1  -0.019654  0.006349  -0.105877  -0.22827  0.003158  3.957212  0.004
C  C83  1  0.69786670  0.71944972  0.52494136  1  -0.039065  0.006328  -0.105166  -0.226788  0.003122  3.955293  0.004
C  C84  1  0.63508505  0.52505266  0.71939509  1  -0.047468  0.006426  -0.105901  -0.228383  0.003161  3.95753  0.004
C  C85  1  0.30213375  0.28054917  0.80549204  1  -0.055762  0.006292  -0.105147  -0.226811  0.003118  3.955153  0.004
C  C86  1  0.96907871  0.19446169  0.47494933  1  -0.083027  0.006312  -0.104829  -0.227966  0.003107  3.95579  0.004
C  C87  1  0.98242423  0.89433689  0.32978581  1  0.540595  6.8e-05  0.075192  0.278375  -0.000813  4.102745  0.0
C  C88  1  0.31608820  0.43537206  0.10557428  1  0.568004  5.1e-05  0.073795  0.275905  -0.000828  4.105103  0.0
C  C89  1  0.64921133  0.67027579  0.56455345  1  0.594204  9.1e-05  0.073726  0.275441  -0.000798  4.10402  0.0
C  C90  1  0.68389645  0.56462954  0.67020817  1  0.548524  3.7e-05  0.073773  0.275998  -0.000824  4.1049  0.0
C  C91  1  0.35081706  0.32971170  0.89427208  1  0.6358  7.1e-05  0.073805  0.275602  -0.000801  4.103618  0.0
C  C92  1  0.01757508  0.10566426  0.43544719  1  0.640848  3.3e-05  0.075237  0.278428  -0.000813  4.103073  0.0
C  C93  1  0.15227958  0.83075572  0.16877270  1  -0.091537  0.009962  -0.099438  -0.124637  0.005097  4.024634  0.006
C  C94  1  0.48639213  0.33803874  0.16914708  1  -0.025234  0.009993  -0.099629  -0.125288  0.00514  4.025415  0.006
C  C95  1  0.81928476  0.83118631  0.66183276  1  0.001957  0.009939  -0.100134  -0.125725  0.005109  4.026915  0.006
C  C96  1  0.51357902  0.66196059  0.83111151  1  -0.015816  0.010016  -0.099627  -0.12526  0.005144  4.025109  0.006
C  C97  1  0.18069723  0.16881042  0.83065112  1  0.049052  0.009896  -0.100004  -0.125626  0.005105  4.026611  0.006
C  C98  1  0.84774226  0.16924336  0.33801399  1  -0.013271  0.009888  -0.099426  -0.124624  0.005097  4.024604  0.006
C  C99  1  0.16602191  0.67991485  0.15004860  1  1.481639  -0.007318  0.229899  0.579538  -0.00937  4.102384  -0.005
C  C100  1  0.50002965  0.47026151  0.32003145  1  1.504334  -0.007254  0.229965  0.578515  -0.009268  4.104417  -0.005
C  C101  1  0.83286888  0.84982149  0.52961731  1  1.488301  -0.007286  0.229514  0.577609  -0.00929  4.103406  -0.005
C  C102  1  0.49994341  0.52972998  0.84976282  1  1.481091  -0.007275  0.229901  0.578315  -0.009245  4.104817  -0.005
C  C103  1  0.16713486  0.15017505  0.67980387  1  1.524751  -0.007268  0.229418  0.577577  -0.009294  4.103831  -0.005
C  C104  1  0.83398230  0.32009591  0.47013320  1  1.523542  -0.007357  0.229687  0.578958  -0.009384  4.102603  -0.005
C  C105  1  0.30320970  0.91545514  0.42825739  1  1.363765  0.000181  0.172569  0.298781  -0.000525  4.103093  0.0
C  C106  1  0.63673953  0.51265856  0.08448000  1  1.346191  0.000196  0.171893  0.298738  -0.000497  4.104198  0.0
C  C107  1  0.96999784  0.57177476  0.48733873  1  1.355959  0.000101  0.172345  0.297945  -0.000542  4.104726  0.0
C  C108  1  0.36328095  0.48733694  0.57181256  1  1.355113  0.000154  0.171899  0.299017  -0.000498  4.104328  0.0
C  C109  1  0.02999413  0.42822590  0.91555873  1  1.368293  0.000149  0.172361  0.298064  -0.000543  4.104709  0.0
C  C110  1  0.69678779  0.08455886  0.51280427  1  1.359785  0.000166  0.172685  0.29885  -0.000524  4.103205  0.0
C  C111  1  0.10699427  0.91896005  0.21779419  1  -0.013411  -0.001268  -0.096724  -0.129283  -0.001598  4.034933  -0.001
C  C112  1  0.44083778  0.29880579  0.08098057  1  -0.091497  -0.001236  -0.096002  -0.128796  -0.001624  4.034116  -0.001
C  C113  1  0.77379246  0.78226898  0.70110983  1  -0.029706  -0.001248  -0.096672  -0.128885  -0.001597  4.034037  -0.001
C  C114  1  0.55916829  0.70118998  0.78217531  1  -0.117104  -0.001249  -0.096044  -0.128089  -0.001624  4.034183  -0.001
C  C115  1  0.22620422  0.21772654  0.91884208  1  -0.091499  -0.001205  -0.096681  -0.128965  -0.001597  4.034265  -0.001
C  C116  1  0.89299725  0.08103438  0.29882669  1  -0.050387  -0.001236  -0.096752  -0.129251  -0.001598  4.035062  -0.001
C  C117  1  0.40213302  0.76805879  0.38461584  1  0.214198  0.000517  -0.135129  -0.270781  0.000315  3.875972  0.0
C  C118  1  0.73566562  0.61629409  0.23192205  1  0.25354  0.000509  -0.134772  -0.269731  0.000312  3.874452  0.0
C  C119  1  0.06939239  0.61524642  0.38352435  1  0.237631  0.000519  -0.135572  -0.27157  0.000315  3.87295  0.0
C  C120  1  0.26434915  0.38369623  0.61561715  1  0.230259  0.000514  -0.134867  -0.269781  0.000312  3.874237  0.0
C  C121  1  0.93060510  0.38475395  0.76827398  1  0.239833  0.000513  -0.135578  -0.271475  0.000315  3.873079  0.0
C  C122  1  0.59786344  0.23195073  0.61655218  1  0.240674  0.000516  -0.135057  -0.270612  0.000315  3.875887  0.0
C  C123  1  0.50234532  0.84863587  0.31050319  1  0.299832  0.001133  -0.128275  -0.276018  0.000672  3.902937  0.001
C  C124  1  0.83557811  0.46153929  0.15121045  1  0.293344  0.001127  -0.127992  -0.275835  0.000669  3.905492  0.001
C  C125  1  0.16926011  0.68936141  0.53832482  1  0.298641  0.001136  -0.127837  -0.275406  0.000672  3.902615  0.001
C  C126  1  0.16444643  0.53843832  0.68965100  1  0.303132  0.001125  -0.127965  -0.275989  0.000669  3.905613  0.001
C  C127  1  0.83073574  0.31063706  0.84896186  1  0.276664  0.001141  -0.127879  -0.275477  0.000672  3.902888  0.001
C  C128  1  0.49765989  0.15137709  0.46186884  1  0.26207  0.001145  -0.128239  -0.276133  0.000671  3.902964  0.001
N  N129  1  0.40123503  0.84782496  0.37811468  1  -1.202559  0.006365  -0.282391  0.032682  0.00319  3.721992  0.005
N  N130  1  0.73470860  0.53007059  0.15209927  1  -1.210495  0.006417  -0.282043  0.031068  0.003215  3.722723  0.005
N  N131  1  0.06826996  0.62179157  0.46983417  1  -1.201779  0.006313  -0.281783  0.033453  0.003164  3.71991  0.005
N  N132  1  0.26530262  0.46991367  0.62201015  1  -1.213052  0.006413  -0.282213  0.030973  0.003213  3.722817  0.005
N  N133  1  0.93172709  0.37820715  0.84803733  1  -1.201386  0.006309  -0.281711  0.033388  0.003162  3.719938  0.005
N  N134  1  0.59876181  0.15218855  0.53028654  1  -1.213305  0.006364  -0.282402  0.032725  0.00319  3.722413  0.005
O  O135  1  0.23850235  0.65138422  0.07777453  1  -1.14359  0.0515  -0.285892  -0.508413  0.026741  2.34271  0.044
O  O136  1  0.57220396  0.42648617  0.34863799  1  -1.14289  0.051703  -0.286789  -0.508826  0.026823  2.343797  0.044
O  O137  1  0.90548037  0.92204268  0.57338348  1  -1.142416  0.05182  -0.286178  -0.507985  0.026903  2.34381  0.045
O  O138  1  0.42776495  0.57352046  0.92214389  1  -1.135291  0.051746  -0.286749  -0.508748  0.026835  2.343901  0.044
O  O139  1  0.09450019  0.07796227  0.65135252  1  -1.141661  0.051776  -0.285963  -0.50783  0.026892  2.343729  0.045
O  O140  1  0.76150385  0.34863775  0.42639417  1  -1.137761  0.051547  -0.285855  -0.508157  0.02675  2.342891  0.044
O  O141  1  0.89521600  0.92225601  0.40407665  1  -1.17002  0.060238  -0.347101  -0.57424  0.031325  2.494926  0.051
O  O142  1  0.22890060  0.48178618  0.07771571  1  -1.177522  0.060739  -0.346338  -0.572947  0.031555  2.494812  0.051
O  O143  1  0.56208357  0.59599448  0.51815239  1  -1.172783  0.060219  -0.34691  -0.57326  0.031255  2.495232  0.051
O  O144  1  0.77108701  0.51821832  0.59592615  1  -1.177993  0.060727  -0.346479  -0.57313  0.031554  2.494716  0.051
O  O145  1  0.43797167  0.40398246  0.92215723  1  -1.173956  0.060183  -0.346912  -0.573197  0.031211  2.495089  0.051
O  O146  1  0.10476073  0.07775494  0.48182557  1  -1.173558  0.060248  -0.34711  -0.574232  0.031334  2.495143  0.051
O  O147  1  0.13224899  0.63043550  0.18538994  1  -1.186156  -0.001174  -0.327737  -0.496809  -0.001734  2.314405  0.0
O  O148  1  0.46638848  0.55509148  0.36946156  1  -1.189622  -0.001167  -0.327964  -0.496768  -0.001722  2.314242  0.0
O  O149  1  0.79906385  0.81454273  0.44482666  1  -1.183453  -0.001122  -0.328778  -0.498052  -0.001706  2.312924  0.0
O  O150  1  0.53356987  0.44490491  0.81436722  1  -1.182581  -0.001146  -0.32781  -0.496572  -0.001718  2.31458  0.0
O  O151  1  0.20095907  0.18545633  0.63029613  1  -1.186149  -0.001126  -0.328778  -0.498023  -0.001706  2.313382  0.0
O  O152  1  0.86773265  0.36958369  0.55496313  1  -1.191533  -0.001191  -0.327663  -0.496723  -0.001737  2.314129  0.0
O  O153  1  0.20843957  0.91733236  0.48529296  1  -1.14891  0.052432  -0.300988  -0.469879  0.026737  2.365657  0.045
O  O154  1  0.54212293  0.56784930  0.08255309  1  -1.150764  0.052371  -0.301327  -0.470128  0.026741  2.365055  0.045
O  O155  1  0.87530299  0.51477460  0.43216970  1  -1.15327  0.052515  -0.301281  -0.469996  0.026679  2.366947  0.045
O  O156  1  0.45791544  0.43215756  0.51470388  1  -1.151963  0.0524  -0.301217  -0.470145  0.026744  2.365399  0.045
O  O157  1  0.12469954  0.48522740  0.91739172  1  -1.151502  0.052418  -0.301289  -0.470046  0.026676  2.366643  0.045
O  O158  1  0.79154635  0.08268226  0.56796322  1  -1.150386  0.052433  -0.30106  -0.469828  0.026728  2.365569  0.045
