# generated using pymatgen
data_Co2H22C22N2O11
_symmetry_space_group_name_H-M   'P 1'
_cell_length_a   12.96236987
_cell_length_b   14.28734870
_cell_length_c   17.44159255
_cell_angle_alpha   97.18625635
_cell_angle_beta   90.00107675
_cell_angle_gamma   89.99884544
_symmetry_Int_Tables_number   1
_chemical_formula_structural   Co2H22C22N2O11
_chemical_formula_sum   'Co8 H88 C88 N8 O44'
_cell_volume   3204.77263289
_cell_formula_units_Z   4
loop_
 _symmetry_equiv_pos_site_id
 _symmetry_equiv_pos_as_xyz
  1  'x, y, z'
loop_
 _atom_site_type_symbol
 _atom_site_label
 _atom_site_symmetry_multiplicity
 _atom_site_fract_x
 _atom_site_fract_y
 _atom_site_fract_z
 _atom_site_occupancy
 _atom_site_pbe_bader_charge
 _atom_site_pbe_bader_spin_density
 _atom_site_pbe_cm5_charge
 _atom_site_pbe_ddec_charge
 _atom_site_pbe_ddec_spin_density
 _atom_site_pbe_ddec_sum_bond_order
 _atom_site_pbe_magmom
Co  Co0  1  0.06980933  0.99169838  0.77790186  1  1.284263  2.606934  0.654784  0.975927  2.803788  2.455742  2.57
Co  Co1  1  0.26383996  0.43286699  0.14520705  1  1.317803  2.605245  0.63257  1.003018  2.819571  2.337672  2.59
Co  Co2  1  0.56980593  0.50829624  0.72210003  1  1.284292  2.606987  0.654803  0.976151  2.803848  2.455501  2.57
Co  Co3  1  0.76384016  0.06712899  0.35478429  1  1.318107  2.60524  0.632789  1.003307  2.819616  2.338068  2.59
Co  Co4  1  0.93019451  0.00830722  0.22210124  1  1.284173  2.606927  0.654736  0.975839  2.803775  2.455418  2.57
Co  Co5  1  0.73616465  0.56713721  0.85479649  1  1.317712  2.605234  0.632594  1.0031  2.819546  2.337665  2.59
Co  Co6  1  0.43019714  0.49171006  0.27790027  1  1.284212  2.606988  0.654717  0.97592  2.80384  2.455375  2.57
Co  Co7  1  0.23616137  0.93286673  0.64521724  1  1.318098  2.605206  0.63281  1.003357  2.819584  2.338172  2.59
H  H8  1  0.59679310  0.23853446  0.22769004  1  0.155764  0.00054  0.113957  0.129463  0.000171  0.990052  0.0
H  H9  1  0.54183722  0.31555098  0.00076594  1  0.070561  0.000124  0.099102  0.100155  -9.2e-05  1.025362  0.0
H  H10  1  0.80170889  0.13874135  0.04396182  1  0.098308  0.000375  0.105321  0.107489  3.2e-05  1.041427  0.0
H  H11  1  0.82104180  0.11091890  0.93355422  1  0.068495  0.000615  0.101824  0.098331  0.000291  1.061966  0.0
H  H12  1  0.82095369  0.22842664  0.71985310  1  0.106497  0.00046  0.110692  0.117997  0.000251  0.998276  0.0
H  H13  1  0.62293303  0.34761287  0.90366990  1  0.063808  3.9e-05  0.104056  0.102683  -0.000159  1.029496  0.0
H  H14  1  0.28954533  0.23266700  0.04438708  1  0.11149  0.001624  0.125182  0.052618  0.000416  0.988051  0.001
H  H15  1  0.16468378  0.02641697  0.03607340  1  0.051201  0.000678  0.103766  0.119467  0.000239  1.011937  0.0
H  H16  1  0.15143338  0.06664495  0.94327753  1  0.130775  -8.9e-05  0.109898  0.139703  -0.000265  1.012625  0.0
H  H17  1  0.26905429  0.08657434  0.99569522  1  0.01996  0.00012  0.111538  0.122997  3.7e-05  0.982288  0.0
H  H18  1  0.01661801  0.24541251  0.08689181  1  0.11771  0.000312  0.114187  0.134338  0.000111  0.988932  0.0
H  H19  1  0.99154140  0.16431757  0.00129587  1  0.05883  0.000324  0.104308  0.117682  8.2e-05  1.007255  0.0
H  H20  1  0.01498472  0.12075152  0.09133261  1  0.081277  0.000333  0.112551  0.13557  0.000159  0.99437  0.0
H  H21  1  0.09801452  0.54387743  0.05596519  1  0.098692  0.001401  0.125217  0.054386  0.000328  0.982057  0.001
H  H22  1  0.97740042  0.71164839  0.23639403  1  0.094423  0.000114  0.106979  0.125349  -2.1e-05  1.003241  0.0
H  H23  1  0.89223334  0.61299541  0.22720764  1  0.035673  0.000231  0.107982  0.12557  7.7e-05  0.98125  0.0
H  H24  1  0.02403228  0.59829755  0.25540301  1  0.068594  0.000272  0.115904  0.139211  9.4e-05  0.98572  0.0
H  H25  1  0.97797098  0.63897560  0.02470245  1  0.07023  0.000177  0.106806  0.114934  5.9e-05  1.014353  0.0
H  H26  1  0.86328601  0.62339419  0.07811067  1  0.098793  0.000263  0.105684  0.12959  7e-05  0.982571  0.0
H  H27  1  0.93501424  0.73012100  0.09802091  1  0.062107  0.000339  0.110633  0.138805  7e-05  0.99587  0.0
H  H28  1  0.34855735  0.44060882  0.01883859  1  0.634383  -0.000292  0.31816  0.40753  -0.000449  0.892515  0.0
H  H29  1  0.31032562  0.54460016  0.02606791  1  0.594319  0.000451  0.311359  0.385544  0.000138  0.92497  0.0
H  H30  1  0.09678762  0.26143674  0.27229823  1  0.15547  0.000541  0.113981  0.129533  0.000171  0.989841  0.0
H  H31  1  0.04183305  0.18444580  0.49922355  1  0.070658  0.000124  0.09913  0.100196  -9.2e-05  1.025263  0.0
H  H32  1  0.30169504  0.36125194  0.45603837  1  0.098022  0.000376  0.10526  0.107435  3.1e-05  1.041308  0.0
H  H33  1  0.32103982  0.38905411  0.56646017  1  0.067245  0.000615  0.101798  0.098343  0.000291  1.06206  0.0
H  H34  1  0.32093738  0.27154990  0.78016394  1  0.106156  0.00046  0.110733  0.118049  0.000251  0.99802  0.0
H  H35  1  0.12291857  0.15237887  0.59633846  1  0.063855  3.9e-05  0.104035  0.102736  -0.000159  1.02937  0.0
H  H36  1  0.78952740  0.26733277  0.45559927  1  0.111452  0.001624  0.125248  0.052623  0.000416  0.988054  0.001
H  H37  1  0.66465683  0.47358202  0.46391113  1  0.051192  0.000678  0.103742  0.119477  0.000239  1.011711  0.0
H  H38  1  0.65142323  0.43336600  0.55671250  1  0.130779  -8.8e-05  0.109838  0.139495  -0.000265  1.012752  0.0
H  H39  1  0.76902937  0.41342551  0.50428960  1  0.020431  0.00012  0.111512  0.122973  3.7e-05  0.982247  0.0
H  H40  1  0.51662321  0.25457692  0.41309602  1  0.11733  0.000312  0.114202  0.134241  0.000111  0.988996  0.0
H  H41  1  0.49151532  0.33565775  0.49869083  1  0.058611  0.000324  0.104405  0.117761  8.2e-05  1.007262  0.0
H  H42  1  0.51495077  0.37923370  0.40865306  1  0.081962  0.000333  0.112543  0.135519  0.000159  0.9943  0.0
H  H43  1  0.59801291  0.95611694  0.44402226  1  0.09917  0.001401  0.125266  0.054579  0.000328  0.982304  0.001
H  H44  1  0.47738409  0.78833840  0.26360022  1  0.094438  0.000114  0.106993  0.125396  -2.1e-05  1.003191  0.0
H  H45  1  0.39221118  0.88700196  0.27279107  1  0.035898  0.000231  0.107903  0.125495  7.7e-05  0.981306  0.0
H  H46  1  0.52400755  0.90169031  0.24459251  1  0.068899  0.000272  0.115947  0.139192  9.5e-05  0.985885  0.0
H  H47  1  0.47799079  0.86103306  0.47529801  1  0.069921  0.000177  0.106793  0.114821  5.9e-05  1.014454  0.0
H  H48  1  0.36329255  0.87660721  0.42189779  1  0.099009  0.000263  0.105585  0.129442  7e-05  0.982711  0.0
H  H49  1  0.43502575  0.76987926  0.40199302  1  0.062172  0.000338  0.110647  0.138814  7e-05  0.995733  0.0
H  H50  1  0.84855398  0.05938017  0.48116240  1  0.634497  -0.000292  0.318167  0.4074  -0.000449  0.892529  0.0
H  H51  1  0.81033250  0.95539925  0.47393044  1  0.594248  0.000452  0.311415  0.385628  0.000139  0.924878  0.0
H  H52  1  0.40320688  0.76145494  0.77231545  1  0.155856  0.00054  0.114004  0.129537  0.000171  0.989937  0.0
H  H53  1  0.45816585  0.68445395  0.99924398  1  0.078539  0.000134  0.099063  0.100114  -9.2e-05  1.025318  0.0
H  H54  1  0.19829418  0.86126568  0.95604257  1  0.097842  0.000376  0.105305  0.107462  3.2e-05  1.041403  0.0
H  H55  1  0.17895587  0.88908885  0.06645426  1  0.068498  0.000615  0.101828  0.098294  0.000291  1.061835  0.0
H  H56  1  0.17904475  0.77156979  0.28014966  1  0.106368  0.00046  0.11067  0.117992  0.000251  0.998237  0.0
H  H57  1  0.37706696  0.65239203  0.09633256  1  0.064319  3.9e-05  0.104043  0.102654  -0.000159  1.029418  0.0
H  H58  1  0.71045697  0.76733153  0.95561130  1  0.111506  0.001624  0.1252  0.052656  0.000416  0.988058  0.001
H  H59  1  0.83531697  0.97358089  0.96393122  1  0.05106  0.000679  0.103751  0.11938  0.000239  1.012041  0.0
H  H60  1  0.84856814  0.93335431  0.05672551  1  0.130676  -8.8e-05  0.109859  0.139613  -0.000265  1.012604  0.0
H  H61  1  0.73094878  0.91342564  0.00431018  1  0.019845  0.00012  0.111506  0.122958  3.7e-05  0.98232  0.0
H  H62  1  0.98338583  0.75458887  0.91311430  1  0.117335  0.000312  0.114215  0.134383  0.000111  0.988903  0.0
H  H63  1  0.00845858  0.83568382  0.99871254  1  0.058657  0.000324  0.104344  0.117741  8.2e-05  1.007079  0.0
H  H64  1  0.98501603  0.87925198  0.90867429  1  0.081673  0.000333  0.112581  0.135639  0.000158  0.994334  0.0
H  H65  1  0.90199549  0.45612887  0.94403454  1  0.098755  0.001401  0.125207  0.054419  0.000328  0.982174  0.001
H  H66  1  0.02259493  0.28835507  0.76360083  1  0.09449  0.000114  0.107002  0.125419  -2.1e-05  1.003134  0.0
H  H67  1  0.10776587  0.38700804  0.77278435  1  0.035777  0.000231  0.107936  0.125563  7.7e-05  0.981263  0.0
H  H68  1  0.97596307  0.40170874  0.74459500  1  0.06858  0.000272  0.1159  0.139251  9.4e-05  0.985679  0.0
H  H69  1  0.02203904  0.36102927  0.97529370  1  0.070306  0.000177  0.106778  0.114894  5.9e-05  1.014214  0.0
H  H70  1  0.13672169  0.37660502  0.92188033  1  0.098562  0.000263  0.105668  0.129483  7e-05  0.982598  0.0
H  H71  1  0.06498883  0.26988105  0.90197324  1  0.06227  0.000339  0.110641  0.13883  7e-05  0.99589  0.0
H  H72  1  0.65144186  0.55939749  0.98116458  1  0.635851  -0.000291  0.318101  0.407409  -0.000449  0.892678  0.0
H  H73  1  0.68968054  0.45540971  0.97394249  1  0.594443  0.000451  0.311424  0.385533  0.000138  0.924976  0.0
H  H74  1  0.90320851  0.73857028  0.72770616  1  0.155476  0.000541  0.113968  0.129516  0.000171  0.989871  0.0
H  H75  1  0.95816848  0.81555981  0.50078127  1  0.070695  0.000124  0.099104  0.100187  -9.2e-05  1.025337  0.0
H  H76  1  0.69831343  0.63874308  0.54396195  1  0.098277  0.000376  0.105274  0.10743  3.1e-05  1.041332  0.0
H  H77  1  0.67896788  0.61094725  0.43354136  1  0.067258  0.000615  0.101854  0.098369  0.000291  1.062117  0.0
H  H78  1  0.67906955  0.72845147  0.21983816  1  0.106265  0.00046  0.110747  0.11805  0.000251  0.998082  0.0
H  H79  1  0.87709452  0.84761898  0.40366387  1  0.063734  3.9e-05  0.10407  0.102747  -0.000159  1.029332  0.0
H  H80  1  0.21045638  0.73266780  0.54437753  1  0.11143  0.001624  0.125164  0.052504  0.000416  0.988033  0.001
H  H81  1  0.33531769  0.52640933  0.53605098  1  0.051387  0.000678  0.103816  0.119482  0.000239  1.011799  0.0
H  H82  1  0.34857058  0.56665148  0.44326082  1  0.130326  -8.9e-05  0.109848  0.139504  -0.000265  1.012649  0.0
H  H83  1  0.23095287  0.58658348  0.49567485  1  0.019954  0.00012  0.111541  0.122996  3.7e-05  0.982177  0.0
H  H84  1  0.48335826  0.74541247  0.58690718  1  0.117447  0.000311  0.11421  0.134265  0.000111  0.98896  0.0
H  H85  1  0.50846846  0.66433374  0.50130799  1  0.058839  0.000324  0.104324  0.117704  8.2e-05  1.007199  0.0
H  H86  1  0.48502067  0.62075001  0.59134097  1  0.081972  0.000333  0.112585  0.135595  0.000159  0.994366  0.0
H  H87  1  0.40197859  0.04388794  0.55597561  1  0.099064  0.001401  0.125237  0.054561  0.000328  0.982246  0.001
H  H88  1  0.52262746  0.21165729  0.73639156  1  0.09454  0.000114  0.10698  0.125435  -2.1e-05  1.003136  0.0
H  H89  1  0.60779729  0.11299372  0.72719613  1  0.035603  0.000231  0.108013  0.125581  7.7e-05  0.981203  0.0
H  H90  1  0.47600555  0.09830752  0.75540638  1  0.068852  0.000272  0.115939  0.139196  9.4e-05  0.985875  0.0
H  H91  1  0.52200070  0.13896264  0.52469665  1  0.069748  0.000177  0.106783  0.1148  5.9e-05  1.01447  0.0
H  H92  1  0.63670203  0.12338495  0.57809307  1  0.099007  0.000262  0.105622  0.129423  7e-05  0.982661  0.0
H  H93  1  0.56497192  0.23011644  0.59800106  1  0.062288  0.000338  0.110636  0.138775  7e-05  0.995779  0.0
H  H94  1  0.15143597  0.94061206  0.51884681  1  0.634329  -0.000293  0.318185  0.407547  -0.000449  0.892354  0.0
H  H95  1  0.18966517  0.04459150  0.52606200  1  0.594334  0.000452  0.311334  0.385542  0.00014  0.924987  0.0
C  C96  1  0.61785334  0.23405888  0.16695715  1  -0.035529  -0.005428  -0.071088  -0.094918  -0.006198  3.901786  -0.003
C  C97  1  0.47669403  0.34717725  0.14957830  1  1.53574  -0.005536  0.223296  0.610124  -0.007369  4.146564  -0.005
C  C98  1  0.56132391  0.28341361  0.11661028  1  -0.024002  0.011156  -0.017843  -0.027993  0.005738  3.995288  0.009
C  C99  1  0.58930860  0.27830126  0.03875159  1  -0.084621  -0.007677  -0.087225  -0.151236  -0.008449  3.948961  -0.004
C  C100  1  0.71550574  0.22863929  0.93074182  1  0.040742  -0.000162  -0.011138  0.065387  -0.000303  4.026832  0.0
C  C101  1  0.70199948  0.17939942  0.13891868  1  0.013425  0.011961  -0.016866  -0.024256  0.006005  3.993148  0.01
C  C102  1  0.67764759  0.22797114  0.01076308  1  0.03341  0.002923  -0.014431  0.055991  0.001231  4.031188  0.003
C  C103  1  0.73248985  0.17844366  0.06205359  1  -0.070061  -0.007196  -0.079987  -0.133138  -0.008002  3.920462  -0.004
C  C104  1  0.79063354  0.16385022  0.89999094  1  -0.062337  0.002807  -0.081909  -0.140607  0.001467  3.931691  0.002
C  C105  1  0.91240701  0.09622437  0.79648765  1  1.529623  -0.001305  0.190974  0.549693  -0.002063  4.229118  -0.003
C  C106  1  0.72000338  0.29638461  0.80888756  1  -0.035704  0.0019  -0.013485  -0.014429  0.000715  3.997808  0.001
C  C107  1  0.68099522  0.36795900  0.76094737  1  1.55807  0.007036  0.211771  0.586979  0.004755  4.165954  0.005
C  C108  1  0.79216031  0.22916364  0.77859238  1  -0.00426  0.003579  -0.074174  -0.114966  0.001922  3.931107  0.002
C  C109  1  0.68171659  0.29552379  0.88384975  1  -0.092784  0.001081  -0.085235  -0.156049  0.000322  3.933255  0.001
C  C110  1  0.82916566  0.16390392  0.82530523  1  -0.014608  0.000949  -0.016499  -0.019154  0.000258  4.001122  0.0
C  C111  1  0.76178998  0.12345546  0.19061852  1  1.544855  -0.010777  0.219851  0.596035  -0.012852  4.157497  -0.009
C  C112  1  0.20698789  0.24646368  0.05652325  1  1.357581  -0.000622  0.184495  0.306728  -0.001154  4.071173  -0.001
C  C113  1  0.18493750  0.08270826  0.00122677  1  0.278616  0.000898  -0.127842  -0.280222  0.00052  3.889034  0.001
C  C114  1  0.03527778  0.17622115  0.05570318  1  0.228747  0.000599  -0.128532  -0.272447  0.000296  3.867245  0.0
C  C115  1  0.08203585  0.55533315  0.11862595  1  1.361859  -0.001305  0.179229  0.297652  -0.001613  4.090555  -0.001
C  C116  1  0.97242281  0.63509309  0.21958049  1  0.294942  0.000387  -0.128845  -0.268721  0.000225  3.870435  0.0
C  C117  1  0.94145969  0.65357203  0.08160714  1  0.246936  0.001107  -0.132071  -0.290512  0.000661  3.911849  0.001
C  C118  1  0.11785393  0.26592397  0.33303200  1  -0.035149  -0.005428  -0.070874  -0.094663  -0.006198  3.901459  -0.003
C  C119  1  0.97671148  0.15280962  0.35041279  1  1.570803  -0.005622  0.223105  0.609882  -0.007369  4.146641  -0.005
C  C120  1  0.06133614  0.21657300  0.38338305  1  -0.059369  0.011244  -0.017911  -0.028003  0.005739  3.995547  0.009
C  C121  1  0.08931266  0.22169547  0.46124257  1  -0.084661  -0.007677  -0.087227  -0.151248  -0.00845  3.948954  -0.004
C  C122  1  0.21550414  0.27135587  0.56926415  1  0.039938  -0.000162  -0.011081  0.065544  -0.000303  4.026428  0.0
C  C123  1  0.20199416  0.32059546  0.36107342  1  0.013543  0.011963  -0.01701  -0.024548  0.006006  3.993367  0.01
C  C124  1  0.17765201  0.27202344  0.48923208  1  0.034365  0.002923  -0.014532  0.055896  0.001231  4.031129  0.003
C  C125  1  0.23248260  0.32154791  0.43793917  1  -0.070257  -0.007194  -0.079904  -0.133081  -0.008  3.920461  -0.004
C  C126  1  0.29062510  0.33613531  0.60003116  1  -0.060396  0.002805  -0.082023  -0.140985  0.001467  3.93232  0.002
C  C127  1  0.41241049  0.40374928  0.70353094  1  1.528616  -0.001306  0.19092  0.549683  -0.002059  4.228395  -0.003
C  C128  1  0.21997707  0.20361331  0.69112391  1  -0.035378  0.001896  -0.013501  -0.018314  0.000716  4.002967  0.001
C  C129  1  0.18095784  0.13203462  0.73906312  1  1.557685  0.007037  0.211694  0.587933  0.004756  4.166551  0.005
C  C130  1  0.29214407  0.27082466  0.72142371  1  -0.00452  0.003579  -0.07425  -0.113835  0.001922  3.931704  0.002
C  C131  1  0.18169530  0.20447897  0.61615593  1  -0.092887  0.00108  -0.085173  -0.15478  0.000321  3.933749  0.001
C  C132  1  0.32915218  0.33609368  0.67471861  1  -0.015175  0.000949  -0.016331  -0.018645  0.000258  4.000694  0.0
C  C133  1  0.26178750  0.37653422  0.30937503  1  1.545347  -0.010772  0.220005  0.596122  -0.012845  4.157418  -0.009
C  C134  1  0.70697306  0.25353040  0.44346654  1  1.358251  -0.000619  0.184409  0.306683  -0.001151  4.071087  -0.001
C  C135  1  0.68491346  0.41729253  0.49875994  1  0.27793  0.000899  -0.127753  -0.279858  0.000521  3.888482  0.001
C  C136  1  0.53525677  0.32377010  0.44428623  1  0.229247  0.000599  -0.128607  -0.27223  0.000295  3.867064  0.0
C  C137  1  0.58204140  0.94465302  0.38135988  1  1.360708  -0.001301  0.179028  0.297033  -0.00161  4.091168  -0.001
C  C138  1  0.47240288  0.86489591  0.28041677  1  0.294307  0.000387  -0.128898  -0.268718  0.000225  3.870684  0.0
C  C139  1  0.44146682  0.84643019  0.41839676  1  0.24698  0.001107  -0.131985  -0.290183  0.000661  3.91181  0.001
C  C140  1  0.38214510  0.76593333  0.83304633  1  -0.035542  -0.005431  -0.071133  -0.094926  -0.006201  3.901788  -0.003
C  C141  1  0.52329824  0.65282202  0.85042703  1  1.535931  -0.005543  0.223383  0.610286  -0.007369  4.146563  -0.005
C  C142  1  0.43867453  0.71658496  0.88339728  1  -0.023974  0.011155  -0.017872  -0.028071  0.005737  3.995562  0.009
C  C143  1  0.41069215  0.72170084  0.96125632  1  -0.093064  -0.007692  -0.087147  -0.151155  -0.008454  3.949036  -0.004
C  C144  1  0.28449193  0.77136704  0.06926652  1  0.040447  -0.000163  -0.011161  0.065301  -0.000303  4.026841  0.0
C  C145  1  0.29800514  0.82060125  0.86108507  1  0.013171  0.011963  -0.016761  -0.024163  0.006005  3.992879  0.01
C  C146  1  0.32235316  0.77203306  0.98924274  1  0.033774  0.002924  -0.014517  0.055875  0.001231  4.031243  0.003
C  C147  1  0.26751322  0.82156125  0.93795058  1  -0.069705  -0.0072  -0.07995  -0.133051  -0.008006  3.92036  -0.004
C  C148  1  0.20936491  0.83615682  0.10001804  1  -0.061942  0.002809  -0.081889  -0.140569  0.001468  3.93165  0.002
C  C149  1  0.08758835  0.90377420  0.20352048  1  1.528986  -0.001303  0.190967  0.549684  -0.002061  4.228706  -0.003
C  C150  1  0.27999815  0.70361890  0.19112049  1  -0.035617  0.001898  -0.013628  -0.0147  0.000714  3.997834  0.001
C  C151  1  0.31901480  0.63204308  0.23905537  1  1.557762  0.007041  0.211971  0.587203  0.004757  4.165753  0.005
C  C152  1  0.20783736  0.77083985  0.22141223  1  -0.004391  0.003581  -0.074059  -0.114902  0.001923  3.93101  0.002
C  C153  1  0.31828802  0.70448396  0.11615987  1  -0.093117  0.001084  -0.085113  -0.155809  0.000324  3.932886  0.001
C  C154  1  0.17083201  0.83610242  0.17470368  1  -0.014739  0.000949  -0.01657  -0.019092  0.000259  4.001075  0.0
C  C155  1  0.23821309  0.87654592  0.80938473  1  1.545217  -0.010782  0.219813  0.595851  -0.012856  4.157434  -0.009
C  C156  1  0.79301286  0.75353485  0.94347570  1  1.357265  -0.00062  0.184465  0.306665  -0.001154  4.071337  -0.001
C  C157  1  0.81506480  0.91729030  0.99877734  1  0.278984  0.000898  -0.127738  -0.279928  0.00052  3.888928  0.001
C  C158  1  0.96472529  0.82378094  0.94430300  1  0.228864  0.000599  -0.128615  -0.272603  0.000295  3.867027  0.0
C  C159  1  0.91796799  0.44467315  0.88137320  1  1.361807  -0.001306  0.179221  0.297502  -0.001614  4.090783  -0.001
C  C160  1  0.02757640  0.36491038  0.78041494  1  0.294699  0.000387  -0.12883  -0.268908  0.000225  3.870356  0.0
C  C161  1  0.05854723  0.34643002  0.91838701  1  0.247016  0.001107  -0.132018  -0.290372  0.000661  3.911661  0.001
C  C162  1  0.88214374  0.73407600  0.66697283  1  -0.034842  -0.005431  -0.070956  -0.094755  -0.006201  3.901528  -0.003
C  C163  1  0.02328619  0.84719458  0.64959074  1  1.571186  -0.005623  0.223125  0.609883  -0.007371  4.146835  -0.005
C  C164  1  0.93865690  0.78343403  0.61662249  1  -0.059378  0.011245  -0.017633  -0.027608  0.005739  3.995181  0.009
C  C165  1  0.91069118  0.77830448  0.53875882  1  -0.085121  -0.007682  -0.087363  -0.151511  -0.008455  3.948974  -0.004
C  C166  1  0.78450048  0.72864832  0.43073652  1  0.040434  -0.000163  -0.011072  0.065557  -0.000303  4.026283  0.0
C  C167  1  0.79800737  0.67940590  0.63892525  1  0.013564  0.011963  -0.017058  -0.024735  0.006005  3.993347  0.01
C  C168  1  0.82235183  0.72797933  0.51076787  1  0.034005  0.002923  -0.014508  0.055938  0.001231  4.031098  0.003
C  C169  1  0.76752201  0.67845274  0.56205828  1  -0.070148  -0.007199  -0.079868  -0.132901  -0.008005  3.920354  -0.004
C  C170  1  0.70938106  0.66386677  0.39997216  1  -0.060167  0.002806  -0.081999  -0.140828  0.001467  3.93227  0.002
C  C171  1  0.58759567  0.59625210  0.29647288  1  1.52823  -0.001308  0.190896  0.549709  -0.002062  4.228376  -0.003
C  C172  1  0.78002908  0.79639087  0.30887619  1  -0.035699  0.001896  -0.013626  -0.018416  0.000716  4.003202  0.001
C  C173  1  0.81905526  0.86796745  0.26093791  1  1.557701  0.007045  0.211811  0.587929  0.004761  4.166728  0.005
C  C174  1  0.70786209  0.72918024  0.27857875  1  -0.004493  0.003579  -0.07421  -0.113701  0.001922  3.931854  0.002
C  C175  1  0.81831394  0.79552168  0.38384209  1  -0.092736  0.001081  -0.085216  -0.154849  0.000322  3.933718  0.001
C  C176  1  0.67085552  0.66390699  0.32528342  1  -0.015059  0.000949  -0.016349  -0.018866  0.000258  4.000716  0.0
C  C177  1  0.73821480  0.62347067  0.69062571  1  1.545069  -0.010773  0.219995  0.596183  -0.012845  4.15746  -0.009
C  C178  1  0.29300919  0.74646598  0.55652188  1  1.357586  -0.000617  0.184584  0.307014  -0.001152  4.07094  -0.001
C  C179  1  0.31506801  0.58270943  0.50121126  1  0.278838  0.000899  -0.127863  -0.279917  0.000521  3.888493  0.001
C  C180  1  0.46472239  0.67621997  0.55571130  1  0.228399  0.0006  -0.128621  -0.272462  0.000295  3.867319  0.0
C  C181  1  0.41795858  0.05534057  0.61863628  1  1.360691  -0.001302  0.178996  0.296927  -0.001611  4.09121  -0.001
C  C182  1  0.52760405  0.13509908  0.71957609  1  0.294075  0.000387  -0.128928  -0.268812  0.000225  3.87055  0.0
C  C183  1  0.55853008  0.15356620  0.58159567  1  0.246997  0.001108  -0.132013  -0.290197  0.000661  3.911729  0.001
N  N184  1  0.14543880  0.17201136  0.03923505  1  -1.198039  0.006977  -0.2729  0.045826  0.003506  3.712207  0.006
N  N185  1  0.00261250  0.61252424  0.13894640  1  -1.190212  0.005665  -0.275226  0.039385  0.002809  3.725122  0.004
N  N186  1  0.64541734  0.32798372  0.46075169  1  -1.199123  0.00698  -0.272879  0.045515  0.003507  3.711886  0.006
N  N187  1  0.50260955  0.88747102  0.36104899  1  -1.190029  0.005662  -0.275117  0.03941  0.002807  3.724988  0.004
N  N188  1  0.85456350  0.82798649  0.96076899  1  -1.198004  0.006977  -0.272992  0.045651  0.003506  3.712262  0.006
N  N189  1  0.99739134  0.38748134  0.86104981  1  -1.190118  0.005664  -0.275229  0.039522  0.002809  3.725017  0.004
N  N190  1  0.35456336  0.67201266  0.53923558  1  -1.198127  0.006978  -0.272895  0.045581  0.003506  3.712181  0.006
N  N191  1  0.49738966  0.11252538  0.63894574  1  -1.189265  0.00566  -0.275164  0.039515  0.002807  3.725003  0.004
O  O192  1  0.93929329  0.08654413  0.72663588  1  -1.154149  0.049597  -0.321881  -0.539747  0.02451  2.109353  0.042
O  O193  1  0.95855866  0.05075284  0.84673141  1  -1.141782  0.092275  -0.333905  -0.575482  0.047437  2.2555  0.072
O  O194  1  0.48724745  0.37740591  0.22076962  1  -1.143795  0.083095  -0.305335  -0.547852  0.042465  2.410487  0.069
O  O195  1  0.40246530  0.36817869  0.10609815  1  -1.180005  0.060988  -0.321448  -0.611775  0.031619  2.336599  0.053
O  O196  1  0.83302174  0.07001128  0.15865482  1  -1.149649  0.087604  -0.312443  -0.562674  0.045369  2.4058  0.073
O  O197  1  0.73847405  0.13312773  0.26192753  1  -1.142084  0.078247  -0.307868  -0.565779  0.040338  2.399095  0.069
O  O198  1  0.65401360  0.44996978  0.79844152  1  -1.144149  0.1194  -0.333007  -0.641145  0.063299  2.598485  0.098
O  O199  1  0.66863721  0.34949165  0.68977458  1  -1.16348  0.045474  -0.297723  -0.525621  0.022607  2.104022  0.037
O  O200  1  0.17583718  0.32693722  0.08442123  1  -1.140521  0.055166  -0.300447  -0.468613  0.028726  2.422616  0.046
O  O201  1  0.13575931  0.51727597  0.16604384  1  -1.152345  0.051339  -0.296212  -0.46245  0.026702  2.443979  0.043
O  O202  1  0.28631914  0.47977978  0.02498266  1  -1.194305  0.037209  -0.556553  -0.742496  0.019488  2.06112  0.029
O  O203  1  0.43930527  0.41340298  0.77338157  1  -1.15333  0.04957  -0.322002  -0.53999  0.024491  2.108833  0.042
O  O204  1  0.45854674  0.44924122  0.65329044  1  -1.140954  0.092282  -0.333831  -0.575422  0.047436  2.255261  0.072
O  O205  1  0.98726377  0.12260615  0.27921841  1  -1.144234  0.083114  -0.305207  -0.547654  0.04247  2.410539  0.069
O  O206  1  0.90248125  0.13178820  0.39388590  1  -1.179738  0.061011  -0.321375  -0.611727  0.031628  2.336352  0.053
O  O207  1  0.33301811  0.42999763  0.34132272  1  -1.149472  0.087617  -0.312409  -0.562584  0.045372  2.405588  0.073
O  O208  1  0.23844375  0.36685390  0.23807406  1  -1.142245  0.078212  -0.307958  -0.565773  0.040319  2.398873  0.069
O  O209  1  0.15400488  0.05001580  0.70156493  1  -1.144508  0.119404  -0.333035  -0.641101  0.063305  2.598352  0.098
O  O210  1  0.16857808  0.15051345  0.81023345  1  -1.163228  0.04548  -0.297582  -0.525384  0.022608  2.103851  0.037
O  O211  1  0.67586046  0.17304888  0.41556044  1  -1.140562  0.055158  -0.300539  -0.468649  0.028726  2.422651  0.046
O  O212  1  0.63578209  0.98269736  0.33394948  1  -1.151846  0.051336  -0.296113  -0.46209  0.026696  2.444109  0.043
O  O213  1  0.78631263  0.02021231  0.47500860  1  -1.194352  0.03721  -0.556625  -0.742444  0.019485  2.061205  0.029
O  O214  1  0.06071287  0.91344952  0.27337634  1  -1.153765  0.049577  -0.321982  -0.53992  0.024499  2.108935  0.042
O  O215  1  0.04144904  0.94923934  0.15326634  1  -1.14162  0.092253  -0.333824  -0.57534  0.047424  2.255355  0.072
O  O216  1  0.51275253  0.62258913  0.77923816  1  -1.144384  0.083108  -0.305406  -0.548013  0.04247  2.410631  0.069
O  O217  1  0.59753314  0.63181420  0.89389852  1  -1.179616  0.060988  -0.3215  -0.61187  0.031618  2.336669  0.053
O  O218  1  0.16698210  0.92999712  0.84134053  1  -1.149652  0.087611  -0.31248  -0.562651  0.045373  2.405821  0.073
O  O219  1  0.26152516  0.86687224  0.73807615  1  -1.141956  0.078243  -0.307887  -0.56575  0.040335  2.399136  0.069
O  O220  1  0.34598947  0.55003437  0.20154997  1  -1.144218  0.119392  -0.333077  -0.641252  0.063292  2.598535  0.098
O  O221  1  0.33136586  0.65050973  0.31022981  1  -1.163225  0.045477  -0.297773  -0.525614  0.022608  2.103937  0.037
O  O222  1  0.82416126  0.67306132  0.91557829  1  -1.140295  0.055167  -0.300417  -0.468544  0.028727  2.422666  0.046
O  O223  1  0.86424067  0.48272892  0.83395690  1  -1.152418  0.051336  -0.296198  -0.46243  0.026701  2.444122  0.043
O  O224  1  0.71368470  0.52023149  0.97502444  1  -1.195847  0.037197  -0.556578  -0.742388  0.019487  2.061298  0.029
O  O225  1  0.56069858  0.58659628  0.22662261  1  -1.153237  0.049575  -0.321994  -0.539989  0.024492  2.109027  0.042
O  O226  1  0.54146791  0.55075734  0.34671483  1  -1.140913  0.092262  -0.333783  -0.575335  0.04743  2.255051  0.072
O  O227  1  0.01274238  0.87740579  0.72078189  1  -1.144455  0.083127  -0.305244  -0.547694  0.042475  2.410777  0.069
O  O228  1  0.09751720  0.86822237  0.60612343  1  -1.180123  0.061013  -0.321429  -0.611792  0.031628  2.336567  0.053
O  O229  1  0.66698651  0.57000235  0.65868383  1  -1.149321  0.08763  -0.312426  -0.562722  0.045381  2.405815  0.073
O  O230  1  0.76155084  0.63314677  0.76192797  1  -1.142307  0.07821  -0.307978  -0.565791  0.040317  2.398974  0.069
O  O231  1  0.84600128  0.94998280  0.29845066  1  -1.144484  0.119381  -0.333058  -0.641054  0.063294  2.59848  0.098
O  O232  1  0.83141650  0.84949143  0.18976385  1  -1.163298  0.045489  -0.297635  -0.525404  0.022606  2.103729  0.037
O  O233  1  0.32411946  0.82694191  0.58443945  1  -1.140531  0.055154  -0.300595  -0.468758  0.028726  2.422731  0.046
O  O234  1  0.36422021  0.01729199  0.66604511  1  -1.151951  0.05133  -0.296053  -0.462022  0.026695  2.444127  0.043
O  O235  1  0.21367963  0.97977708  0.52499689  1  -1.194265  0.037212  -0.556585  -0.742562  0.019485  2.061055  0.029
