# generated using pymatgen
data_CuH6C6IN2
_symmetry_space_group_name_H-M   'P 1'
_cell_length_a   13.09208410
_cell_length_b   14.04497890
_cell_length_c   14.04497518
_cell_angle_alpha   77.45159398
_cell_angle_beta   62.21825893
_cell_angle_gamma   62.21833429
_symmetry_Int_Tables_number   1
_chemical_formula_structural   CuH6C6IN2
_chemical_formula_sum   'Cu8 H48 C48 I8 N16'
_cell_volume   2021.49293723
_cell_formula_units_Z   8
loop_
 _symmetry_equiv_pos_site_id
 _symmetry_equiv_pos_as_xyz
  1  'x, y, z'
loop_
 _atom_site_type_symbol
 _atom_site_label
 _atom_site_symmetry_multiplicity
 _atom_site_fract_x
 _atom_site_fract_y
 _atom_site_fract_z
 _atom_site_occupancy
 _atom_site_pbe_bader_charge
 _atom_site_pbe_bader_spin_density
 _atom_site_pbe_cm5_charge
 _atom_site_pbe_ddec_charge
 _atom_site_pbe_ddec_spin_density
 _atom_site_pbe_ddec_sum_bond_order
 _atom_site_pbe_magmom
Cu  Cu0  1  0.38839175  0.24997302  0.72325126  1  0.568973  0  0.407051  0.254503  0  2.652518  0
Cu  Cu1  1  0.86163074  0.25003006  0.77678785  1  0.568413  0  0.407044  0.253371  0  2.653449  0
Cu  Cu2  1  0.61160767  0.27674905  0.75002687  1  0.568975  0  0.407041  0.254472  0  2.652535  0
Cu  Cu3  1  0.13836917  0.22321192  0.74997015  1  0.568474  0  0.407029  0.253335  0  2.65348  0
Cu  Cu4  1  0.61160522  0.75002466  0.27675385  1  0.568966  0  0.407036  0.254446  0  2.652573  0
Cu  Cu5  1  0.13836877  0.74997325  0.22320501  1  0.568349  0  0.407038  0.253337  0  2.653418  0
Cu  Cu6  1  0.38839665  0.72324541  0.24997510  1  0.568981  0  0.407032  0.254434  0  2.652548  0
Cu  Cu7  1  0.86163219  0.77679462  0.25002789  1  0.568346  0  0.407045  0.253329  0  2.653424  0
H  H8  1  0.36330918  0.33066421  0.48771617  1  0.038995  0  0.099392  0.113219  0  0.954166  0
H  H9  1  0.25269707  0.37392690  0.62062646  1  0.103595  0  0.080497  0.092932  0  1.084553  0
H  H10  1  0.68171881  0.16935110  0.01229930  1  0.072061  0  0.099413  0.112883  0  0.954444  0
H  H11  1  0.74722452  0.12608329  0.87937702  1  0.103763  0  0.080684  0.092884  0  1.084466  0
H  H12  1  0.35108014  0.51227529  0.83074248  1  0.044731  0  0.099579  0.113402  0  0.95383  0
H  H13  1  0.37323569  0.37936549  0.87393727  1  0.10067  0  0.081068  0.093943  0  1.08334  0
H  H14  1  0.19411334  0.98771034  0.66930019  1  0.064971  0  0.09979  0.113262  0  0.954679  0
H  H15  1  0.12655120  0.12062593  0.62608679  1  0.114483  0  0.080651  0.092504  0  1.084764  0
H  H16  1  0.31828045  0.98770041  0.83064907  1  0.072062  0  0.099423  0.11291  0  0.954391  0
H  H17  1  0.25277496  0.12062274  0.87391655  1  0.103678  0  0.080677  0.092873  0  1.084463  0
H  H18  1  0.63669138  0.51228448  0.66933569  1  0.039006  0  0.099389  0.11321  0  0.954169  0
H  H19  1  0.74730392  0.37937377  0.62607292  1  0.103595  0  0.08048  0.092906  0  1.084534  0
H  H20  1  0.80588629  0.33069971  0.01228956  1  0.065017  0  0.099795  0.113273  0  0.954701  0
H  H21  1  0.87344833  0.37391265  0.87937393  1  0.114487  0  0.080657  0.09252  0  1.084752  0
H  H22  1  0.64891896  0.16925853  0.48772486  1  0.044718  0  0.099578  0.113384  0  0.95382  0
H  H23  1  0.62676269  0.12606321  0.62063451  1  0.100673  0  0.081078  0.093953  0  1.083327  0
H  H24  1  0.63668997  0.66933348  0.51228936  1  0.038923  0  0.099385  0.113193  0  0.954199  0
H  H25  1  0.74730044  0.62606917  0.37937719  1  0.102619  0  0.080511  0.092978  0  1.084492  0
H  H26  1  0.31827842  0.83065302  0.98769716  1  0.072084  0  0.099406  0.112892  0  0.954415  0
H  H27  1  0.25277040  0.87392163  0.12062048  1  0.10379  0  0.080653  0.092892  0  1.08445  0
H  H28  1  0.64892101  0.48772401  0.16925766  1  0.044779  0  0.099571  0.113395  0  0.953833  0
H  H29  1  0.62676503  0.62063219  0.12606066  1  0.100775  0  0.081079  0.093971  0  1.083313  0
H  H30  1  0.80588604  0.01229057  0.33069920  1  0.064947  0  0.099784  0.113251  0  0.954712  0
H  H31  1  0.87344324  0.87937578  0.37391540  1  0.114553  0  0.08065  0.092524  0  1.084604  0
H  H32  1  0.68172128  0.01230291  0.16934675  1  0.072086  0  0.099418  0.112919  0  0.954401  0
H  H33  1  0.74722837  0.87937977  0.12607894  1  0.10378  0  0.080679  0.092916  0  1.084461  0
H  H34  1  0.36331014  0.48771079  0.33066696  1  0.038967  0  0.099378  0.113181  0  0.95418  0
H  H35  1  0.25269994  0.62062311  0.37393089  1  0.102624  0  0.080497  0.092938  0  1.08453  0
H  H36  1  0.19411286  0.66930120  0.98771091  1  0.064949  0  0.099782  0.113246  0  0.954694  0
H  H37  1  0.12655786  0.62608423  0.12062411  1  0.114547  0  0.080659  0.092549  0  1.084642  0
H  H38  1  0.35107921  0.83074237  0.51227486  1  0.044784  0  0.099569  0.113385  0  0.953835  0
H  H39  1  0.37323592  0.87393930  0.37936742  1  0.100777  0  0.081077  0.093967  0  1.083302  0
H  H40  1  0.16875403  0.48276877  0.48277314  1  0.050201  0  0.085152  0.10459  0  1.000663  0
H  H41  1  0.16938024  0.56271294  0.56271592  1  0.036219  0  0.095133  0.099997  0  0.956202  0
H  H42  1  0.63420805  0.01729376  0.01729105  1  0.053003  0  0.085228  0.104367  0  1.000688  0
H  H43  1  0.79466515  0.93732653  0.93732375  1  0.039398  0  0.095123  0.099595  0  0.95623  0
H  H44  1  0.15143657  0.51725841  0.98277653  1  0.062859  0  0.084698  0.103997  0  0.999632  0
H  H45  1  0.23199707  0.43728667  0.06274754  1  0.038567  0  0.094606  0.099158  0  0.956889  0
H  H46  1  0.15143445  0.98277766  0.51725983  1  0.062825  0  0.084696  0.104016  0  0.999625  0
H  H47  1  0.23199555  0.06274814  0.43728761  1  0.038538  0  0.094624  0.099165  0  0.956896  0
H  H48  1  0.36579217  0.98270875  0.98270583  1  0.053002  0  0.085225  0.104349  0  1.000689  0
H  H49  1  0.20533346  0.06267679  0.06267346  1  0.039396  0  0.095125  0.099561  0  0.956172  0
H  H50  1  0.83124686  0.51722730  0.51723059  1  0.050178  0  0.085136  0.104569  0  1.000644  0
H  H51  1  0.83061936  0.43728474  0.43728743  1  0.036223  0  0.095159  0.100048  0  0.956188  0
H  H52  1  0.84856570  0.48274008  0.01722289  1  0.062825  0  0.084689  0.104022  0  0.99959  0
H  H53  1  0.76800431  0.56271262  0.93725150  1  0.038539  0  0.094618  0.099156  0  0.956892  0
H  H54  1  0.84856127  0.01722485  0.48274240  1  0.062859  0  0.084706  0.104019  0  0.999599  0
H  H55  1  0.76800320  0.93725357  0.56271286  1  0.038659  0  0.094614  0.099169  0  0.956889  0
C  C56  1  0.40981446  0.41567054  0.55771116  1  0.500791  0  0.132797  0.219231  0  3.894222  0
C  C57  1  0.31294345  0.39884076  0.54363992  1  -0.024506  0  -0.164116  -0.234498  0  3.959621  0
C  C58  1  0.88321008  0.08427797  0.94226279  1  0.49855  0  0.135561  0.223032  0  3.890061  0
C  C59  1  0.75538849  0.10116676  0.95637132  1  -0.060697  0  -0.165775  -0.235714  0  3.959564  0
C  C60  1  0.46749240  0.44221171  0.91576248  1  0.513682  0  0.136954  0.225378  0  3.889521  0
C  C61  1  0.35653194  0.45631302  0.89890506  1  -0.022772  0  -0.166197  -0.237913  0  3.957082  0
C  C62  1  0.32548038  0.05776308  0.58424140  1  0.531002  0  0.133082  0.221614  0  3.890991  0
C  C63  1  0.21175704  0.04367090  0.60113500  1  -0.065883  0  -0.16534  -0.235464  0  3.959863  0
C  C64  1  0.11679020  0.05773652  0.91572114  1  0.498665  0  0.135606  0.223079  0  3.890033  0
C  C65  1  0.24461040  0.04362900  0.89883277  1  -0.060632  0  -0.1658  -0.235774  0  3.959574  0
C  C66  1  0.59018610  0.44228870  0.58432954  1  0.500802  0  0.132794  0.219195  0  3.894231  0
C  C67  1  0.68705685  0.45636053  0.60115937  1  -0.024524  0  -0.164103  -0.23445  0  3.959604  0
C  C68  1  0.67451959  0.41575896  0.94223763  1  0.530971  0  0.133111  0.221663  0  3.891045  0
C  C69  1  0.78824285  0.39886433  0.95632891  1  -0.065778  0  -0.165357  -0.235509  0  3.959942  0
C  C70  1  0.53250757  0.08423756  0.55778781  1  0.513887  0  0.136963  0.225425  0  3.889469  0
C  C71  1  0.64346726  0.10109569  0.54368696  1  -0.023  0  -0.166172  -0.237862  0  3.957046  0
C  C72  1  0.59018412  0.58432634  0.44229362  1  0.500638  0  0.132808  0.219255  0  3.894367  0
C  C73  1  0.68705503  0.60115773  0.45636415  1  -0.023317  0  -0.164116  -0.234461  0  3.959443  0
C  C74  1  0.11678881  0.91572616  0.05773116  1  0.498889  0  0.135675  0.223172  0  3.889949  0
C  C75  1  0.24460915  0.89883655  0.04362514  1  -0.060957  0  -0.165802  -0.235871  0  3.95967  0
C  C76  1  0.53250715  0.55778598  0.08423833  1  0.513925  0  0.13692  0.225295  0  3.889539  0
C  C77  1  0.64346975  0.54368466  0.10109362  1  -0.023057  0  -0.166217  -0.237968  0  3.957069  0
C  C78  1  0.67451654  0.94223943  0.41576050  1  0.53082  0  0.1331  0.221702  0  3.890968  0
C  C79  1  0.78823899  0.95633242  0.39886652  1  -0.065884  0  -0.165346  -0.235518  0  3.959917  0
C  C80  1  0.88321023  0.94226841  0.08427431  1  0.498702  0  0.135656  0.223114  0  3.889985  0
C  C81  1  0.75539061  0.95637432  0.10116377  1  -0.060641  0  -0.165832  -0.235885  0  3.959739  0
C  C82  1  0.40981688  0.55770657  0.41567423  1  0.500611  0  0.132778  0.219225  0  3.894311  0
C  C83  1  0.31294569  0.54363554  0.39884185  1  -0.023309  0  -0.164094  -0.234424  0  3.959374  0
C  C84  1  0.32548357  0.58423873  0.05776217  1  0.531134  0  0.133087  0.221637  0  3.891043  0
C  C85  1  0.21176116  0.60113255  0.04366871  1  -0.066167  0  -0.16535  -0.235523  0  3.95989  0
C  C86  1  0.46749305  0.91576093  0.44221412  1  0.51394  0  0.136922  0.225344  0  3.889541  0
C  C87  1  0.35653015  0.89890682  0.45631531  1  -0.023053  0  -0.16621  -0.237966  0  3.957114  0
C  C88  1  0.45411038  0.49309726  0.49310259  1  -0.033925  0  0.003242  -0.060156  0  3.996729  0
C  C89  1  0.23197069  0.50003842  0.50004131  1  0.011139  0  -0.163637  -0.120064  0  3.903801  0
C  C90  1  0.94033558  0.00686272  0.00685652  1  -0.009932  0  0.001484  -0.061363  0  3.990783  0
C  C91  1  0.73195949  0.00000390  0.00000246  1  -0.00138  0  -0.162829  -0.118267  0  3.903887  0
C  C92  1  0.44718709  0.50686747  0.99313750  1  -0.047644  0  0.000648  -0.063044  0  3.995407  0
C  C93  1  0.23192676  0.49995964  0.00006285  1  -0.013206  0  -0.16318  -0.119193  0  3.903281  0
C  C94  1  0.44718675  0.99313848  0.50686895  1  -0.047705  0  0.000667  -0.062919  0  3.9953  0
C  C95  1  0.23192250  0.00006551  0.49996161  1  -0.013357  0  -0.16317  -0.119187  0  3.903211  0
C  C96  1  0.05966490  0.99314301  0.99313676  1  0.054955  0  0.001489  -0.061362  0  3.990756  0
C  C97  1  0.26804090  0.99999780  0.99999550  1  -0.001224  0  -0.162832  -0.118191  0  3.903726  0
C  C98  1  0.54588997  0.50689801  0.50690295  1  0.044293  0  0.003198  -0.060228  0  3.996771  0
C  C99  1  0.76803002  0.49995846  0.49996133  1  0.011142  0  -0.16365  -0.120104  0  3.903806  0
C  C100  1  0.55281460  0.49313022  0.00686117  1  0.010781  0  0.000641  -0.06294  0  3.995412  0
C  C101  1  0.76807684  0.50003804  0.99993477  1  -0.0135  0  -0.163148  -0.119172  0  3.903196  0
C  C102  1  0.55281257  0.00686403  0.49313227  1  0.010826  0  0.000604  -0.063144  0  3.995447  0
C  C103  1  0.76807233  0.99993781  0.50004025  1  -0.013266  0  -0.163189  -0.119225  0  3.903341  0
I  I104  1  0.50000047  0.14642775  0.85357209  1  -0.469803  0  -0.231509  -0.386421  0  1.758396  0
I  I105  1  0.99999985  0.35358272  0.64641733  1  -0.46619  0  -0.230278  -0.384621  0  1.757907  0
I  I106  1  0.85356004  0.14648162  0.64648653  1  -0.46911  0  -0.230616  -0.385094  0  1.758266  0
I  I107  1  0.14644001  0.35351248  0.85351821  1  -0.469163  0  -0.230613  -0.385091  0  1.758285  0
I  I108  1  0.50000126  0.85356994  0.14642913  1  -0.469799  0  -0.231532  -0.386435  0  1.758421  0
I  I109  1  0.00000005  0.64641577  0.35358532  1  -0.466231  0  -0.230286  -0.384635  0  1.757747  0
I  I110  1  0.14644241  0.85351687  0.35350925  1  -0.469136  0  -0.230622  -0.385077  0  1.758239  0
I  I111  1  0.85355539  0.64649164  0.14648440  1  -0.469121  0  -0.230616  -0.385076  0  1.758263  0
N  N112  1  0.45371348  0.35773675  0.63054055  1  -0.708365  0  -0.246901  -0.137598  0  3.521273  0
N  N113  1  0.94199072  0.14225200  0.86946540  1  -0.709078  0  -0.247021  -0.13906  0  3.521985  0
N  N114  1  0.58423616  0.36945348  0.85777517  1  -0.728581  0  -0.248056  -0.140862  0  3.521497  0
N  N115  1  0.31145226  0.13057444  0.64219760  1  -0.722208  0  -0.244897  -0.135791  0  3.516898  0
N  N116  1  0.05800936  0.13053418  0.85774775  1  -0.731648  0  -0.24699  -0.139002  0  3.521972  0
N  N117  1  0.54628642  0.36946045  0.64226264  1  -0.732424  0  -0.246874  -0.137524  0  3.521274  0
N  N118  1  0.68854670  0.35780202  0.86942611  1  -0.722184  0  -0.24491  -0.135801  0  3.516842  0
N  N119  1  0.41576369  0.14222587  0.63054617  1  -0.728573  0  -0.24808  -0.140872  0  3.521486  0
N  N120  1  0.54628599  0.64225932  0.36946460  1  -0.708933  0  -0.246878  -0.137605  0  3.521388  0
N  N121  1  0.05800937  0.85775212  0.13052821  1  -0.731727  0  -0.247048  -0.13909  0  3.522085  0
N  N122  1  0.41576619  0.63054582  0.14222463  1  -0.728699  0  -0.247994  -0.140772  0  3.521476  0
N  N123  1  0.68854533  0.86942807  0.35780103  1  -0.722038  0  -0.244925  -0.135828  0  3.516854  0
N  N124  1  0.94198996  0.86947156  0.14224841  1  -0.708825  0  -0.247022  -0.138978  0  3.522045  0
N  N125  1  0.45371558  0.63053482  0.35774038  1  -0.732487  0  -0.246841  -0.137482  0  3.521311  0
N  N126  1  0.31145459  0.64219888  0.13057222  1  -0.722061  0  -0.244919  -0.135775  0  3.516853  0
N  N127  1  0.58423377  0.85777504  0.36945426  1  -0.728704  0  -0.247994  -0.140771  0  3.521444  0
