# generated using pymatgen
data_CdH11C15N7O3
_symmetry_space_group_name_H-M   'P 1'
_cell_length_a   8.13766280
_cell_length_b   11.08022218
_cell_length_c   17.04070000
_cell_angle_alpha   90.00000000
_cell_angle_beta   94.43415377
_cell_angle_gamma   90.00000000
_symmetry_Int_Tables_number   1
_chemical_formula_structural   CdH11C15N7O3
_chemical_formula_sum   'Cd4 H44 C60 N28 O12'
_cell_volume   1531.91168479
_cell_formula_units_Z   4
loop_
 _symmetry_equiv_pos_site_id
 _symmetry_equiv_pos_as_xyz
  1  'x, y, z'
loop_
 _atom_site_type_symbol
 _atom_site_label
 _atom_site_symmetry_multiplicity
 _atom_site_fract_x
 _atom_site_fract_y
 _atom_site_fract_z
 _atom_site_occupancy
 _atom_site_hle17_bader_spin_density
 _atom_site_hle17_ddec_charge
 _atom_site_hle17_ddec_spin_density
 _atom_site_hle17_ddec_sum_bond_order
 _atom_site_hle17_magmom
 _atom_site_hse06_10hf_bader_spin_density
 _atom_site_hse06_10hf_ddec_charge
 _atom_site_hse06_10hf_ddec_spin_density
 _atom_site_hse06_10hf_ddec_sum_bond_order
 _atom_site_hse06_10hf_magmom
 _atom_site_hse06_bader_spin_density
 _atom_site_hse06_ddec_charge
 _atom_site_hse06_ddec_spin_density
 _atom_site_hse06_ddec_sum_bond_order
 _atom_site_hse06_magmom
 _atom_site_pbe_bader_charge
 _atom_site_pbe_bader_spin_density
 _atom_site_pbe_cm5_charge
 _atom_site_pbe_ddec_charge
 _atom_site_pbe_ddec_spin_density
 _atom_site_pbe_ddec_sum_bond_order
 _atom_site_pbe_magmom
Cd  Cd0  1  0.76257328  0.64918915  0.18570440  1  0  1.013765  0  1.831938  0  0  0.811929  0  2.295939  0  0  0.864623  0  2.250761  0  1.252299  0  0.790654  0.774757  0  2.326748  0
Cd  Cd1  1  0.73742817  0.14918744  0.31429301  1  0  1.013724  0  1.831934  0  0  0.811901  0  2.295921  0  0  0.864598  0  2.250741  0  1.252299  0  0.790667  0.774728  0  2.32673  0
Cd  Cd2  1  0.23742727  0.35080975  0.81429386  1  0  1.013763  0  1.831945  0  0  0.811921  0  2.295942  0  0  0.864617  0  2.250765  0  1.252321  0  0.790663  0.774751  0  2.326752  0
Cd  Cd3  1  0.26256992  0.85081056  0.68570750  1  0  1.013749  0  1.831922  0  0  0.811927  0  2.295903  0  0  0.864623  0  2.250725  0  1.252309  0  0.790669  0.774753  0  2.326711  0
H  H4  1  0.38549516  0.90259833  0.96711369  1  0  0.108041  0  0.986521  0  0  0.112134  0  1.056861  0  0  0.11556  0  1.055736  0  0.11982  0  0.105317  0.109637  0  1.057834  0
H  H5  1  0.11450450  0.40259572  0.53288542  1  0  0.108091  0  0.98649  0  0  0.112196  0  1.056816  0  0  0.115623  0  1.055678  0  0.119856  0  0.105342  0.109701  0  1.057785  0
H  H6  1  0.61450663  0.09740599  0.03288520  1  0  0.108059  0  0.986547  0  0  0.112159  0  1.056869  0  0  0.115586  0  1.055741  0  0.119835  0  0.105333  0.109663  0  1.057842  0
H  H7  1  0.88549605  0.59740499  0.46711284  1  0  0.108059  0  0.986457  0  0  0.112152  0  1.056806  0  0  0.115576  0  1.05568  0  0.119837  0  0.10533  0.109655  0  1.05778  0
H  H8  1  0.15020142  0.85726530  0.18273188  1  0  0.110905  0  0.957968  0  0  0.11743  0  1.024411  0  0  0.120737  0  1.023058  0  0.113766  0  0.106846  0.115049  0  1.025538  0
H  H9  1  0.34979454  0.35726901  0.31726591  1  0  0.110851  0  0.957971  0  0  0.117398  0  1.024391  0  0  0.120702  0  1.023044  0  0.113926  0  0.106854  0.115018  0  1.025513  0
H  H10  1  0.84979790  0.14273541  0.81726692  1  0  0.11085  0  0.957978  0  0  0.117394  0  1.024401  0  0  0.120699  0  1.023053  0  0.113766  0  0.106841  0.115014  0  1.025525  0
H  H11  1  0.65020108  0.64272809  0.68273040  1  0  0.110899  0  0.957988  0  0  0.117428  0  1.024416  0  0  0.120733  0  1.023066  0  0.113933  0  0.106836  0.115044  0  1.025548  0
H  H12  1  0.14558554  0.93877811  0.04502310  1  0  0.109138  0  0.945255  0  0  0.117814  0  1.006988  0  0  0.120734  0  1.0049  0  0.16228  0  0.110024  0.11566  0  1.008565  0
H  H13  1  0.35441165  0.43878091  0.45497592  1  0  0.109144  0  0.945198  0  0  0.117817  0  1.00693  0  0  0.120749  0  1.004827  0  0.162293  0  0.110025  0.115664  0  1.008505  0
H  H14  1  0.85441624  0.06122170  0.95497697  1  0  0.109165  0  0.945203  0  0  0.117832  0  1.006948  0  0  0.120759  0  1.004851  0  0.162282  0  0.110035  0.115677  0  1.008525  0
H  H15  1  0.64558521  0.56121889  0.54502045  1  0  0.109194  0  0.945244  0  0  0.117829  0  1.00701  0  0  0.12076  0  1.004913  0  0.162232  0  0.110043  0.115677  0  1.008585  0
H  H16  1  0.06982234  0.71416077  0.91903670  1  0  0.113435  0  0.947822  0  0  0.121467  0  1.010702  0  0  0.124507  0  1.010023  0  0.121074  0  0.10893  0.119286  0  1.011329  0
H  H17  1  0.43017732  0.21416087  0.58095888  1  0  0.113438  0  0.947988  0  0  0.121492  0  1.010842  0  0  0.124525  0  1.01016  0  0.121085  0  0.108913  0.11931  0  1.011466  0
H  H18  1  0.93018191  0.28584084  0.08096404  1  0  0.113474  0  0.947801  0  0  0.1215  0  1.010681  0  0  0.124541  0  1.01  0  0.120934  0  0.108934  0.119319  0  1.011306  0
H  H19  1  0.56982324  0.78584255  0.41904172  1  0  0.11345  0  0.947878  0  0  0.121498  0  1.010735  0  0  0.124534  0  1.010058  0  0.121103  0  0.108891  0.119316  0  1.01136  0
H  H20  1  0.22268729  0.59098815  0.97758623  1  0  0.110531  0  0.990059  0  0  0.115158  0  1.061338  0  0  0.118803  0  1.059343  0  0.137779  0  0.101877  0.112568  0  1.062822  0
H  H21  1  0.27731114  0.09098644  0.52241107  1  0  0.110423  0  0.989938  0  0  0.115053  0  1.061239  0  0  0.118698  0  1.059242  0  0.137361  0  0.101831  0.112463  0  1.062728  0
H  H22  1  0.77731450  0.40901346  0.02241442  1  0  0.11053  0  0.990071  0  0  0.115156  0  1.061357  0  0  0.1188  0  1.059365  0  0.13776  0  0.101869  0.112568  0  1.062835  0
H  H23  1  0.72268695  0.90901517  0.47759003  1  0  0.110418  0  0.989897  0  0  0.115007  0  1.061252  0  0  0.118648  0  1.059261  0  0.137405  0  0.101814  0.112423  0  1.062721  0
H  H24  1  0.58125877  0.86439693  0.90667924  1  0  0.115866  0  0.963866  0  0  0.124694  0  1.025655  0  0  0.12806  0  1.024528  0  0.121767  0  0.108506  0.122278  0  1.02658  0
H  H25  1  0.91874268  0.36439432  0.59331993  1  0  0.115898  0  0.963779  0  0  0.124717  0  1.02558  0  0  0.128078  0  1.02446  0  0.121798  0  0.108528  0.122298  0  1.026504  0
H  H26  1  0.41874548  0.13560378  0.09331974  1  0  0.115845  0  0.963866  0  0  0.124682  0  1.025645  0  0  0.128034  0  1.024534  0  0.121761  0  0.10851  0.122266  0  1.026571  0
H  H27  1  0.08126034  0.63560458  0.40668018  1  0  0.115864  0  0.963953  0  0  0.12468  0  1.025732  0  0  0.128061  0  1.024587  0  0.121815  0  0.108499  0.122264  0  1.026657  0
H  H28  1  0.84696182  0.83054833  0.84670442  1  0  0.096725  0  0.958741  0  0  0.107255  0  1.019643  0  0  0.110447  0  1.016642  0  0.120942  0  0.107064  0.104752  0  1.022052  0
H  H29  1  0.65303839  0.33054572  0.65329471  1  0  0.096767  0  0.958671  0  0  0.107299  0  1.019587  0  0  0.110501  0  1.016573  0  0.121009  0  0.107091  0.104797  0  1.021994  0
H  H30  1  0.15304490  0.16945328  0.15329524  1  0  0.096763  0  0.95867  0  0  0.107282  0  1.019583  0  0  0.110477  0  1.01658  0  0.12097  0  0.107067  0.104779  0  1.021992  0
H  H31  1  0.34696463  0.66945228  0.34670775  1  0  0.096819  0  0.958723  0  0  0.107332  0  1.019637  0  0  0.110539  0  1.016617  0  0.121047  0  0.107096  0.10483  0  1.022043  0
H  H32  1  0.37310810  0.44881230  0.20717817  1  0  0.10345  0  0.989388  0  0  0.108694  0  1.058286  0  0  0.111448  0  1.057823  0  0.121464  0  0.105983  0.106708  0  1.058781  0
H  H33  1  0.12689279  0.94880859  0.29281805  1  0  0.103533  0  0.989233  0  0  0.108813  0  1.058102  0  0  0.111567  0  1.057637  0  0.121407  0  0.106006  0.106827  0  1.058598  0
H  H34  1  0.62688999  0.55118389  0.79282000  1  0  0.103445  0  0.989396  0  0  0.108685  0  1.05831  0  0  0.111439  0  1.057848  0  0.121476  0  0.105988  0.106701  0  1.058804  0
H  H35  1  0.87310406  0.05118850  0.70718359  1  0  0.103468  0  0.989275  0  0  0.108733  0  1.058171  0  0  0.111487  0  1.057709  0  0.121417  0  0.105978  0.106748  0  1.058667  0
H  H36  1  0.10330561  0.52139388  0.25242946  1  0  0.080349  0  0.947885  0  0  0.089827  0  1.010626  0  0  0.091721  0  1.009712  0  0.109251  0  0.114328  0.088426  0  1.011346  0
H  H37  1  0.39669405  0.02139217  0.24756730  1  0  0.080297  0  0.947928  0  0  0.089765  0  1.010683  0  0  0.091659  0  1.009769  0  0.10939  0  0.114307  0.088365  0  1.011404  0
H  H38  1  0.89669248  0.47860322  0.74757047  1  0  0.080376  0  0.947919  0  0  0.089849  0  1.010659  0  0  0.091742  0  1.009746  0  0.10949  0  0.114346  0.088449  0  1.011381  0
H  H39  1  0.60330404  0.97860312  0.75243439  1  0  0.080292  0  0.948014  0  0  0.089781  0  1.01075  0  0  0.091675  0  1.009831  0  0.109336  0  0.114284  0.08838  0  1.01147  0
H  H40  1  0.40510616  0.74789926  0.23736833  1  0  0.074473  0  0.958455  0  0  0.084349  0  1.022155  0  0  0.086359  0  1.020374  0  0.101802  0  0.113341  0.082878  0  1.023378  0
H  H41  1  0.09489351  0.24789936  0.26262901  1  0  0.074519  0  0.958414  0  0  0.084421  0  1.022084  0  0  0.086437  0  1.020305  0  0.101923  0  0.113354  0.082959  0  1.023283  0
H  H42  1  0.59489440  0.25210144  0.76263051  1  0  0.074515  0  0.958454  0  0  0.084413  0  1.022134  0  0  0.086424  0  1.020353  0  0.10195  0  0.113356  0.082948  0  1.023341  0
H  H43  1  0.90509965  0.75209683  0.73737015  1  0  0.074458  0  0.958389  0  0  0.084344  0  1.022102  0  0  0.086352  0  1.020324  0  0.101966  0  0.11335  0.082887  0  1.023284  0
H  H44  1  0.43069992  0.48346684  0.06678921  1  0  0.094282  0  0.942407  0  0  0.105617  0  1.001647  0  0  0.107926  0  1.000508  0  0.06969  0  0.105318  0.103918  0  1.002524  0
H  H45  1  0.06930098  0.98346223  0.43320760  1  0  0.094318  0  0.942454  0  0  0.105605  0  1.001731  0  0  0.107909  0  1.0006  0  0.069493  0  0.105342  0.103908  0  1.002602  0
H  H46  1  0.56929941  0.51653296  0.93321077  1  0  0.094254  0  0.94239  0  0  0.105647  0  1.001577  0  0  0.107951  0  1.000442  0  0.06982  0  0.10533  0.103948  0  1.002453  0
H  H47  1  0.93069465  0.01654028  0.56679400  1  0  0.094338  0  0.942491  0  0  0.10565  0  1.001744  0  0  0.10795  0  1.000613  0  0.069547  0  0.105397  0.103954  0  1.002614  0
C  C48  1  0.38631973  0.86762520  0.02682478  1  0  -0.137166  0  3.67873  0  0  -0.155413  0  3.928708  0  0  -0.162981  0  3.949988  0  -0.02014  0  -0.079457  -0.150432  0  3.914445  0
C  C49  1  0.11367377  0.36762259  0.47317410  1  0  -0.137243  0  3.678634  0  0  -0.155468  0  3.928634  0  0  -0.163045  0  3.949953  0  -0.019906  0  -0.079471  -0.150484  0  3.914364  0
C  C50  1  0.61368082  0.13237550  0.97317583  1  0  -0.137164  0  3.67871  0  0  -0.155407  0  3.928724  0  0  -0.162965  0  3.949983  0  -0.020113  0  -0.079469  -0.150426  0  3.914461  0
C  C51  1  0.88632063  0.63237811  0.52682570  1  0  -0.137168  0  3.678837  0  0  -0.155436  0  3.928822  0  0  -0.16301  0  3.95012  0  -0.020125  0  -0.079496  -0.150454  0  3.914557  0
C  C52  1  0.25513522  0.84530706  0.14745218  1  0  -0.114314  0  3.703812  0  0  -0.12601  0  3.954071  0  0  -0.13284  0  3.975291  0  -0.021406  0  -0.081576  -0.12162  0  3.939787  0
C  C53  1  0.24485828  0.34530986  0.35254612  1  0  -0.114232  0  3.703916  0  0  -0.125978  0  3.954244  0  0  -0.132808  0  3.975469  0  -0.02169  0  -0.081611  -0.121589  0  3.939959  0
C  C54  1  0.74486287  0.15469184  0.85254775  1  0  -0.114238  0  3.703806  0  0  -0.125953  0  3.954104  0  0  -0.132784  0  3.975329  0  -0.021456  0  -0.081595  -0.121563  0  3.939819  0
C  C55  1  0.75513488  0.65468994  0.64745422  1  0  -0.114331  0  3.703935  0  0  -0.12601  0  3.954207  0  0  -0.132839  0  3.975431  0  -0.021693  0  -0.081583  -0.121621  0  3.939923  0
C  C56  1  0.25185419  0.88901105  0.07068161  1  0  -0.000191  0  3.713242  0  0  -0.019801  0  3.965195  0  0  -0.016396  0  3.983862  0  -0.105369  0  -0.065017  -0.021724  0  3.952373  0
C  C57  1  0.24814670  0.38901476  0.42931461  1  0  -0.000139  0  3.712953  0  0  -0.019725  0  3.964901  0  0  -0.016331  0  3.983559  0  -0.105369  0  -0.064963  -0.02165  0  3.952082  0
C  C58  1  0.74814760  0.11098965  0.92931729  1  0  -0.000207  0  3.713173  0  0  -0.019805  0  3.965127  0  0  -0.016404  0  3.98379  0  -0.10532  0  -0.065005  -0.021728  0  3.952307  0
C  C59  1  0.75185262  0.61098594  0.57068008  1  0  -0.000276  0  3.713173  0  0  -0.019848  0  3.965135  0  0  -0.016456  0  3.983792  0  -0.105253  0  -0.065011  -0.021772  0  3.952312  0
C  C60  1  0.52087648  0.80194782  0.06053034  1  0  0.181392  0  3.74861  0  0  0.175471  0  3.991511  0  0  0.182534  0  4.010886  0  0.505933  0  0.122228  0.170743  0  3.978409  0
C  C61  1  0.97912127  0.30194611  0.43946811  1  0  0.181379  0  3.748613  0  0  0.17533  0  3.991703  0  0  0.182383  0  4.011096  0  0.50627  0  0.1222  0.170607  0  3.978592  0
C  C62  1  0.47912408  0.19805379  0.93946909  1  0  0.181388  0  3.748629  0  0  0.175403  0  3.991596  0  0  0.182472  0  4.010995  0  0.506381  0  0.122262  0.170676  0  3.978493  0
C  C63  1  0.02087559  0.69805279  0.56052943  1  0  0.181308  0  3.748551  0  0  0.175423  0  3.991444  0  0  0.182484  0  4.010822  0  0.506288  0  0.122197  0.170695  0  3.978341  0
C  C64  1  0.05545335  0.61799122  0.06974705  1  0  0.171978  0  3.757607  0  0  0.168938  0  3.994108  0  0  0.175146  0  4.015502  0  0.477274  0  0.120549  0.164809  0  3.979546  0
C  C65  1  0.44454631  0.11798861  0.43025030  1  0  0.171943  0  3.7575  0  0  0.168896  0  3.994083  0  0  0.175093  0  4.015497  0  0.476822  0  0.120561  0.164769  0  3.979522  0
C  C66  1  0.94454967  0.38201039  0.93025248  1  0  0.171981  0  3.757607  0  0  0.168901  0  3.994154  0  0  0.175099  0  4.015567  0  0.477347  0  0.120527  0.164773  0  3.979592  0
C  C67  1  0.55545178  0.88201029  0.56975139  1  0  0.171944  0  3.757438  0  0  0.168868  0  3.994056  0  0  0.175056  0  4.015484  0  0.476838  0  0.120544  0.16474  0  3.979495  0
C  C68  1  0.95473294  0.73085538  0.94576985  1  0  -0.121338  0  3.6619  0  0  -0.143834  0  3.91558  0  0  -0.149904  0  3.935996  0  0.050785  0  -0.073309  -0.139942  0  3.901901  0
C  C69  1  0.54526111  0.23085187  0.55422729  1  0  -0.121371  0  3.66175  0  0  -0.143881  0  3.91546  0  0  -0.149942  0  3.935869  0  0.050705  0  -0.073278  -0.139988  0  3.901778  0
C  C70  1  0.04527255  0.26914713  0.05423036  1  0  -0.121496  0  3.662062  0  0  -0.143982  0  3.915739  0  0  -0.150053  0  3.936156  0  0.051049  0  -0.073376  -0.140089  0  3.902061  0
C  C71  1  0.45473574  0.76914793  0.44577318  1  0  -0.121516  0  3.661781  0  0  -0.144016  0  3.915482  0  0  -0.150085  0  3.935897  0  0.050693  0  -0.073364  -0.140123  0  3.901801  0
C  C72  1  0.92953482  0.68850605  0.02137511  1  0  0.187572  0  3.761357  0  0  0.184956  0  4.000316  0  0  0.191634  0  4.020797  0  0.503814  0  0.126389  0.180502  0  3.986374  0
C  C73  1  0.57046909  0.18850164  0.47862063  1  0  0.18774  0  3.761294  0  0  0.185117  0  4.000305  0  0  0.191797  0  4.020783  0  0.504006  0  0.126508  0.180662  0  3.986363  0
C  C74  1  0.07046573  0.31149556  0.97862550  1  0  0.187668  0  3.76137  0  0  0.185067  0  4.000308  0  0  0.191749  0  4.020788  0  0.503628  0  0.126468  0.180612  0  3.986365  0
C  C75  1  0.42953147  0.81149817  0.52137997  1  0  0.187772  0  3.761181  0  0  0.185134  0  4.000207  0  0  0.191816  0  4.020688  0  0.504038  0  0.1265  0.180679  0  3.986261  0
C  C76  1  0.66713622  0.77557290  0.01630149  1  0  0.196954  0  3.754927  0  0  0.191075  0  3.999053  0  0  0.198728  0  4.01755  0  0.546686  0  0.128705  0.185914  0  3.986518  0
C  C77  1  0.83286646  0.27556668  0.48369891  1  0  0.197127  0  3.754536  0  0  0.191269  0  3.998705  0  0  0.198916  0  4.017215  0  0.545962  0  0.128751  0.186104  0  3.98617  0
C  C78  1  0.33286433  0.22443142  0.98369853  1  0  0.19698  0  3.754905  0  0  0.191144  0  3.999004  0  0  0.198754  0  4.017563  0  0.545912  0  0.128699  0.185982  0  3.986467  0
C  C79  1  0.16713656  0.72443403  0.51630179  1  0  0.197176  0  3.754691  0  0  0.19126  0  3.998831  0  0  0.198907  0  4.017343  0  0.546059  0  0.128803  0.186098  0  3.986294  0
C  C80  1  0.20030307  0.57664638  0.03918446  1  0  -0.143617  0  3.695015  0  0  -0.162829  0  3.946119  0  0  -0.169677  0  3.967499  0  -0.00523  0  -0.0826  -0.158362  0  3.931745  0
C  C81  1  0.29969906  0.07664287  0.46081239  1  0  -0.143597  0  3.694815  0  0  -0.162852  0  3.94601  0  0  -0.169695  0  3.967389  0  -0.004147  0  -0.082688  -0.15839  0  3.931634  0
C  C82  1  0.79969748  0.42335523  0.96081673  1  0  -0.143654  0  3.694846  0  0  -0.162868  0  3.946015  0  0  -0.169713  0  3.967396  0  -0.005173  0  -0.082588  -0.158402  0  3.931643  0
C  C83  1  0.70030027  0.92335874  0.53918993  1  0  -0.143474  0  3.694707  0  0  -0.162692  0  3.945938  0  0  -0.169532  0  3.967317  0  -0.004128  0  -0.082586  -0.158229  0  3.931567  0
C  C84  1  0.68115887  0.81591685  0.93908238  1  0  -0.128573  0  3.666242  0  0  -0.147302  0  3.911609  0  0  -0.154221  0  3.932271  0  -0.0063  0  -0.072433  -0.142776  0  3.897691  0
C  C85  1  0.81883395  0.31591244  0.56091706  1  0  -0.128652  0  3.666245  0  0  -0.147345  0  3.911616  0  0  -0.154257  0  3.932287  0  -0.006364  0  -0.072425  -0.142812  0  3.897691  0
C  C86  1  0.31884538  0.18408476  0.06091660  1  0  -0.12869  0  3.666113  0  0  -0.147444  0  3.91149  0  0  -0.154339  0  3.932172  0  -0.006286  0  -0.072514  -0.142918  0  3.897573  0
C  C87  1  0.18116167  0.68408466  0.43908278  1  0  -0.128678  0  3.666277  0  0  -0.147369  0  3.911617  0  0  -0.154296  0  3.932278  0  -0.006455  0  -0.072463  -0.142843  0  3.897698  0
C  C88  1  0.82812116  0.79473497  0.90479983  1  0  0.008259  0  3.716133  0  0  -0.012053  0  3.971472  0  0  -0.008582  0  3.988786  0  -0.183895  0  -0.063756  -0.014005  0  3.959709  0
C  C89  1  0.67188398  0.29473145  0.59519713  1  0  0.00818  0  3.716175  0  0  -0.012162  0  3.971567  0  0  -0.008698  0  3.988877  0  -0.183816  0  -0.063867  -0.014111  0  3.959796  0
C  C90  1  0.17187939  0.20526845  0.09520019  1  0  0.008364  0  3.715952  0  0  -0.011933  0  3.97126  0  0  -0.008463  0  3.988569  0  -0.183885  0  -0.063692  -0.013885  0  3.959497  0
C  C91  1  0.32812274  0.70526925  0.40480311  1  0  0.008221  0  3.716178  0  0  -0.012089  0  3.971519  0  0  -0.008631  0  3.98883  0  -0.183744  0  -0.063773  -0.014039  0  3.95975  0
C  C92  1  0.28460410  0.49507491  0.16673896  1  0  -0.115676  0  3.723017  0  0  -0.130168  0  3.979091  0  0  -0.136845  0  4.001545  0  -0.023355  0  -0.083782  -0.125885  0  3.964016  0
C  C93  1  0.21539679  0.99507030  0.33325843  1  0  -0.115767  0  3.723015  0  0  -0.130289  0  3.979026  0  0  -0.136965  0  4.001476  0  -0.02299  0  -0.083787  -0.126007  0  3.963954  0
C  C94  1  0.71539276  0.50492399  0.83326268  1  0  -0.115633  0  3.723047  0  0  -0.130115  0  3.979113  0  0  -0.136791  0  4.001566  0  -0.023398  0  -0.083758  -0.125833  0  3.964039  0
C  C95  1  0.78460253  0.00492860  0.66674331  1  0  -0.115535  0  3.722863  0  0  -0.130045  0  3.978883  0  0  -0.136719  0  4.001332  0  -0.023268  0  -0.083702  -0.125765  0  3.963814  0
C  C96  1  0.13607031  0.53609304  0.19226374  1  0  0.125953  0  3.714881  0  0  0.095843  0  3.965869  0  0  0.101851  0  3.984995  0  0.455846  0  0.047686  0.091977  0  3.952776  0
C  C97  1  0.36392812  0.03609133  0.30773298  1  0  0.12594  0  3.714728  0  0  0.095839  0  3.965728  0  0  0.101848  0  3.984852  0  0.455563  0  0.047658  0.09197  0  3.952638  0
C  C98  1  0.86392901  0.46390676  0.80773448  1  0  0.125885  0  3.714719  0  0  0.095769  0  3.965683  0  0  0.101778  0  3.984808  0  0.455485  0  0.047646  0.091901  0  3.952594  0
C  C99  1  0.63606997  0.96390666  0.69226988  1  0  0.125845  0  3.714805  0  0  0.095713  0  3.965805  0  0  0.101725  0  3.984927  0  0.455686  0  0.047643  0.091846  0  3.952715  0
C  C100  1  0.39492042  0.78295542  0.17748826  1  0  0.136864  0  3.715257  0  0  0.106858  0  3.96694  0  0  0.11378  0  3.985772  0  0.505101  0  0.049218  0.102463  0  3.954002  0
C  C101  1  0.10508541  0.28295823  0.32250931  1  0  0.136768  0  3.715212  0  0  0.106734  0  3.96688  0  0  0.113648  0  3.985718  0  0.504812  0  0.049211  0.102342  0  3.953947  0
C  C102  1  0.60508137  0.21704438  0.82250946  1  0  0.136752  0  3.715099  0  0  0.106712  0  3.966802  0  0  0.113629  0  3.985638  0  0.504865  0  0.049194  0.10232  0  3.953866  0
C  C103  1  0.89491392  0.71704068  0.67748831  1  0  0.136972  0  3.715271  0  0  0.106923  0  3.967002  0  0  0.113845  0  3.985833  0  0.504878  0  0.049241  0.102534  0  3.954069  0
C  C104  1  0.31589714  0.51524057  0.08851377  1  0  0.007026  0  3.713815  0  0  -0.013949  0  3.967965  0  0  -0.011298  0  3.987811  0  0.000152  0  -0.068465  -0.015408  0  3.954334  0
C  C105  1  0.18410375  0.01523616  0.41148244  1  0  0.007039  0  3.713815  0  0  -0.013851  0  3.967955  0  0  -0.011198  0  3.987795  0  -0.000385  0  -0.068374  -0.015312  0  3.95433  0
C  C106  1  0.68410342  0.48476104  0.91148331  1  0  0.007058  0  3.713793  0  0  -0.013978  0  3.967975  0  0  -0.011324  0  3.987821  0  1.2e-05  0  -0.068485  -0.015438  0  3.954348  0
C  C107  1  0.81589310  0.98476365  0.58852037  1  0  0.006872  0  3.713957  0  0  -0.014051  0  3.968136  0  0  -0.011391  0  3.987967  0  -0.000356  0  -0.068516  -0.015511  0  3.954512  0
N  N108  1  0.69101552  0.54341871  0.34054308  1  0  0.690267  0  4.133721  0  0  0.722266  0  4.428605  0  0  0.750577  0  4.435017  0  0.836141  0  0.09534  0.703104  0  4.423885  0
N  N109  1  0.80898347  0.04341068  0.15945601  1  0  0.690106  0  4.133588  0  0  0.722132  0  4.428477  0  0  0.750429  0  4.4349  0  0.836338  0  0.095334  0.70297  0  4.42376  0
N  N110  1  0.30898011  0.45658290  0.65945617  1  0  0.69011  0  4.133689  0  0  0.722127  0  4.428604  0  0  0.750433  0  4.43502  0  0.836162  0  0.09534  0.702963  0  4.423883  0
N  N111  1  0.19101709  0.95658732  0.84054519  1  0  0.690162  0  4.13354  0  0  0.72214  0  4.428473  0  0  0.750445  0  4.434892  0  0.836273  0  0.095329  0.702977  0  4.423755  0
N  N112  1  0.84081883  0.86996811  0.30696222  1  0  0.408031  0  4.252275  0  0  0.441033  0  4.531444  0  0  0.457942  0  4.561209  0  -0.330235  0  0.077853  0.429649  0  4.511323  0
N  N113  1  0.65918139  0.36996370  0.19303984  1  0  0.40799  0  4.252397  0  0  0.440979  0  4.531597  0  0  0.457889  0  4.561369  0  -0.330244  0  0.07785  0.429593  0  4.511471  0
N  N114  1  0.15918050  0.13003169  0.69303775  1  0  0.408105  0  4.252236  0  0  0.441121  0  4.531394  0  0  0.458031  0  4.56116  0  -0.330238  0  0.077864  0.429736  0  4.511271  0
N  N115  1  0.34081916  0.63003430  0.80696018  1  0  0.408055  0  4.252419  0  0  0.441057  0  4.531589  0  0  0.457968  0  4.561356  0  -0.330274  0  0.077867  0.429672  0  4.511463  0
N  N116  1  0.79351505  0.93974921  0.35299489  1  0  -0.510811  0  2.56346  0  0  -0.489548  0  2.832359  0  0  -0.505412  0  2.838593  0  -0.201331  0  -0.263478  -0.47852  0  2.828197  0
N  N117  1  0.70648763  0.43975291  0.14700433  1  0  -0.510894  0  2.563205  0  0  -0.489598  0  2.832117  0  0  -0.505473  0  2.838359  0  -0.201423  0  -0.263515  -0.478573  0  2.827972  0
N  N118  1  0.20648427  0.06024789  0.64700626  1  0  -0.510897  0  2.563461  0  0  -0.489643  0  2.832377  0  0  -0.505508  0  2.838608  0  -0.201329  0  -0.263513  -0.478615  0  2.828222  0
N  N119  1  0.29351292  0.56024508  0.85299510  1  0  -0.510908  0  2.563255  0  0  -0.48964  0  2.83217  0  0  -0.505515  0  2.838409  0  -0.201537  0  -0.263527  -0.478616  0  2.828026  0
N  N120  1  0.78892382  0.71251098  0.05458704  1  0  -0.368551  0  3.241792  0  0  -0.306076  0  3.496282  0  0  -0.324559  0  3.513938  0  -1.226165  0  -0.319874  -0.293363  0  3.484018  0
N  N121  1  0.71107146  0.21250657  0.44541132  1  0  -0.36873  0  3.24186  0  0  -0.306256  0  3.496382  0  0  -0.324737  0  3.51404  0  -1.225959  0  -0.320011  -0.293548  0  3.484133  0
N  N122  1  0.21107920  0.28749153  0.94541189  1  0  -0.368565  0  3.241769  0  0  -0.306099  0  3.496235  0  0  -0.324569  0  3.513909  0  -1.225864  0  -0.319901  -0.293392  0  3.483988  0
N  N123  1  0.28892293  0.78749323  0.55458906  1  0  -0.368656  0  3.241926  0  0  -0.30615  0  3.496415  0  0  -0.324633  0  3.514076  0  -1.226106  0  -0.319938  -0.293443  0  3.484167  0
N  N124  1  0.52382595  0.76103889  0.13526411  1  0  -0.352302  0  3.237895  0  0  -0.283021  0  3.497571  0  0  -0.302217  0  3.516568  0  -1.226616  0  -0.321949  -0.2699  0  3.484398  0
N  N125  1  0.97617426  0.26103899  0.36473443  1  0  -0.352248  0  3.237721  0  0  -0.282893  0  3.497397  0  0  -0.302088  0  3.516403  0  -1.226546  0  -0.321899  -0.269774  0  3.484222  0
N  N126  1  0.47617337  0.23896091  0.86473587  1  0  -0.352224  0  3.237775  0  0  -0.282896  0  3.497431  0  0  -0.302092  0  3.516435  0  -1.226597  0  -0.321924  -0.269775  0  3.484257  0
N  N127  1  0.02382013  0.73895991  0.63526653  1  0  -0.352282  0  3.237763  0  0  -0.283011  0  3.497453  0  0  -0.302209  0  3.516457  0  -1.226529  0  -0.321915  -0.269891  0  3.484279  0
N  N128  1  0.02493928  0.59588336  0.14510264  1  0  -0.344932  0  3.263156  0  0  -0.271873  0  3.516108  0  0  -0.291065  0  3.536122  0  -1.229562  0  -0.322044  -0.258677  0  3.502155  0
N  N129  1  0.47506161  0.09587985  0.35489475  1  0  -0.344869  0  3.262862  0  0  -0.271804  0  3.51583  0  0  -0.290995  0  3.53585  0  -1.229372  0  -0.322034  -0.258608  0  3.501876  0
N  N130  1  0.97506127  0.40411645  0.85489914  1  0  -0.344927  0  3.263159  0  0  -0.271816  0  3.51605  0  0  -0.291004  0  3.536064  0  -1.229417  0  -0.322026  -0.258619  0  3.502097  0
N  N131  1  0.52493648  0.90411725  0.64510635  1  0  -0.344905  0  3.2629  0  0  -0.271794  0  3.515833  0  0  -0.290983  0  3.535856  0  -1.229293  0  -0.32203  -0.258597  0  3.501878  0
N  N132  1  0.89479066  0.80161479  0.26213639  1  0  -0.495949  0  2.586626  0  0  -0.47684  0  2.867739  0  0  -0.4936  0  2.873717  0  -0.189303  0  -0.269507  -0.465279  0  2.863771  0
N  N133  1  0.60521325  0.30161760  0.23786229  1  0  -0.495813  0  2.587001  0  0  -0.476735  0  2.868145  0  0  -0.493487  0  2.874124  0  -0.189138  0  -0.269458  -0.465176  0  2.864176  0
N  N134  1  0.10520743  0.19838411  0.73786295  1  0  -0.495945  0  2.586608  0  0  -0.476855  0  2.867716  0  0  -0.493616  0  2.873698  0  -0.189261  0  -0.269488  -0.465296  0  2.86375  0
N  N135  1  0.39478607  0.69838130  0.76213886  1  0  -0.495869  0  2.586974  0  0  -0.476782  0  2.868105  0  0  -0.493536  0  2.874086  0  -0.189095  0  -0.269468  -0.465219  0  2.864136  0
O  O136  1  0.59190795  0.59738694  0.28862716  1  0  -0.51418  0  1.816628  0  0  -0.486809  0  2.054318  0  0  -0.507786  0  2.048341  0  -0.587379  0  -0.213608  -0.471947  0  2.058001  0
O  O137  1  0.90808980  0.09738433  0.21137070  1  0  -0.514108  0  1.816486  0  0  -0.486727  0  2.054173  0  0  -0.507693  0  2.048199  0  -0.587242  0  -0.213563  -0.471865  0  2.057853  0
O  O138  1  0.40809014  0.40261196  0.71137101  1  0  -0.514132  0  1.81656  0  0  -0.486752  0  2.054259  0  0  -0.507727  0  2.048283  0  -0.587289  0  -0.213574  -0.471889  0  2.057941  0
O  O139  1  0.09191075  0.90261277  0.78863049  1  0  -0.514101  0  1.816495  0  0  -0.486695  0  2.054195  0  0  -0.507669  0  2.048218  0  -0.587235  0  -0.213541  -0.471834  0  2.057875  0
O  O140  1  0.63580004  0.50002337  0.40072612  1  0  -0.419226  0  1.744454  0  0  -0.411079  0  1.952553  0  0  -0.423572  0  1.949189  0  -0.511493  0  -0.16846  -0.402238  0  1.954751  0
O  O141  1  0.86420510  0.00000181  0.09927788  1  0  -0.419169  0  1.744525  0  0  -0.41104  0  1.952648  0  0  -0.423563  0  1.949328  0  -0.51179  0  -0.168448  -0.40219  0  1.954824  0
O  O142  1  0.36420421  0.49998546  0.59927228  1  0  -0.419194  0  1.744294  0  0  -0.411093  0  1.952432  0  0  -0.423585  0  1.949067  0  -0.511599  0  -0.168514  -0.402259  0  1.954647  0
O  O143  1  0.13579669  0.99999078  0.90072629  1  0  -0.419195  0  1.744445  0  0  -0.411088  0  1.952616  0  0  -0.423585  0  1.94926  0  -0.511627  0  -0.168474  -0.402238  0  1.954793  0
O  O144  1  0.84267504  0.53739175  0.32814256  1  0  -0.478482  0  1.751346  0  0  -0.466198  0  1.971617  0  0  -0.482141  0  1.966942  0  -0.565916  0  -0.196879  -0.455003  0  1.974689  0
O  O145  1  0.65732395  0.03738824  0.17185417  1  0  -0.478386  0  1.751228  0  0  -0.466186  0  1.971605  0  0  -0.482118  0  1.966927  0  -0.565937  0  -0.196916  -0.454993  0  1.974677  0
O  O146  1  0.15732429  0.46261076  0.67185448  1  0  -0.47835  0  1.751441  0  0  -0.466113  0  1.971779  0  0  -0.482053  0  1.967102  0  -0.565914  0  -0.196856  -0.454916  0  1.974847  0
O  O147  1  0.34267537  0.96261247  0.82814639  1  0  -0.478401  0  1.751254  0  0  -0.466162  0  1.971615  0  0  -0.482102  0  1.966939  0  -0.566027  0  -0.196897  -0.454966  0  1.974684  0
