# generated using pymatgen
data_ZnH10C14(SN6)2
_symmetry_space_group_name_H-M   'P 1'
_cell_length_a   6.39793268
_cell_length_b   11.07786559
_cell_length_c   14.17812457
_cell_angle_alpha   90.00042927
_cell_angle_beta   94.30574985
_cell_angle_gamma   89.99986263
_symmetry_Int_Tables_number   1
_chemical_formula_structural   ZnH10C14(SN6)2
_chemical_formula_sum   'Zn2 H20 C28 S4 N24'
_cell_volume   1002.04462077
_cell_formula_units_Z   2
loop_
 _symmetry_equiv_pos_site_id
 _symmetry_equiv_pos_as_xyz
  1  'x, y, z'
loop_
 _atom_site_type_symbol
 _atom_site_label
 _atom_site_symmetry_multiplicity
 _atom_site_fract_x
 _atom_site_fract_y
 _atom_site_fract_z
 _atom_site_occupancy
 _atom_site_hle17_bader_spin_density
 _atom_site_hle17_ddec_charge
 _atom_site_hle17_ddec_spin_density
 _atom_site_hle17_ddec_sum_bond_order
 _atom_site_hle17_magmom
 _atom_site_hse06_10hf_bader_spin_density
 _atom_site_hse06_10hf_ddec_charge
 _atom_site_hse06_10hf_ddec_spin_density
 _atom_site_hse06_10hf_ddec_sum_bond_order
 _atom_site_hse06_10hf_magmom
 _atom_site_hse06_bader_spin_density
 _atom_site_hse06_ddec_charge
 _atom_site_hse06_ddec_spin_density
 _atom_site_hse06_ddec_sum_bond_order
 _atom_site_hse06_magmom
 _atom_site_pbe_bader_spin_density
 _atom_site_pbe_cm5_charge
 _atom_site_pbe_ddec_charge
 _atom_site_pbe_ddec_spin_density
 _atom_site_pbe_ddec_sum_bond_order
 _atom_site_pbe_magmom
Zn  Zn0  1  0.49998070  0.50000536  0.49999592  1  0  0.926634  0  2.061948  0  0  0.738115  0  2.518244  0  0  0.779445  0  2.476591  0  0  0.713464  0.709695  0  2.54636  0
Zn  Zn1  1  0.00001400  0.00000271  0.00000273  1  0  0.926642  0  2.061918  0  0  0.738145  0  2.518211  0  0  0.779472  0  2.476559  0  0  0.713492  0.709727  0  2.54633  0
H  H2  1  0.02410447  0.96963248  0.25507308  1  0  0.10742  0  0.947493  0  0  0.110837  0  1.023052  0  0  0.113748  0  1.017657  0  0  0.138352  0.108464  0  1.026439  0
H  H3  1  0.47590082  0.46963595  0.24492545  1  0  0.107373  0  0.947427  0  0  0.110783  0  1.023016  0  0  0.113692  0  1.01762  0  0  0.138359  0.108409  0  1.026403  0
H  H4  1  0.97591603  0.03035839  0.74493053  1  0  0.107451  0  0.947467  0  0  0.110829  0  1.023069  0  0  0.11374  0  1.01767  0  0  0.138364  0.108456  0  1.026459  0
H  H5  1  0.52409652  0.53036845  0.75507009  1  0  0.107473  0  0.947471  0  0  0.110864  0  1.023059  0  0  0.113773  0  1.017664  0  0  0.138381  0.10849  0  1.026449  0
H  H6  1  0.63461052  0.81364371  0.03624825  1  0  0.094702  0  0.948683  0  0  0.10401  0  1.007971  0  0  0.10515  0  1.007595  0  0  0.132403  0.102967  0  1.008464  0
H  H7  1  0.86536559  0.31363438  0.46375460  1  0  0.09472  0  0.948648  0  0  0.104015  0  1.00795  0  0  0.10516  0  1.007578  0  0  0.132414  0.102969  0  1.008452  0
H  H8  1  0.36538034  0.18637695  0.96375123  1  0  0.094809  0  0.948724  0  0  0.104119  0  1.008  0  0  0.105265  0  1.007625  0  0  0.132482  0.103102  0  1.008467  0
H  H9  1  0.13460616  0.68637183  0.53625040  1  0  0.0948  0  0.948541  0  0  0.103984  0  1.007965  0  0  0.105208  0  1.007495  0  0  0.132415  0.102935  0  1.008461  0
H  H10  1  0.56644772  0.65377076  0.32025992  1  0  0.106908  0  0.960848  0  0  0.108192  0  1.034106  0  0  0.111316  0  1.031673  0  0  0.12317  0.105702  0  1.036414  0
H  H11  1  0.93355846  0.15376703  0.17973369  1  0  0.106793  0  0.960856  0  0  0.108108  0  1.034127  0  0  0.11123  0  1.031695  0  0  0.123132  0.105619  0  1.036432  0
H  H12  1  0.43355275  0.34623003  0.67973576  1  0  0.106774  0  0.960857  0  0  0.108085  0  1.034086  0  0  0.111208  0  1.031655  0  0  0.123108  0.105598  0  1.036394  0
H  H13  1  0.06645577  0.84622925  0.82026964  1  0  0.106668  0  0.960919  0  0  0.107978  0  1.034202  0  0  0.1111  0  1.031768  0  0  0.123075  0.10549  0  1.036509  0
H  H14  1  0.90579268  0.92105999  0.55722236  1  0  0.092748  0  0.94808  0  0  0.091814  0  1.02193  0  0  0.095561  0  1.019036  0  0  0.115641  0.089008  0  1.024312  0
H  H15  1  0.59420426  0.42106196  0.94278057  1  0  0.092715  0  0.948104  0  0  0.091776  0  1.021984  0  0  0.095526  0  1.019088  0  0  0.115619  0.08897  0  1.024366  0
H  H16  1  0.09419021  0.07893990  0.44277960  1  0  0.092763  0  0.948108  0  0  0.09184  0  1.02194  0  0  0.095553  0  1.019077  0  0  0.115643  0.089035  0  1.024315  0
H  H17  1  0.40581000  0.57893342  0.05722205  1  0  0.09275  0  0.948119  0  0  0.091809  0  1.021968  0  0  0.095538  0  1.019088  0  0  0.115653  0.089004  0  1.024341  0
H  H18  1  0.71878750  0.73252685  0.60473893  1  0  0.097519  0  0.952289  0  0  0.098261  0  1.025298  0  0  0.101349  0  1.023938  0  0  0.11446  0.095861  0  1.026759  0
H  H19  1  0.78119988  0.23252427  0.89525785  1  0  0.097563  0  0.952226  0  0  0.098274  0  1.025258  0  0  0.101363  0  1.023897  0  0  0.114472  0.095875  0  1.026724  0
H  H20  1  0.28118302  0.26747034  0.39525896  1  0  0.097644  0  0.952236  0  0  0.098358  0  1.025302  0  0  0.101449  0  1.023939  0  0  0.114485  0.095959  0  1.026757  0
H  H21  1  0.21881438  0.76747471  0.10474477  1  0  0.097643  0  0.952238  0  0  0.098375  0  1.025268  0  0  0.10147  0  1.023898  0  0  0.114477  0.095981  0  1.026722  0
C  C22  1  0.90437554  0.91800672  0.21443039  1  0  0.207872  0  3.598696  0  0  0.126185  0  3.871471  0  0  0.15353  0  3.88346  0  0  0.175471  0.115901  0  3.865585  0
C  C23  1  0.59562716  0.41800382  0.28556926  1  0  0.208128  0  3.598811  0  0  0.126414  0  3.87157  0  0  0.153802  0  3.88356  0  0  0.175576  0.116131  0  3.865682  0
C  C24  1  0.09564502  0.08198866  0.78557181  1  0  0.207866  0  3.598611  0  0  0.126253  0  3.871234  0  0  0.153622  0  3.88322  0  0  0.175451  0.115971  0  3.865351  0
C  C25  1  0.40436538  0.58199607  0.71442818  1  0  0.207844  0  3.598508  0  0  0.126173  0  3.871246  0  0  0.153539  0  3.883224  0  0  0.175464  0.115889  0  3.865363  0
C  C26  1  0.70406059  0.83434450  0.10637175  1  0  0.220889  0  3.686067  0  0  0.166424  0  3.975338  0  0  0.178314  0  3.984754  0  0  0.153673  0.15936  0  3.965998  0
C  C27  1  0.79592242  0.33433687  0.39363039  1  0  0.22089  0  3.686231  0  0  0.166447  0  3.9755  0  0  0.17833  0  3.98491  0  0  0.153632  0.159377  0  3.966165  0
C  C28  1  0.29593950  0.16566893  0.89363167  1  0  0.220767  0  3.685792  0  0  0.166273  0  3.97507  0  0  0.178153  0  3.984481  0  0  0.153571  0.159184  0  3.965726  0
C  C29  1  0.20405417  0.66566573  0.60637200  1  0  0.220835  0  3.685715  0  0  0.166449  0  3.974998  0  0  0.17827  0  3.984368  0  0  0.153645  0.159389  0  3.965664  0
C  C30  1  0.64440700  0.71120668  0.37409837  1  0  0.029962  0  3.634199  0  0  -0.007798  0  3.89129  0  0  -0.006048  0  3.904441  0  0  0.063133  -0.009212  0  3.881298  0
C  C31  1  0.85559323  0.21120523  0.12589660  1  0  0.030298  0  3.633677  0  0  -0.007508  0  3.890788  0  0  -0.005764  0  3.903912  0  0  0.063205  -0.008922  0  3.880799  0
C  C32  1  0.35559191  0.28879231  0.62589723  1  0  0.030202  0  3.633962  0  0  -0.00752  0  3.890984  0  0  -0.005777  0  3.904124  0  0  0.06324  -0.008932  0  3.880993  0
C  C33  1  0.14441309  0.78879106  0.87410779  1  0  0.030444  0  3.633764  0  0  -0.007283  0  3.890693  0  0  -0.005538  0  3.903849  0  0  0.063286  -0.008697  0  3.880694  0
C  C34  1  0.75465142  0.81406849  0.34958898  1  0  0.28958  0  3.790443  0  0  0.254511  0  4.055475  0  0  0.274577  0  4.072086  0  0  0.239311  0.248278  0  4.044692  0
C  C35  1  0.74535149  0.31406897  0.15041155  1  0  0.289358  0  3.790359  0  0  0.254335  0  4.055336  0  0  0.274437  0  4.071949  0  0  0.239231  0.248107  0  4.04455  0
C  C36  1  0.24535512  0.18592418  0.65041119  1  0  0.289422  0  3.790602  0  0  0.254367  0  4.055599  0  0  0.274452  0  4.072216  0  0  0.23938  0.248136  0  4.044816  0
C  C37  1  0.25465177  0.68592551  0.84959130  1  0  0.289402  0  3.790307  0  0  0.254415  0  4.055245  0  0  0.274505  0  4.071835  0  0  0.239425  0.248186  0  4.04446  0
C  C38  1  0.83194871  0.86019473  0.50404160  1  0  0.087893  0  3.677029  0  0  0.070137  0  3.929574  0  0  0.071756  0  3.946439  0  0  0.056458  0.068757  0  3.918883  0
C  C39  1  0.66804811  0.36019529  0.99595881  1  0  0.087914  0  3.677096  0  0  0.070106  0  3.929677  0  0  0.07172  0  3.946546  0  0  0.056457  0.068724  0  3.918992  0
C  C40  1  0.16803111  0.13980426  0.49595881  1  0  0.087869  0  3.677055  0  0  0.070148  0  3.929513  0  0  0.071801  0  3.946391  0  0  0.056475  0.068776  0  3.918809  0
C  C41  1  0.33196775  0.63980279  0.00404318  1  0  0.087918  0  3.677261  0  0  0.0702  0  3.929744  0  0  0.071838  0  3.946618  0  0  0.056454  0.068831  0  3.919036  0
C  C42  1  0.72680470  0.75648526  0.53057679  1  0  0.073532  0  3.652917  0  0  0.044455  0  3.902307  0  0  0.045951  0  3.921297  0  0  0.051867  0.043038  0  3.890508  0
C  C43  1  0.77318943  0.25648484  0.96941944  1  0  0.073503  0  3.652783  0  0  0.044519  0  3.902154  0  0  0.046004  0  3.921135  0  0  0.051865  0.043116  0  3.890338  0
C  C44  1  0.27317049  0.24351554  0.46942201  1  0  0.073259  0  3.652819  0  0  0.044171  0  3.90222  0  0  0.045658  0  3.921194  0  0  0.051809  0.04274  0  3.890453  0
C  C45  1  0.22682644  0.74351234  0.03058255  1  0  0.073144  0  3.652934  0  0  0.04405  0  3.902336  0  0  0.045547  0  3.921318  0  0  0.051774  0.042596  0  3.890602  0
C  C46  1  0.16028031  0.55879368  0.33552405  1  0  0.294372  0  4.060076  0  0  0.280452  0  4.358667  0  0  0.303228  0  4.373111  0  0  0.128114  0.264905  0  4.348449  0
C  C47  1  0.33971011  0.05879842  0.16447258  1  0  0.294381  0  4.060048  0  0  0.28047  0  4.358632  0  0  0.303253  0  4.373076  0  0  0.128093  0.264924  0  4.348416  0
C  C48  1  0.83969665  0.44120622  0.66447059  1  0  0.294429  0  4.060011  0  0  0.280539  0  4.358578  0  0  0.303318  0  4.373022  0  0  0.128157  0.264988  0  4.348364  0
C  C49  1  0.66032132  0.94119967  0.83553221  1  0  0.294608  0  4.060163  0  0  0.280721  0  4.358701  0  0  0.3035  0  4.373139  0  0  0.12815  0.26517  0  4.348493  0
S  S50  1  0.06340008  0.57956578  0.22819144  1  0  -0.368012  0  2.001019  0  0  -0.361641  0  2.28348  0  0  -0.376943  0  2.281032  0  0  -0.195765  -0.349987  0  2.284075  0
S  S51  1  0.43659114  0.07956771  0.27180068  1  0  -0.367982  0  2.00127  0  0  -0.36162  0  2.283743  0  0  -0.376922  0  2.281293  0  0  -0.195756  -0.349969  0  2.284339  0
S  S52  1  0.93658830  0.42042779  0.77179453  1  0  -0.367991  0  2.001134  0  0  -0.361647  0  2.283593  0  0  -0.376937  0  2.281133  0  0  -0.195789  -0.349997  0  2.284193  0
S  S53  1  0.56344036  0.92042857  0.72820270  1  0  -0.368084  0  2.001058  0  0  -0.361759  0  2.283547  0  0  -0.37705  0  2.281083  0  0  -0.195796  -0.350103  0  2.284146  0
N  N54  1  0.63507661  0.68209598  0.46503499  1  0  -0.237088  0  3.242158  0  0  -0.165283  0  3.496637  0  0  -0.178008  0  3.515514  0  0  -0.289746  -0.15669  0  3.484332  0
N  N55  1  0.86492027  0.18209442  0.03496041  1  0  -0.237197  0  3.241905  0  0  -0.165477  0  3.496503  0  0  -0.178166  0  3.515351  0  0  -0.289788  -0.156894  0  3.48421  0
N  N56  1  0.36490499  0.31790662  0.53496127  1  0  -0.237154  0  3.241965  0  0  -0.16544  0  3.496575  0  0  -0.17814  0  3.515435  0  0  -0.289858  -0.156847  0  3.484269  0
N  N57  1  0.13509712  0.81790457  0.96504235  1  0  -0.237129  0  3.241905  0  0  -0.1654  0  3.496513  0  0  -0.178131  0  3.515396  0  0  -0.289826  -0.156793  0  3.484196  0
N  N58  1  0.84943873  0.88860320  0.41291758  1  0  -0.312125  0  3.01866  0  0  -0.283218  0  3.281496  0  0  -0.291154  0  3.290421  0  0  -0.292363  -0.277559  0  3.27295  0
N  N59  1  0.65056687  0.38860359  0.08708347  1  0  -0.312052  0  3.0187  0  0  -0.28314  0  3.281519  0  0  -0.291081  0  3.290444  0  0  -0.292293  -0.277482  0  3.272974  0
N  N60  1  0.15056303  0.11139218  0.58708379  1  0  -0.311919  0  3.018664  0  0  -0.283053  0  3.281492  0  0  -0.290989  0  3.290402  0  0  -0.292364  -0.277392  0  3.272941  0
N  N61  1  0.34944579  0.61139269  0.91291979  1  0  -0.311994  0  3.01869  0  0  -0.283148  0  3.281499  0  0  -0.291092  0  3.290416  0  0  -0.2924  -0.277486  0  3.272945  0
N  N62  1  0.64227698  0.78633212  0.18484673  1  0  -0.262259  0  2.871948  0  0  -0.263817  0  3.145636  0  0  -0.261531  0  3.165706  0  0  -0.214413  -0.257994  0  3.135864  0
N  N63  1  0.85771304  0.28632353  0.31515529  1  0  -0.26229  0  2.872093  0  0  -0.263887  0  3.145754  0  0  -0.261564  0  3.165837  0  0  -0.214451  -0.258063  0  3.135982  0
N  N64  1  0.35772652  0.21367589  0.81515119  1  0  -0.262234  0  2.871766  0  0  -0.263828  0  3.145468  0  0  -0.261516  0  3.165544  0  0  -0.214436  -0.258008  0  3.135711  0
N  N65  1  0.14227594  0.71367727  0.68485046  1  0  -0.262305  0  2.871858  0  0  -0.263882  0  3.145534  0  0  -0.261582  0  3.165632  0  0  -0.214442  -0.258061  0  3.135765  0
N  N66  1  0.86485461  0.91541513  0.12089200  1  0  -0.386994  0  3.191341  0  0  -0.315042  0  3.481171  0  0  -0.335594  0  3.490714  0  0  -0.32811  -0.300986  0  3.471395  0
N  N67  1  0.63513415  0.41541119  0.37910620  1  0  -0.387131  0  3.191652  0  0  -0.315214  0  3.481549  0  0  -0.335768  0  3.491081  0  0  -0.328178  -0.301155  0  3.471769  0
N  N68  1  0.13515498  0.08459017  0.87910972  1  0  -0.38701  0  3.191171  0  0  -0.315069  0  3.481044  0  0  -0.335628  0  3.490589  0  0  -0.328064  -0.301009  0  3.471266  0
N  N69  1  0.36484278  0.58459051  0.62088915  1  0  -0.387054  0  3.191199  0  0  -0.315098  0  3.481066  0  0  -0.335662  0  3.490633  0  0  -0.328097  -0.301035  0  3.471275  0
N  N70  1  0.77085990  0.84100210  0.25337025  1  0  -0.023944  0  3.633402  0  0  0.090656  0  3.81457  0  0  0.044577  0  3.880343  0  0  -0.115535  0.098773  0  3.798302  0
N  N71  1  0.72914011  0.34099862  0.24663086  1  0  -0.023959  0  3.633532  0  0  0.090733  0  3.814557  0  0  0.044552  0  3.880427  0  0  -0.115454  0.098845  0  3.798295  0
N  N72  1  0.22915606  0.15899328  0.74662963  1  0  -0.023884  0  3.633458  0  0  0.090733  0  3.814545  0  0  0.044597  0  3.880378  0  0  -0.115487  0.098848  0  3.798282  0
N  N73  1  0.27085214  0.65899947  0.75337221  1  0  -0.023808  0  3.633325  0  0  0.090765  0  3.814451  0  0  0.044649  0  3.880256  0  0  -0.115479  0.098877  0  3.798191  0
N  N74  1  0.23306027  0.54274164  0.41433999  1  0  -0.576307  0  2.942931  0  0  -0.51812  0  3.226078  0  0  -0.539448  0  3.230939  0  0  -0.412897  -0.503362  0  3.22254  0
N  N75  1  0.26693273  0.04274499  0.08565167  1  0  -0.576331  0  2.942733  0  0  -0.51819  0  3.225946  0  0  -0.539519  0  3.230798  0  0  -0.412856  -0.50343  0  3.222412  0
N  N76  1  0.76690437  0.45726637  0.58564988  1  0  -0.576393  0  2.94282  0  0  -0.518243  0  3.225976  0  0  -0.539572  0  3.230827  0  0  -0.412904  -0.50348  0  3.222442  0
N  N77  1  0.73309417  0.95726122  0.91434939  1  0  -0.576464  0  2.943  0  0  -0.518348  0  3.226197  0  0  -0.539672  0  3.231042  0  0  -0.412883  -0.503588  0  3.22267  0
