# generated using pymatgen
data_ZnH13C21N7O8
_symmetry_space_group_name_H-M   'P 1'
_cell_length_a   17.12878838
_cell_length_b   16.60140133
_cell_length_c   17.88360831
_cell_angle_alpha   90.08590018
_cell_angle_beta   88.79166171
_cell_angle_gamma   88.58527978
_symmetry_Int_Tables_number   1
_chemical_formula_structural   ZnH13C21N7O8
_chemical_formula_sum   'Zn2 H26 C42 N14 O16'
_cell_volume   5082.72561800
_cell_formula_units_Z   2
loop_
 _symmetry_equiv_pos_site_id
 _symmetry_equiv_pos_as_xyz
  1  'x, y, z'
loop_
 _atom_site_type_symbol
 _atom_site_label
 _atom_site_symmetry_multiplicity
 _atom_site_fract_x
 _atom_site_fract_y
 _atom_site_fract_z
 _atom_site_occupancy
 _atom_site_pbe_bader_charge
 _atom_site_pbe_bader_spin_density
 _atom_site_pbe_cm5_charge
 _atom_site_pbe_ddec_charge
 _atom_site_pbe_ddec_spin_density
 _atom_site_pbe_ddec_sum_bond_order
 _atom_site_pbe_magmom
Zn  Zn0  1  0.50421613  0.58371934  0.49974165  1  1.310267  0  0.676907  0.84485  0  2.38399  0
Zn  Zn1  1  0.49230903  0.41515763  0.50006176  1  1.307572  0  0.677341  0.844377  0  2.385677  0
H  H2  1  0.10672859  0.63698064  0.56302985  1  0.053527  0  0.097573  0.103958  0  1.00871  0
H  H3  1  0.89110196  0.36186682  0.44299108  1  0.051057  0  0.097511  0.104082  0  1.00897  0
H  H4  1  0.25280947  0.64105994  0.55123539  1  0.053153  0  0.094747  0.102964  0  1.012724  0
H  H5  1  0.74481350  0.35845117  0.45230701  1  0.069572  0  0.094198  0.102403  0  1.014058  0
H  H6  1  0.47510676  0.62109548  0.26808861  1  0.13545  0  0.11905  0.137034  0  0.99967  0
H  H7  1  0.53574068  0.37582489  0.72854127  1  0.148968  0  0.119214  0.137004  0  0.998057  0
H  H8  1  0.54503536  0.37114179  0.25344718  1  0.101119  0  0.107073  0.107597  0  0.996151  0
H  H9  1  0.47128695  0.62677925  0.74857404  1  0.071264  0  0.10667  0.107456  0  0.997635  0
H  H10  1  0.54859351  0.38098892  0.11345681  1  0.094284  0  0.116881  0.128072  0  0.971557  0
H  H11  1  0.48199735  0.61708447  0.88804763  1  0.125463  0  0.116838  0.128987  0  0.972023  0
H  H12  1  0.45621627  0.70884639  0.59443494  1  0.153723  0  0.132561  0.124729  0  0.991759  0
H  H13  1  0.54748866  0.28896334  0.40988121  1  0.140694  0  0.132558  0.124314  0  0.98985  0
H  H14  1  0.57735907  0.86847421  0.39391359  1  0.142951  0  0.127297  0.148673  0  0.974602  0
H  H15  1  0.42413279  0.13162734  0.61078284  1  0.156743  0  0.127597  0.148599  0  0.974876  0
H  H16  1  0.75740069  0.60348093  0.64304345  1  0.424087  0  0.297266  0.283915  0  0.959578  0
H  H17  1  0.67625138  0.59076436  0.59037608  1  0.486548  0  0.290486  0.302523  0  0.990456  0
H  H18  1  0.23744097  0.39653014  0.35993256  1  0.418586  0  0.297682  0.284344  0  0.959906  0
H  H19  1  0.31967518  0.40945360  0.41110666  1  0.489823  0  0.291236  0.303445  0  0.988697  0
H  H20  1  0.95101061  0.59626483  0.57067148  1  0.527722  0  0.287049  0.262821  0  1.066601  0
H  H21  1  0.86024326  0.64534975  0.59015193  1  0.434724  0  0.298156  0.284888  0  0.968375  0
H  H22  1  0.13625044  0.35400511  0.41501859  1  0.439137  0  0.297896  0.284918  0  0.96742  0
H  H23  1  0.04551396  0.40261556  0.43582543  1  0.481623  0  0.286886  0.262275  0  1.068606  0
H  H24  1  0.43435808  0.92873507  0.62007429  1  0.47573  0  0.322217  0.318515  0  0.936569  0
H  H25  1  0.41347136  0.83491251  0.65742237  1  0.471034  0  0.337921  0.334624  0  0.900826  0
H  H26  1  0.57860603  0.06902276  0.39223502  1  0.446028  0  0.32185  0.317756  0  0.936924  0
H  H27  1  0.59785146  0.16222198  0.35269551  1  0.479589  0  0.338023  0.335193  0  0.900867  0
C  C28  1  0.49402298  0.50692265  0.64676923  1  1.601722  0  0.216629  0.597959  0  4.167482  0
C  C29  1  0.50823107  0.49015975  0.35326351  1  1.609187  0  0.216471  0.597671  0  4.165324  0
C  C30  1  0.34994891  0.53234657  0.48797512  1  1.557186  0  0.214777  0.613163  0  4.130058  0
C  C31  1  0.64708497  0.46797930  0.51291644  1  1.481343  0  0.213735  0.610891  0  4.134094  0
C  C32  1  0.26338062  0.53146612  0.48697462  1  -0.00723  0  -0.030733  -0.135168  0  3.96598  0
C  C33  1  0.73355096  0.46850434  0.51568776  1  0.033796  0  -0.031115  -0.134419  0  3.966197  0
C  C34  1  0.22361967  0.46948030  0.45108069  1  0.416566  0  0.090886  0.188691  0  4.015673  0
C  C35  1  0.77282960  0.53036192  0.55227211  1  0.422767  0  0.090296  0.186971  0  4.016055  0
C  C36  1  0.14040806  0.46730490  0.45689151  1  0.488245  0  0.102443  0.154093  0  3.997869  0
C  C37  1  0.85613888  0.53205532  0.54810506  1  0.469419  0  0.102913  0.154981  0  3.998724  0
C  C38  1  0.09857566  0.52738411  0.49940241  1  0.380556  0  0.078323  0.080875  0  4.054924  0
C  C39  1  0.89844353  0.47161332  0.50646482  1  0.39908  0  0.078422  0.081148  0  4.056017  0
C  C40  1  0.14024161  0.59105696  0.53167020  1  -0.059856  0  -0.110638  -0.184099  0  4.085402  0
C  C41  1  0.85717961  0.40794901  0.47372544  1  -0.084341  0  -0.110767  -0.184584  0  4.088274  0
C  C42  1  0.22037052  0.59309473  0.52552358  1  -0.002549  0  -0.110922  -0.117441  0  4.091352  0
C  C43  1  0.77700206  0.40638454  0.47832461  1  0.049181  0  -0.111823  -0.118545  0  4.094396  0
C  C44  1  0.49118572  0.57311564  0.15712215  1  0.21489  0  0.084572  0.024004  0  3.861656  0
C  C45  1  0.53295704  0.42436753  0.84003354  1  0.171575  0  0.083998  0.023381  0  3.864625  0
C  C46  1  0.49084092  0.56813833  0.23470423  1  0.05487  0  -0.065456  -0.118724  0  3.930673  0
C  C47  1  0.52453444  0.42905835  0.76299603  1  0.104918  0  -0.065002  -0.116957  0  3.929025  0
C  C48  1  0.51001004  0.49531287  0.26949605  1  -0.035209  0  -0.006447  -0.010223  0  3.94103  0
C  C49  1  0.50220954  0.50197185  0.72999630  1  -0.039946  0  -0.00825  -0.013995  0  3.943964  0
C  C50  1  0.53032017  0.42763532  0.22554208  1  -0.035058  0  -0.071956  -0.076091  0  3.97759  0
C  C51  1  0.48804281  0.57012766  0.77521832  1  -0.010477  0  -0.071838  -0.075672  0  3.978967  0
C  C52  1  0.53216400  0.43291495  0.14819924  1  -0.032059  0  -0.069642  -0.110017  0  3.916771  0
C  C53  1  0.49447000  0.56502846  0.85217652  1  -0.069226  0  -0.070173  -0.110138  0  3.915769  0
C  C54  1  0.51235190  0.50587372  0.11142674  1  0.102029  0  0.018091  0.107013  0  4.078444  0
C  C55  1  0.51686681  0.49173728  0.88710622  1  0.164312  0  0.01863  0.107133  0  4.080511  0
C  C56  1  0.51413788  0.50539896  0.03274898  1  -0.174768  0  -0.029982  -0.070245  0  4.095158  0
C  C57  1  0.51896514  0.49147735  0.96569819  1  -0.042644  0  -0.02982  -0.070527  0  4.09557  0
C  C58  1  0.47684702  0.83214346  0.55789838  1  0.511611  0  0.131414  0.246568  0  4.064106  0
C  C59  1  0.52968535  0.16615930  0.44931623  1  0.513588  0  0.131497  0.246403  0  4.062167  0
C  C60  1  0.48356820  0.74735247  0.55248139  1  0.563869  0  0.05949  6e-05  0  3.84314  0
C  C61  1  0.51983464  0.25086771  0.45197456  1  0.533993  0  0.060307  0.002809  0  3.840311  0
C  C62  1  0.55593938  0.75343284  0.44289949  1  0.696322  0  0.199039  0.184534  0  3.967469  0
C  C63  1  0.44383752  0.24577932  0.55940795  1  0.730221  0  0.198752  0.182937  0  3.966609  0
C  C64  1  0.55065883  0.83665289  0.44056579  1  0.155858  0  -0.060587  -0.184557  0  3.928614  0
C  C65  1  0.45160904  0.16284946  0.56419779  1  0.090914  0  -0.060752  -0.182841  0  3.927517  0
C  C66  1  0.51181558  0.87815752  0.49926831  1  0.143791  0  0.006529  0.062158  0  4.089669  0
C  C67  1  0.49370319  0.12082341  0.50784571  1  0.115404  0  0.006943  0.06152  0  4.089025  0
C  C68  1  0.50683132  0.96284708  0.50156569  1  -0.62145  0  -0.030107  -0.087423  0  4.111456  0
C  C69  1  0.50014025  0.03615280  0.50713288  1  0.194683  0  -0.029454  -0.084865  0  4.109612  0
N  N70  1  0.01921979  0.52753432  0.51738253  1  -0.574973  0  -0.168356  -0.136486  0  3.347627  0
N  N71  1  0.97795021  0.47130558  0.48933131  1  -0.582256  0  -0.168773  -0.135914  0  3.351087  0
N  N72  1  0.52319405  0.70929601  0.49735478  1  -1.228398  0  -0.29686  -0.209784  0  3.525546  0
N  N73  1  0.47694667  0.28924382  0.50467838  1  -1.231518  0  -0.297496  -0.209949  0  3.528035  0
N  N74  1  0.73562462  0.59361830  0.59138698  1  -1.253166  0  -0.610033  -0.625083  0  3.324724  0
N  N75  1  0.26028089  0.40654456  0.41111706  1  -1.252377  0  -0.609893  -0.625108  0  3.327743  0
N  N76  1  0.60328152  0.71131843  0.38413998  1  0.42714  0  0.058193  0.482314  0  4.230517  0
N  N77  1  0.39335212  0.28829745  0.61554088  1  0.412028  0  0.058523  0.483257  0  4.229451  0
N  N78  1  0.89244332  0.59340794  0.58387543  1  -1.282206  0  -0.589841  -0.576916  0  3.378834  0
N  N79  1  0.10384420  0.40575494  0.42170771  1  -1.236689  0  -0.589351  -0.576578  0  3.37865  0
N  N80  1  0.46806369  0.65131077  0.12400937  1  0.366958  0  0.058525  0.523141  0  4.19901  0
N  N81  1  0.55886954  0.34621743  0.87127841  1  0.398788  0  0.058317  0.5229  0  4.200185  0
N  N82  1  0.43843670  0.86794702  0.61642116  1  -1.26764  0  -0.560095  -0.581035  0  3.350053  0
N  N83  1  0.57141168  0.12969903  0.39319815  1  -1.238878  0  -0.560392  -0.581296  0  3.350575  0
O  O84  1  0.48837204  0.57682279  0.61808868  1  -1.171615  0  -0.318984  -0.558078  0  2.306927  0
O  O85  1  0.50952313  0.42018042  0.38215447  1  -1.165341  0  -0.318629  -0.556209  0  2.305897  0
O  O86  1  0.49411630  0.44000155  0.61192782  1  -1.161608  0  -0.313788  -0.545637  0  2.370912  0
O  O87  1  0.50506720  0.55709878  0.38814593  1  -1.162478  0  -0.313817  -0.545902  0  2.369851  0
O  O88  1  0.38414990  0.59825759  0.50041682  1  -1.161646  0  -0.323819  -0.546755  0  2.280921  0
O  O89  1  0.61302361  0.40227941  0.49948521  1  -1.161153  0  -0.323632  -0.548767  0  2.290128  0
O  O90  1  0.38643915  0.46462608  0.47680389  1  -1.176832  0  -0.317642  -0.565907  0  2.42414  0
O  O91  1  0.61072607  0.53587515  0.52345194  1  -1.173103  0  -0.317618  -0.565666  0  2.425012  0
O  O92  1  0.60588932  0.74450743  0.32191907  1  -0.462543  0  -0.143319  -0.339054  0  1.863255  0
O  O93  1  0.63795343  0.64853574  0.40177670  1  -0.415328  0  -0.102041  -0.278404  0  1.964676  0
O  O94  1  0.38804527  0.25606239  0.67803695  1  -0.458438  0  -0.14328  -0.338565  0  1.863159  0
O  O95  1  0.35906177  0.35047952  0.59560984  1  -0.408861  0  -0.102952  -0.279977  0  1.965866  0
O  O96  1  0.47352287  0.65847316  0.05502213  1  -0.449652  0  -0.141692  -0.345364  0  1.912993  0
O  O97  1  0.44419756  0.70556983  0.16718542  1  -0.449226  0  -0.148946  -0.34614  0  1.865406  0
O  O98  1  0.57316580  0.34322715  0.93898899  1  -0.467908  0  -0.141459  -0.343934  0  1.911879  0
O  O99  1  0.56526254  0.28788747  0.82784422  1  -0.458605  0  -0.150228  -0.347856  0  1.862546  0
