# generated using pymatgen
data_H36Ru2C25NO9
_symmetry_space_group_name_H-M   'P 1'
_cell_length_a   9.90107523
_cell_length_b   11.84750108
_cell_length_c   12.44225055
_cell_angle_alpha   89.99990415
_cell_angle_beta   98.91059946
_cell_angle_gamma   90.00047254
_symmetry_Int_Tables_number   1
_chemical_formula_structural   H36Ru2C25NO9
_chemical_formula_sum   'H72 Ru4 C50 N2 O18'
_cell_volume   1441.89877502
_cell_formula_units_Z   2
loop_
 _symmetry_equiv_pos_site_id
 _symmetry_equiv_pos_as_xyz
  1  'x, y, z'
loop_
 _atom_site_type_symbol
 _atom_site_label
 _atom_site_symmetry_multiplicity
 _atom_site_fract_x
 _atom_site_fract_y
 _atom_site_fract_z
 _atom_site_occupancy
 _atom_site_pbe_bader_charge
 _atom_site_pbe_bader_spin_density
 _atom_site_pbe_cm5_charge
 _atom_site_pbe_ddec_charge
 _atom_site_pbe_ddec_spin_density
 _atom_site_pbe_ddec_sum_bond_order
 _atom_site_pbe_magmom
H  H0  1  0.87803467  0.13241389  0.20214281  1  0.039289  0.000254  0.096699  0.131643  0.000121  1.013098  0.0
H  H1  1  0.12196945  0.13240530  0.29784586  1  0.039517  0.000254  0.096743  0.131665  0.000121  1.013072  0.0
H  H2  1  0.12196144  0.86758775  0.79784654  1  0.039525  0.000253  0.09671  0.131663  0.000121  1.01306  0.0
H  H3  1  0.87805026  0.86757777  0.70215754  1  0.039335  0.000253  0.096699  0.131639  0.000121  1.013083  0.0
H  H4  1  0.83469927  0.27838377  0.19709318  1  0.062292  0.000302  0.093757  0.139925  9.2e-05  1.019711  0.0
H  H5  1  0.16530734  0.27838306  0.30289877  1  0.062445  0.000302  0.093751  0.139859  9.2e-05  1.019649  0.0
H  H6  1  0.16530103  0.72161618  0.80290872  1  0.062503  0.000303  0.093739  0.139876  9.3e-05  1.019728  0.0
H  H7  1  0.83470828  0.72160761  0.69710334  1  0.062407  0.000303  0.093702  0.139818  9.3e-05  1.019758  0.0
H  H8  1  0.70882055  0.17376042  0.20886853  1  0.037757  0.000299  0.089826  0.11744  0.000156  1.011225  0.0
H  H9  1  0.29117993  0.17375722  0.29112446  1  0.037703  0.0003  0.089838  0.117423  0.000156  1.01128  0.0
H  H10  1  0.29118078  0.82624544  0.79113510  1  0.037844  0.000299  0.089846  0.117473  0.000156  1.011276  0.0
H  H11  1  0.70882440  0.82623429  0.70887148  1  0.037803  0.000299  0.089851  0.117442  0.000156  1.011071  0.0
H  H12  1  0.45238636  0.31681661  0.32712485  1  0.02647  0.000238  0.089642  0.116727  0.000126  1.02229  0.0
H  H13  1  0.54761143  0.31680272  0.17286679  1  0.026477  0.000238  0.089646  0.116731  0.000126  1.022384  0.0
H  H14  1  0.54760670  0.68319347  0.67286574  1  0.026527  0.000238  0.089668  0.116772  0.000126  1.022334  0.0
H  H15  1  0.45240008  0.68319554  0.82713242  1  0.026158  0.000238  0.089631  0.11672  0.000126  1.022307  0.0
H  H16  1  0.53158401  0.44410950  0.37610808  1  0.052223  0.000297  0.09016  0.123054  0.000108  1.021508  0.0
H  H17  1  0.46841505  0.44409684  0.12388753  1  0.052322  0.000297  0.090187  0.123151  0.000108  1.021438  0.0
H  H18  1  0.46840294  0.55589805  0.62388660  1  0.052136  0.000297  0.090195  0.123163  0.000108  1.021438  0.0
H  H19  1  0.53159954  0.55590395  0.87611446  1  0.052147  0.000297  0.090162  0.123093  0.000108  1.02149  0.0
H  H20  1  0.36010534  0.44567977  0.30701905  1  0.08357  0.000268  0.097615  0.146381  0.000108  0.995  0.0
H  H21  1  0.63989579  0.44566057  0.19297841  1  0.083755  0.000268  0.097629  0.146413  0.000108  0.995183  0.0
H  H22  1  0.63988161  0.55432694  0.69297484  1  0.083777  0.00027  0.097599  0.146359  0.000109  0.995174  0.0
H  H23  1  0.36012187  0.55432587  0.80702393  1  0.083799  0.00027  0.097598  0.146368  0.000109  0.995185  0.0
H  H24  1  0.41242141  0.31466217  0.62931555  1  0.075176  8.9e-05  0.103811  0.09267  -3.2e-05  1.034357  0.0
H  H25  1  0.58757050  0.31465581  0.87068062  1  0.07518  8.9e-05  0.10378  0.092645  -3.2e-05  1.034413  0.0
H  H26  1  0.58757168  0.68534623  0.37068067  1  0.075193  8.9e-05  0.103782  0.092602  -3.2e-05  1.03426  0.0
H  H27  1  0.41241748  0.68535596  0.12931419  1  0.07513  8.8e-05  0.103773  0.092576  -3.2e-05  1.034408  0.0
H  H28  1  0.66536749  0.33560762  0.53443681  1  0.06903  -0.000402  0.097625  0.101739  -0.000415  0.98678  0.0
H  H29  1  0.33463076  0.33560780  0.96556008  1  0.069037  -0.000402  0.097631  0.101731  -0.000415  0.986733  0.0
H  H30  1  0.33462978  0.66440246  0.46557116  1  0.069207  -0.000402  0.097639  0.101786  -0.000415  0.986694  0.0
H  H31  1  0.66536741  0.66440988  0.03443192  1  0.069386  -0.000403  0.097599  0.101738  -0.000416  0.98671  0.0
H  H32  1  0.58449347  0.21294439  0.48034250  1  0.020781  -0.00063  0.094093  0.086742  -0.000539  0.976543  0.0
H  H33  1  0.41550338  0.21294168  0.01966044  1  0.02073  -0.00063  0.094064  0.086667  -0.000539  0.976591  0.0
H  H34  1  0.41551913  0.78706822  0.51966648  1  0.02063  -0.00063  0.094109  0.086723  -0.000538  0.976664  0.0
H  H35  1  0.58448259  0.78707853  0.98033895  1  0.020612  -0.000631  0.094193  0.086787  -0.000538  0.976611  0.0
H  H36  1  0.66715734  0.26624853  0.72475311  1  0.031384  1.2e-05  0.087107  0.121119  -3e-05  1.009532  0.0
H  H37  1  0.33283005  0.26623299  0.77524742  1  0.031423  1.2e-05  0.087075  0.121121  -3.1e-05  1.009532  0.0
H  H38  1  0.33283585  0.73377252  0.27525518  1  0.031137  1e-05  0.087065  0.121131  -3.2e-05  1.00966  0.0
H  H39  1  0.66715180  0.73377963  0.22474746  1  0.031236  1e-05  0.087096  0.12109  -3.2e-05  1.009701  0.0
H  H40  1  0.74811119  0.16780195  0.65006049  1  0.083035  6.8e-05  0.087684  0.121889  4.8e-05  1.042326  0.0
H  H41  1  0.25187734  0.16779585  0.84994917  1  0.082826  6.9e-05  0.087681  0.121878  4.8e-05  1.042429  0.0
H  H42  1  0.25189022  0.83221066  0.34995520  1  0.08291  6.8e-05  0.087681  0.121887  4.7e-05  1.04241  0.0
H  H43  1  0.74810355  0.83222098  0.15005364  1  0.08294  6.8e-05  0.087702  0.121902  4.7e-05  1.042474  0.0
H  H44  1  0.57818384  0.14200688  0.67454288  1  0.012822  -4.7e-05  0.080186  0.101966  -3.3e-05  1.02267  0.0
H  H45  1  0.42179520  0.14199355  0.82546007  1  0.013212  -4.7e-05  0.080232  0.102017  -3.3e-05  1.022678  0.0
H  H46  1  0.42180322  0.85800742  0.32546469  1  0.013311  -4.5e-05  0.080188  0.101975  -3.2e-05  1.022741  0.0
H  H47  1  0.57818567  0.85801569  0.17454032  1  0.01276  -4.5e-05  0.080213  0.101948  -3.2e-05  1.022583  0.0
H  H48  1  0.86983818  0.12293227  0.50852162  1  0.082922  8e-05  0.109399  0.109107  -1.3e-05  1.010515  0.0
H  H49  1  0.13016819  0.12292424  0.99147335  1  0.082751  8e-05  0.109418  0.109096  -1.3e-05  1.01059  0.0
H  H50  1  0.13017948  0.87706430  0.49148073  1  0.082828  8e-05  0.109422  0.109151  -1.3e-05  1.010611  0.0
H  H51  1  0.86983106  0.87706220  0.00852521  1  0.082798  7.9e-05  0.109414  0.10909  -1.4e-05  1.010565  0.0
H  H52  1  0.86323737  0.96578863  0.32635414  1  0.131019  -0.000587  0.100786  0.116142  -0.0005  1.001964  0.0
H  H53  1  0.13676580  0.96578542  0.17364356  1  0.13108  -0.000588  0.100836  0.11621  -0.0005  1.001907  0.0
H  H54  1  0.13677525  0.03419613  0.67365726  1  0.131172  -0.000587  0.100767  0.116121  -0.0005  1.002036  0.0
H  H55  1  0.86322936  0.03420018  0.82635532  1  0.13128  -0.000587  0.100763  0.116139  -0.0005  1.002053  0.0
H  H56  1  0.69379129  0.00880987  0.32329348  1  0.033309  -0.000571  0.091415  0.079978  -0.000466  0.980513  0.0
H  H57  1  0.30621677  0.00881289  0.17670066  1  0.033325  -0.000571  0.091442  0.079966  -0.000467  0.980463  0.0
H  H58  1  0.30622225  0.99118755  0.67670436  1  0.033138  -0.000572  0.091413  0.079938  -0.000468  0.980538  0.0
H  H59  1  0.69377431  0.99117272  0.82329934  1  0.033144  -0.000572  0.091375  0.079904  -0.000468  0.980473  0.0
H  H60  1  0.87685467  0.90428693  0.52198321  1  0.027445  -8.7e-05  0.083855  0.111374  -0.000127  1.033176  0.0
H  H61  1  0.12315431  0.90427803  0.97801968  1  0.027512  -8.7e-05  0.083897  0.111467  -0.000127  1.033224  0.0
H  H62  1  0.12313244  0.09571640  0.47803239  1  0.027969  -8.7e-05  0.083832  0.1114  -0.000126  1.03323  0.0
H  H63  1  0.87684087  0.09570926  0.02198080  1  0.027612  -8.6e-05  0.083869  0.111467  -0.000126  1.033252  0.0
H  H64  1  0.74846831  0.83123909  0.43466952  1  0.057915  6.9e-05  0.084142  0.1156  -6e-06  1.036993  0.0
H  H65  1  0.25153361  0.83123011  0.06533707  1  0.058181  6.8e-05  0.084203  0.115737  -7e-06  1.036986  0.0
H  H66  1  0.25151577  0.16877014  0.56534974  1  0.057704  6.9e-05  0.084142  0.115567  -6e-06  1.036977  0.0
H  H67  1  0.74846053  0.16875718  0.93466168  1  0.027354  7e-05  0.084207  0.115681  -6e-06  1.036985  0.0
H  H68  1  0.70264251  0.94168747  0.51917990  1  0.026199  1e-05  0.080414  0.105578  3e-06  1.006667  0.0
H  H69  1  0.29735965  0.94167808  0.98081731  1  0.026041  1e-05  0.080426  0.105675  3e-06  1.006735  0.0
H  H70  1  0.29734655  0.05833021  0.48082147  1  -0.021465  1.1e-05  0.08044  0.105603  3e-06  1.006641  0.0
H  H71  1  0.70263856  0.05831259  0.01917952  1  0.026007  1.1e-05  0.080424  0.10562  3e-06  1.006762  0.0
Ru  Ru72  1  0.99277408  0.54086395  0.41602365  1  1.329758  1.331297  0.792383  0.881395  1.413887  3.814405  1.307
Ru  Ru73  1  0.00722901  0.54085916  0.08397309  1  1.328537  1.331274  0.792293  0.881274  1.413887  3.814503  1.307
Ru  Ru74  1  0.00722412  0.45913094  0.58397157  1  1.328438  1.331278  0.792373  0.881434  1.413859  3.814333  1.307
Ru  Ru75  1  0.99277842  0.45912729  0.91602644  1  1.329627  1.331313  0.792402  0.881465  1.413872  3.814413  1.307
C  C76  1  0.24837715  0.42525383  0.48443598  1  1.424085  -0.010062  0.214249  0.515622  -0.012168  4.140907  -0.006
C  C77  1  0.75162378  0.42524499  0.01556068  1  1.424419  -0.010063  0.214258  0.515539  -0.012169  4.140755  -0.006
C  C78  1  0.75161902  0.57475035  0.51556060  1  1.424271  -0.010061  0.214279  0.515592  -0.012168  4.140941  -0.006
C  C79  1  0.24838463  0.57474905  0.98443414  1  1.424685  -0.010062  0.214303  0.515627  -0.012167  4.141037  -0.006
C  C80  1  0.90058227  0.31009261  0.40754096  1  1.365556  -0.010023  0.214793  0.519828  -0.011946  4.130364  -0.006
C  C81  1  0.09942260  0.31008506  0.09245153  1  1.366354  -0.010018  0.214853  0.519857  -0.011941  4.130461  -0.006
C  C82  1  0.09942004  0.68990734  0.59245877  1  1.365419  -0.010018  0.214847  0.519876  -0.011941  4.130384  -0.006
C  C83  1  0.90058686  0.68990476  0.90754743  1  1.365392  -0.010018  0.214827  0.519984  -0.01194  4.130672  -0.006
C  C84  1  0.85055013  0.20331638  0.35626146  1  0.015533  0.002821  -0.031409  -0.02773  0.001357  3.989933  0.002
C  C85  1  0.14945375  0.20331921  0.14373751  1  0.015422  0.002828  -0.031321  -0.02765  0.001362  3.989229  0.002
C  C86  1  0.14945219  0.79667851  0.64373907  1  0.015745  0.002823  -0.031374  -0.027577  0.001359  3.98974  0.002
C  C87  1  0.85055778  0.79667061  0.85626411  1  0.016567  0.002825  -0.031452  -0.027801  0.00136  3.989846  0.002
C  C88  1  0.81641179  0.19751599  0.23457441  1  -0.05903  0.000208  -0.241066  -0.384659  0.000168  3.957426  0.0
C  C89  1  0.18358991  0.19751041  0.26541467  1  -0.059114  0.000208  -0.241093  -0.384581  0.000168  3.957511  0.0
C  C90  1  0.18359051  0.80248396  0.76542210  1  -0.059441  0.000208  -0.241102  -0.384739  0.000168  3.957643  0.0
C  C91  1  0.81641750  0.80247604  0.73458406  1  -0.059135  0.000208  -0.241  -0.384575  0.000168  3.957381  0.0
C  C92  1  0.38329315  0.38039168  0.47089795  1  -0.017536  0.002892  -0.02862  -0.020304  0.00142  3.980492  0.002
C  C93  1  0.61670837  0.38038442  0.02910046  1  -0.017509  0.002892  -0.028625  -0.020167  0.001421  3.980441  0.002
C  C94  1  0.61670607  0.61961672  0.52909739  1  -0.017595  0.002887  -0.028529  -0.020009  0.001417  3.980593  0.002
C  C95  1  0.38329396  0.61961722  0.97090168  1  -0.017438  0.002888  -0.028557  -0.020046  0.001418  3.980557  0.002
C  C96  1  0.43390166  0.39832568  0.36449016  1  -0.067206  0.000118  -0.241059  -0.385334  9.8e-05  3.970991  0.0
C  C97  1  0.56609697  0.39831283  0.13550708  1  -0.06709  0.000118  -0.241111  -0.385556  9.8e-05  3.971287  0.0
C  C98  1  0.56608939  0.60168018  0.63550502  1  -0.066994  0.000119  -0.241139  -0.385603  9.9e-05  3.971144  0.0
C  C99  1  0.43391150  0.60168374  0.86449498  1  -0.067097  0.000119  -0.241066  -0.385496  9.9e-05  3.97114  0.0
C  C100  1  0.45614410  0.32308441  0.55432834  1  -0.011629  -0.010282  -0.061458  -0.05466  -0.01117  3.825916  -0.006
C  C101  1  0.54385302  0.32308015  0.94567004  1  -0.011655  -0.010283  -0.061375  -0.05464  -0.011172  3.825827  -0.006
C  C102  1  0.54386032  0.67691216  0.44567807  1  -0.011603  -0.010273  -0.061427  -0.054534  -0.011161  3.825848  -0.006
C  C103  1  0.45613800  0.67691980  0.05432272  1  -0.011567  -0.010276  -0.061447  -0.054548  -0.011165  3.825891  -0.006
C  C104  1  0.59215255  0.27013532  0.55128547  1  -0.031435  0.000219  -0.159641  -0.097938  -5.9e-05  3.987026  0.0
C  C105  1  0.40784099  0.27013012  0.94871337  1  -0.031287  0.000219  -0.159663  -0.097888  -5.9e-05  3.986949  0.0
C  C106  1  0.40784466  0.72987729  0.44871446  1  -0.031375  0.000219  -0.159716  -0.098192  -6e-05  3.987089  0.0
C  C107  1  0.59215215  0.72988587  0.05128848  1  -0.031888  0.000218  -0.159661  -0.098136  -6e-05  3.987102  0.0
C  C108  1  0.64948155  0.20759650  0.65554687  1  -0.088938  -0.0  -0.246357  -0.358774  -6e-05  3.941347  0.0
C  C109  1  0.35050527  0.20758771  0.84445529  1  -0.089082  0.0  -0.246328  -0.358758  -6e-05  3.941497  0.0
C  C110  1  0.35051161  0.79241949  0.34445739  1  -0.088849  -2e-06  -0.246272  -0.358678  -6.1e-05  3.941688  0.0
C  C111  1  0.64948074  0.79242912  0.15554893  1  -0.088419  -2e-06  -0.246389  -0.358622  -6.1e-05  3.941593  0.0
C  C112  1  0.83992354  0.11267692  0.42064728  1  -0.029568  -0.010118  -0.06069  -0.057449  -0.010979  3.824483  -0.006
C  C113  1  0.16008239  0.11265968  0.07933680  1  -0.029119  -0.01013  -0.060747  -0.057425  -0.010992  3.823818  -0.006
C  C114  1  0.16008283  0.88732810  0.57934890  1  -0.029468  -0.010121  -0.060665  -0.057497  -0.010983  3.824406  -0.006
C  C115  1  0.83992704  0.88732254  0.92065814  1  -0.030523  -0.010125  -0.060628  -0.057294  -0.010986  3.824145  -0.006
C  C116  1  0.79181735  0.99947983  0.37882609  1  -0.063602  -0.000213  -0.162734  -0.113076  -0.000385  3.995125  0.0
C  C117  1  0.20818922  0.99947298  0.12117195  1  -0.063744  -0.000213  -0.162788  -0.113066  -0.000386  3.994991  0.0
C  C118  1  0.20819116  0.00051505  0.62118079  1  -0.063569  -0.000213  -0.162751  -0.113026  -0.000386  3.995337  0.0
C  C119  1  0.79180696  0.00051093  0.87882705  1  -0.063462  -0.000213  -0.162715  -0.11301  -0.000386  3.995135  0.0
C  C120  1  0.77842342  0.91453437  0.46851720  1  -0.090509  -4e-06  -0.247239  -0.34523  -4.2e-05  3.940856  0.0
C  C121  1  0.22158540  0.91452355  0.03148365  1  -0.090858  -4e-06  -0.247387  -0.345649  -4.2e-05  3.9411  0.0
C  C122  1  0.22156980  0.08547233  0.53149431  1  -0.043225  -4e-06  -0.247255  -0.345291  -4.1e-05  3.940905  0.0
C  C123  1  0.77841383  0.08546459  0.96851410  1  -0.060057  -4e-06  -0.24735  -0.345521  -4.1e-05  3.941174  0.0
C  C124  1  0.00000546  0.74204487  0.24999635  1  1.592819  -0.001136  0.248466  0.505799  -0.001538  4.304634  -0.001
C  C125  1  0.00000476  0.25796345  0.74999885  1  1.592868  -0.001133  0.248363  0.505849  -0.001533  4.304116  -0.001
N  N126  1  0.99999484  0.84197994  0.24998199  1  -1.165748  0.010471  -0.39118  -0.593898  0.006339  2.825465  0.007
N  N127  1  0.99999632  0.15800826  0.74999696  1  -1.165788  0.010491  -0.391142  -0.593989  0.006351  2.824222  0.007
O  O128  1  0.18275737  0.48455731  0.40618029  1  -1.072706  0.040027  -0.292805  -0.450526  0.025356  2.462638  0.028
O  O129  1  0.81724618  0.48454711  0.09381659  1  -1.072812  0.040027  -0.292819  -0.450464  0.025355  2.462536  0.028
O  O130  1  0.81723466  0.51543926  0.59381018  1  -1.07281  0.04003  -0.292872  -0.450555  0.025359  2.4626  0.028
O  O131  1  0.18277045  0.51543934  0.90618483  1  -1.073482  0.040024  -0.292836  -0.450536  0.025355  2.46272  0.028
O  O132  1  0.91437563  0.39619272  0.34642390  1  -1.065252  0.046131  -0.293553  -0.446889  0.029709  2.443521  0.032
O  O133  1  0.08562808  0.39618329  0.15357233  1  -1.065726  0.046126  -0.293595  -0.446966  0.029704  2.443299  0.032
O  O134  1  0.08561851  0.60380892  0.65357405  1  -1.06511  0.046126  -0.293557  -0.446955  0.029708  2.443484  0.032
O  O135  1  0.91438548  0.60380822  0.84642792  1  -1.065289  0.046127  -0.293536  -0.446966  0.029707  2.443466  0.032
O  O136  1  0.19819086  0.40413013  0.57220796  1  -1.078033  0.045664  -0.301298  -0.473257  0.029516  2.443379  0.032
O  O137  1  0.80181317  0.40412093  0.92778790  1  -1.078134  0.045669  -0.301287  -0.473277  0.029521  2.44321  0.032
O  O138  1  0.80181043  0.59587657  0.42779084  1  -1.078051  0.045658  -0.301255  -0.473283  0.029512  2.4433  0.032
O  O139  1  0.19819217  0.59587058  0.07220575  1  -1.077932  0.045658  -0.301347  -0.473387  0.029511  2.443368  0.032
O  O140  1  0.93012246  0.31573010  0.51229018  1  -1.045041  0.048619  -0.296855  -0.468189  0.031338  2.486517  0.036
O  O141  1  0.06988069  0.31572588  0.98770490  1  -1.045041  0.048617  -0.296932  -0.4682  0.031338  2.486626  0.036
O  O142  1  0.06988699  0.68426563  0.48770717  1  -1.045106  0.04861  -0.296962  -0.468299  0.031332  2.486442  0.036
O  O143  1  0.93011858  0.68426057  0.01229607  1  -1.045105  0.048604  -0.296922  -0.468263  0.031329  2.486504  0.036
O  O144  1  0.00001310  0.63588831  0.24999573  1  -1.160898  0.036765  -0.286993  -0.455613  0.025938  2.434403  0.018
O  O145  1  0.00001345  0.36410398  0.74999900  1  -1.160926  0.036774  -0.286938  -0.455635  0.025942  2.435032  0.018
