# generated using pymatgen
data_Cd2H6C6N16O
_symmetry_space_group_name_H-M   'P 1'
_cell_length_a   9.98546703
_cell_length_b   16.38303639
_cell_length_c   21.47417020
_cell_angle_alpha   111.37968047
_cell_angle_beta   89.99992211
_cell_angle_gamma   90.00001226
_symmetry_Int_Tables_number   1
_chemical_formula_structural   Cd2H6C6N16O
_chemical_formula_sum   'Cd16 H48 C48 N128 O8'
_cell_volume   3271.26113696
_cell_formula_units_Z   8
loop_
 _symmetry_equiv_pos_site_id
 _symmetry_equiv_pos_as_xyz
  1  'x, y, z'
loop_
 _atom_site_type_symbol
 _atom_site_label
 _atom_site_symmetry_multiplicity
 _atom_site_fract_x
 _atom_site_fract_y
 _atom_site_fract_z
 _atom_site_occupancy
 _atom_site_pbe_bader_charge
 _atom_site_pbe_bader_spin_density
 _atom_site_pbe_cm5_charge
 _atom_site_pbe_ddec_charge
 _atom_site_pbe_ddec_spin_density
 _atom_site_pbe_ddec_sum_bond_order
 _atom_site_pbe_magmom
Cd  Cd0  1  0.97159123  0.89906069  0.64594684  1  1.246767  0  0.815266  0.654489  0  2.367557  0
Cd  Cd1  1  0.47159214  0.10093775  0.85405085  1  1.246604  0  0.81523  0.654419  0  2.367619  0
Cd  Cd2  1  0.02840879  0.10093731  0.35405202  1  1.246711  0  0.815237  0.654431  0  2.367644  0
Cd  Cd3  1  0.52840788  0.89906290  0.14594965  1  1.246586  0  0.815228  0.654395  0  2.367672  0
Cd  Cd4  1  0.47327218  0.62898569  0.50709122  1  1.251094  0  0.8148  0.715371  0  2.313554  0
Cd  Cd5  1  0.97327308  0.37101148  0.99290798  1  1.251133  0  0.814819  0.715402  0  2.313563  0
Cd  Cd6  1  0.52672283  0.37101300  0.49290922  1  1.251099  0  0.814806  0.715395  0  2.313532  0
Cd  Cd7  1  0.02672594  0.62898652  0.00709041  1  1.251107  0  0.814808  0.715402  0  2.313548  0
Cd  Cd8  1  0.61425574  0.03256726  0.66334902  1  1.243587  0  0.830495  0.621807  0  2.514793  0
Cd  Cd9  1  0.11425500  0.96743189  0.83664814  1  1.243595  0  0.830527  0.621923  0  2.514669  0
Cd  Cd10  1  0.38574428  0.96743072  0.33664843  1  1.243575  0  0.830494  0.621796  0  2.514777  0
Cd  Cd11  1  0.88574302  0.03256874  0.16335141  1  1.243693  0  0.83052  0.621865  0  2.514698  0
Cd  Cd12  1  0.67368420  0.25588495  0.62763488  1  1.259527  0  0.810103  0.753405  0  2.319263  0
Cd  Cd13  1  0.17368428  0.74411822  0.87236798  1  1.259402  0  0.81011  0.753396  0  2.319237  0
Cd  Cd14  1  0.32631783  0.74411768  0.37236661  1  1.259541  0  0.810093  0.753374  0  2.319255  0
Cd  Cd15  1  0.82631374  0.25588376  0.12763380  1  1.259493  0  0.810104  0.753372  0  2.319305  0
H  H16  1  0.84701037  0.66943685  0.48681333  1  0.095996  0  0.117424  0.145043  0  0.938128  0
H  H17  1  0.34700935  0.33056264  0.01318795  1  0.095961  0  0.117422  0.145036  0  0.938111  0
H  H18  1  0.15298665  0.33056182  0.51318617  1  0.09599  0  0.117411  0.14504  0  0.938126  0
H  H19  1  0.65298767  0.66943606  0.98681296  1  0.095977  0  0.117423  0.145045  0  0.938142  0
H  H20  1  0.92451189  0.69717734  0.56607901  1  0.152509  0  0.114225  0.13295  0  1.037998  0
H  H21  1  0.42451264  0.30282053  0.93392181  1  0.152348  0  0.114214  0.132902  0  1.037987  0
H  H22  1  0.07548412  0.30282003  0.43392061  1  0.152303  0  0.114233  0.133008  0  1.03798  0
H  H23  1  0.57548638  0.69717752  0.06607892  1  0.152477  0  0.114218  0.13292  0  1.037997  0
H  H24  1  0.09517840  0.55891359  0.70239397  1  0.081674  0  0.117556  0.14162  0  0.95502  0
H  H25  1  0.59516988  0.44108827  0.79760766  1  0.081735  0  0.117554  0.141653  0  0.955031  0
H  H26  1  0.90483063  0.44108510  0.29760600  1  0.08177  0  0.117558  0.141643  0  0.955062  0
H  H27  1  0.40483014  0.55891107  0.20239249  1  0.081751  0  0.117551  0.141654  0  0.955041  0
H  H28  1  0.92399494  0.56173855  0.68457946  1  0.13832  0  0.12207  0.155589  0  0.975219  0
H  H29  1  0.42398607  0.43826259  0.81542176  1  0.138601  0  0.122053  0.15558  0  0.975303  0
H  H30  1  0.07601409  0.43826141  0.31541945  1  0.138683  0  0.122068  0.155583  0  0.97532  0
H  H31  1  0.57601495  0.56173612  0.18457914  1  0.138621  0  0.122069  0.155601  0  0.975285  0
H  H32  1  0.20145814  0.96306207  0.55384706  1  0.132845  0  0.110328  0.131582  0  1.033911  0
H  H33  1  0.70145506  0.03693707  0.94615052  1  0.132853  0  0.110296  0.131554  0  1.033931  0
H  H34  1  0.79854288  0.03694313  0.44615326  1  0.13285  0  0.11031  0.131592  0  1.033867  0
H  H35  1  0.29854096  0.96306420  0.05384875  1  0.132881  0  0.11029  0.131511  0  1.034007  0
H  H36  1  0.35889995  0.90783445  0.54801851  1  0.107399  0  0.109985  0.130428  0  1.016236  0
H  H37  1  0.85889687  0.09216597  0.95197931  1  0.107562  0  0.110008  0.13047  0  1.016196  0
H  H38  1  0.64110107  0.09217207  0.45198263  1  0.107441  0  0.109996  0.130411  0  1.016266  0
H  H39  1  0.14110015  0.90783531  0.04801995  1  0.107418  0  0.109997  0.130449  0  1.016227  0
H  H40  1  0.08396731  0.14851233  0.51084098  1  0.133667  0  0.11492  0.137265  0  1.020134  0
H  H41  1  0.58396739  0.85148754  0.98915920  1  0.133661  0  0.11492  0.137242  0  1.020147  0
H  H42  1  0.91603371  0.85148437  0.48915753  1  0.133701  0  0.114909  0.137248  0  1.020132  0
H  H43  1  0.41603363  0.14851245  0.01084112  1  0.133642  0  0.114922  0.137252  0  1.02009  0
H  H44  1  0.04757934  0.24069811  0.58297994  1  0.115825  0  0.122966  0.155182  0  0.932103  0
H  H45  1  0.54757860  0.75930175  0.91701932  1  0.115739  0  0.122971  0.155147  0  0.932069  0
H  H46  1  0.95242468  0.75929924  0.41701874  1  0.116005  0  0.122984  0.155173  0  0.932144  0
H  H47  1  0.45242443  0.24069758  0.08298035  1  0.115753  0  0.122967  0.155134  0  0.932128  0
H  H48  1  0.35951969  0.57635243  0.62165576  1  0.625047  0  0.280167  0.339466  0  1.013544  0
H  H49  1  0.85951994  0.42364807  0.87834533  1  0.625105  0  0.2802  0.339482  0  1.01352  0
H  H50  1  0.64048033  0.42364759  0.37834549  1  0.625048  0  0.280187  0.339511  0  1.013486  0
H  H51  1  0.14047908  0.57635062  0.12165464  1  0.625094  0  0.280155  0.339467  0  1.013548  0
H  H52  1  0.28559828  0.66031951  0.61712032  1  0.615976  0  0.297391  0.371516  0  0.947141  0
H  H53  1  0.78559748  0.33968099  0.88288036  1  0.615969  0  0.297405  0.371493  0  0.947196  0
H  H54  1  0.71440074  0.33968051  0.38288093  1  0.615984  0  0.297356  0.371465  0  0.947274  0
H  H55  1  0.21439953  0.66031901  0.11712043  1  0.616003  0  0.29738  0.371524  0  0.947194  0
H  H56  1  0.86009996  0.32026401  0.74169052  1  0.62327  0  0.306819  0.389062  0  0.904001  0
H  H57  1  0.36009935  0.67973970  0.75830863  1  0.62328  0  0.306794  0.389033  0  0.904059  0
H  H58  1  0.13990006  0.67973731  0.25831061  1  0.623231  0  0.306821  0.38908  0  0.903997  0
H  H59  1  0.63989867  0.32026222  0.24169034  1  0.623292  0  0.30681  0.389056  0  0.903997  0
H  H60  1  0.85236375  0.40935093  0.73138110  1  0.620069  0  0.278252  0.346823  0  1.006907  0
H  H61  1  0.35236308  0.59065280  0.76861900  1  0.62007  0  0.278259  0.346835  0  1.006896  0
H  H62  1  0.14763828  0.59064971  0.26861892  1  0.620076  0  0.278229  0.346795  0  1.006951  0
H  H63  1  0.64763694  0.40934981  0.23138202  1  0.620071  0  0.278225  0.346779  0  1.006974  0
C  C64  1  0.96862867  0.58198552  0.78653853  1  0.978643  0  0.223842  0.322121  0  3.974593  0
C  C65  1  0.46862409  0.41801560  0.71346220  1  0.978815  0  0.223836  0.322189  0  3.974752  0
C  C66  1  0.03137636  0.41801313  0.21346004  1  0.978792  0  0.223845  0.322245  0  3.974631  0
C  C67  1  0.53137794  0.58198440  0.28653812  1  0.97882  0  0.223836  0.322159  0  3.97477  0
C  C68  1  0.73222645  0.75294437  0.56811704  1  0.995622  0  0.235212  0.335972  0  3.959508  0
C  C69  1  0.23222919  0.24705416  0.93188268  1  0.996769  0  0.235234  0.335949  0  3.95949  0
C  C70  1  0.26776756  0.24705429  0.43188199  1  0.996698  0  0.235223  0.335973  0  3.959642  0
C  C71  1  0.76776983  0.75294451  0.06811683  1  0.995536  0  0.235215  0.335972  0  3.959579  0
C  C72  1  0.82903617  0.67920250  0.53976870  1  -0.032511  0  -0.136521  -0.321946  0  3.958568  0
C  C73  1  0.32903685  0.32079604  0.96023189  1  -0.033482  0  -0.136505  -0.321839  0  3.958555  0
C  C74  1  0.17095884  0.32079486  0.46022998  1  -0.033523  0  -0.136443  -0.32186  0  3.95858  0
C  C75  1  0.67096217  0.67920200  0.03976837  1  -0.032506  0  -0.136504  -0.321893  0  3.958657  0
C  C76  1  0.78653939  0.59439672  0.54411989  1  0.985255  0  0.214498  0.318123  0  4.002453  0
C  C77  1  0.28654312  0.40560180  0.95587979  1  0.985185  0  0.214468  0.318066  0  4.002504  0
C  C78  1  0.21345462  0.40560129  0.45587897  1  0.985209  0  0.214442  0.318061  0  4.002495  0
C  C79  1  0.71345791  0.59439687  0.04411971  1  0.985201  0  0.214484  0.318131  0  4.002524  0
C  C80  1  0.01463634  0.68675548  0.72649547  1  0.967219  0  0.223093  0.314041  0  3.972792  0
C  C81  1  0.51462984  0.31324638  0.77350575  1  0.967147  0  0.223067  0.313993  0  3.972969  0
C  C82  1  0.98537270  0.31324450  0.27350438  1  0.967307  0  0.223033  0.313906  0  3.972788  0
C  C83  1  0.48537118  0.68675294  0.22649393  1  0.967364  0  0.223093  0.31405  0  3.973001  0
C  C84  1  0.00066602  0.59382111  0.72210301  1  0.038558  0  -0.128814  -0.31347  0  3.926486  0
C  C85  1  0.50065955  0.40618010  0.77789804  1  0.038191  0  -0.128801  -0.31351  0  3.926635  0
C  C86  1  0.99934101  0.40617755  0.27789602  1  0.038011  0  -0.1288  -0.313481  0  3.926627  0
C  C87  1  0.49934247  0.59381989  0.22210228  1  0.038003  0  -0.128802  -0.313532  0  3.926678  0
C  C88  1  0.29331451  0.97926467  0.64680719  1  0.992436  0  0.237211  0.344172  0  3.932079  0
C  C89  1  0.79331669  0.02073513  0.85319143  1  0.992334  0  0.23725  0.344238  0  3.932078  0
C  C90  1  0.70668451  0.02073792  0.35319289  1  0.992476  0  0.237289  0.344229  0  3.932053  0
C  C91  1  0.20668333  0.97926550  0.14680813  1  0.992398  0  0.237195  0.344135  0  3.932172  0
C  C92  1  0.30251398  0.96834195  0.57468634  1  0.004597  0  -0.143883  -0.32789  0  3.921788  0
C  C93  1  0.80251295  0.03165784  0.92531181  1  0.004219  0  -0.143874  -0.327852  0  3.921715  0
C  C94  1  0.69748504  0.03166259  0.42531333  1  0.00457  0  -0.143932  -0.327919  0  3.921831  0
C  C95  1  0.19748406  0.96834279  0.07468775  1  0.004325  0  -0.143856  -0.327777  0  3.921752  0
C  C96  1  0.36875910  0.04535854  0.56568820  1  0.988749  0  0.211303  0.317789  0  3.986324  0
C  C97  1  0.86875938  0.95464255  0.93431025  1  0.988826  0  0.211305  0.317713  0  3.986291  0
C  C98  1  0.63123992  0.95464864  0.43431310  1  0.988718  0  0.211286  0.317735  0  3.986468  0
C  C99  1  0.13123664  0.04535874  0.06568948  1  0.988861  0  0.211234  0.317636  0  3.986375  0
C  C100  1  0.94856473  0.12362735  0.57749796  1  0.981219  0  0.226533  0.321671  0  3.972988  0
C  C101  1  0.44856471  0.87637379  0.92250372  1  0.981202  0  0.226548  0.321655  0  3.972964  0
C  C102  1  0.05143429  0.87637198  0.42250172  1  0.981057  0  0.226593  0.321725  0  3.972835  0
C  C103  1  0.55143631  0.12362622  0.07749754  1  0.981211  0  0.226548  0.321615  0  3.973014  0
C  C104  1  0.00233664  0.18277702  0.54446546  1  -0.00387  0  -0.130907  -0.323011  0  3.933531  0
C  C105  1  0.50233580  0.81722418  0.95553512  1  -0.003767  0  -0.130907  -0.322908  0  3.933448  0
C  C106  1  0.99766438  0.81722100  0.45553387  1  -0.003923  0  -0.130901  -0.323006  0  3.933422  0
C  C107  1  0.49766522  0.18277582  0.04446567  1  -0.003725  0  -0.130891  -0.322873  0  3.933424  0
C  C108  1  0.89767990  0.21331407  0.50798022  1  0.99737  0  0.228192  0.319843  0  3.973412  0
C  C109  1  0.39768065  0.78668511  0.99202050  1  0.997617  0  0.228259  0.319873  0  3.973466  0
C  C110  1  0.10232113  0.78668461  0.49201975  1  0.997419  0  0.228241  0.319915  0  3.973134  0
C  C111  1  0.60232138  0.21331293  0.00797976  1  0.997686  0  0.228189  0.319827  0  3.973427  0
N  N112  1  0.96511041  0.59491269  0.88967296  1  -0.175107  0  -0.106065  -0.06375  0  3.443857  0
N  N113  1  0.46510813  0.40508843  0.61032777  1  -0.174937  0  -0.10611  -0.06382  0  3.443778  0
N  N114  1  0.03488962  0.40508728  0.11032595  1  -0.174879  0  -0.106088  -0.063787  0  3.44389  0
N  N115  1  0.53489089  0.59491157  0.38967302  1  -0.17495  0  -0.106117  -0.063836  0  3.443781  0
N  N116  1  0.88965679  0.52733292  0.85595328  1  -0.148543  0  -0.091463  -0.074871  0  3.308597  0
N  N117  1  0.38965243  0.47266756  0.64404733  1  -0.148612  0  -0.091413  -0.074758  0  3.308392  0
N  N118  1  0.11034524  0.47266639  0.14404546  1  -0.148591  0  -0.091472  -0.074833  0  3.308524  0
N  N119  1  0.61034659  0.52733245  0.35595393  1  -0.148623  0  -0.091437  -0.074794  0  3.308428  0
N  N120  1  0.88961582  0.51778428  0.79095934  1  -0.711179  0  -0.211632  -0.276123  0  3.251963  0
N  N121  1  0.38960927  0.48221684  0.70904097  1  -0.711225  0  -0.2116  -0.276129  0  3.252035  0
N  N122  1  0.11039021  0.48221568  0.20903957  1  -0.711134  0  -0.211612  -0.276174  0  3.251956  0
N  N123  1  0.61039075  0.51778447  0.29096017  1  -0.711197  0  -0.211574  -0.276089  0  3.252006  0
N  N124  1  0.01706769  0.63015585  0.84740637  1  -0.725606  0  -0.236783  -0.264563  0  3.403092  0
N  N125  1  0.51706557  0.36984601  0.65259438  1  -0.72588  0  -0.236812  -0.26465  0  3.403256  0
N  N126  1  0.98293434  0.36984412  0.15259255  1  -0.725893  0  -0.236788  -0.264616  0  3.403184  0
N  N127  1  0.48293445  0.63015529  0.34740582  1  -0.725897  0  -0.236815  -0.264612  0  3.403135  0
N  N128  1  0.76669952  0.83680242  0.60075758  1  -0.734722  0  -0.238571  -0.255207  0  3.390332  0
N  N129  1  0.26670132  0.16319740  0.89924153  1  -0.734806  0  -0.238591  -0.255252  0  3.39041  0
N  N130  1  0.23329850  0.16319623  0.39924098  1  -0.734748  0  -0.238593  -0.255273  0  3.390463  0
N  N131  1  0.73329870  0.83680256  0.10075692  1  -0.734683  0  -0.238539  -0.255204  0  3.390397  0
N  N132  1  0.65014912  0.88153038  0.61502806  1  -0.173832  0  -0.116296  -0.048538  0  3.500187  0
N  N133  1  0.15015095  0.11846880  0.88497048  1  -0.17385  0  -0.116304  -0.048554  0  3.500097  0
N  N134  1  0.34984789  0.11846894  0.38497114  1  -0.173871  0  -0.11627  -0.048413  0  3.50003  0
N  N135  1  0.84984907  0.88152984  0.11502761  1  -0.173832  0  -0.116307  -0.048533  0  3.500149  0
N  N136  1  0.54889299  0.82842285  0.59280584  1  -0.082639  0  -0.085094  -0.051236  0  3.250418  0
N  N137  1  0.04889277  0.17157700  0.90719295  1  -0.082632  0  -0.085089  -0.051224  0  3.250405  0
N  N138  1  0.45110503  0.17157649  0.40719431  1  -0.082425  0  -0.085104  -0.051284  0  3.250335  0
N  N139  1  0.95110625  0.82842232  0.09280625  1  -0.082599  0  -0.085074  -0.051203  0  3.250383  0
N  N140  1  0.59806949  0.74743650  0.56313615  1  -0.718282  0  -0.237107  -0.245503  0  3.484206  0
N  N141  1  0.09806721  0.25256204  0.93686273  1  -0.718227  0  -0.237107  -0.245493  0  3.484236  0
N  N142  1  0.40192853  0.25256218  0.43686335  1  -0.718347  0  -0.23713  -0.245565  0  3.484294  0
N  N143  1  0.90193081  0.74743663  0.06313677  1  -0.718244  0  -0.237133  -0.245556  0  3.484312  0
N  N144  1  0.66695362  0.55638331  0.52411884  1  -0.753063  0  -0.250806  -0.278799  0  3.397568  0
N  N145  1  0.16695430  0.44361523  0.97588046  1  -0.753037  0  -0.250842  -0.278874  0  3.397607  0
N  N146  1  0.33304140  0.44361472  0.47588096  1  -0.752697  0  -0.250835  -0.278875  0  3.397624  0
N  N147  1  0.83304372  0.55638277  0.02411793  1  -0.753008  0  -0.250816  -0.278848  0  3.397637  0
N  N148  1  0.67462474  0.48016554  0.53408126  1  -0.227569  0  -0.145444  -0.074073  0  3.584367  0
N  N149  1  0.17462747  0.51983302  0.96591897  1  -0.227452  0  -0.145401  -0.074014  0  3.584387  0
N  N150  1  0.32537027  0.51983250  0.46591900  1  -0.227728  0  -0.145387  -0.073976  0  3.584359  0
N  N151  1  0.82537154  0.48016566  0.03408100  1  -0.227495  0  -0.145429  -0.074046  0  3.584467  0
N  N152  1  0.79320704  0.47202984  0.55853271  1  -0.107184  0  -0.112291  -0.087815  0  3.248941  0
N  N153  1  0.29321085  0.52796870  0.94146790  1  -0.107709  0  -0.112338  -0.087859  0  3.248785  0
N  N154  1  0.20678998  0.52796883  0.44146679  1  -0.107747  0  -0.112368  -0.087876  0  3.248806  0
N  N155  1  0.70679118  0.47203002  0.05853347  1  -0.107241  0  -0.11231  -0.087842  0  3.249026  0
N  N156  1  0.86572443  0.54352596  0.56556058  1  -0.626921  0  -0.222808  -0.274446  0  3.197026  0
N  N157  1  0.36572723  0.45647191  0.93443981  1  -0.626459  0  -0.22275  -0.274376  0  3.196906  0
N  N158  1  0.13427259  0.45647138  0.43443763  1  -0.626482  0  -0.222739  -0.274406  0  3.196871  0
N  N159  1  0.63427479  0.54352615  0.06556139  1  -0.626948  0  -0.222806  -0.27444  0  3.197038  0
N  N160  1  0.00159043  0.80307392  0.70480525  1  -0.198002  0  -0.115076  -0.051856  0  3.485756  0
N  N161  1  0.50158684  0.19692792  0.79519456  1  -0.1977  0  -0.11503  -0.051742  0  3.485681  0
N  N162  1  0.99841360  0.19692606  0.29519413  1  -0.19784  0  -0.115039  -0.051798  0  3.485675  0
N  N163  1  0.49841419  0.80307208  0.20480576  1  -0.197736  0  -0.115039  -0.051816  0  3.485735  0
N  N164  1  0.07882460  0.82061622  0.75798098  1  -0.179676  0  -0.119529  -0.060903  0  3.449985  0
N  N165  1  0.57882216  0.17938625  0.74201896  1  -0.179757  0  -0.119489  -0.060875  0  3.449988  0
N  N166  1  0.92117742  0.17938573  0.24201940  1  -0.179759  0  -0.119501  -0.060903  0  3.449978  0
N  N167  1  0.42117987  0.82061307  0.25798025  1  -0.179723  0  -0.119449  -0.060746  0  3.449947  0
N  N168  1  0.08873998  0.74848121  0.77262078  1  -0.727289  0  -0.24056  -0.263149  0  3.438074  0
N  N169  1  0.58873560  0.25152261  0.72738091  1  -0.727188  0  -0.240574  -0.263157  0  3.438275  0
N  N170  1  0.91126405  0.25151943  0.22737925  1  -0.727228  0  -0.24054  -0.263066  0  3.438165  0
N  N171  1  0.41126543  0.74847672  0.27261877  1  -0.727217  0  -0.240566  -0.263214  0  3.4383  0
N  N172  1  0.95949256  0.71997007  0.68372170  1  -0.614874  0  -0.206745  -0.247735  0  3.163345  0
N  N173  1  0.45948563  0.28003105  0.81627903  1  -0.615004  0  -0.206772  -0.247776  0  3.163317  0
N  N174  1  0.04051647  0.28002925  0.31627751  1  -0.61511  0  -0.206754  -0.247722  0  3.163243  0
N  N175  1  0.54051539  0.71996828  0.18372111  1  -0.615025  0  -0.206839  -0.247817  0  3.163405  0
N  N176  1  0.92533490  0.01867823  0.61209659  1  -0.190019  0  -0.111843  -0.053906  0  3.484673  0
N  N177  1  0.42533602  0.98132289  0.88790369  1  -0.190035  0  -0.111766  -0.053851  0  3.484681  0
N  N178  1  0.07466412  0.98132177  0.38790372  1  -0.190007  0  -0.111804  -0.053932  0  3.484828  0
N  N179  1  0.57466300  0.01867778  0.11209774  1  -0.190047  0  -0.111834  -0.053882  0  3.484713  0
N  N180  1  0.81900335  0.06973047  0.63149562  1  -0.187819  0  -0.122662  -0.045593  0  3.487104  0
N  N181  1  0.31900251  0.93027135  0.86850586  1  -0.187754  0  -0.12276  -0.045761  0  3.487194  0
N  N182  1  0.18099767  0.93027021  0.36850628  1  -0.187813  0  -0.122733  -0.045684  0  3.48723  0
N  N183  1  0.68099651  0.06972999  0.13149622  1  -0.187802  0  -0.122718  -0.045725  0  3.487178  0
N  N184  1  0.83119611  0.13661856  0.61052963  1  -0.707204  0  -0.22835  -0.257135  0  3.356325  0
N  N185  1  0.33119519  0.86338391  0.88947248  1  -0.707194  0  -0.228291  -0.25702  0  3.356296  0
N  N186  1  0.16880591  0.86338209  0.38947087  1  -0.707214  0  -0.228336  -0.257079  0  3.356268  0
N  N187  1  0.66880484  0.13661677  0.11052942  1  -0.707209  0  -0.228297  -0.257007  0  3.356323  0
N  N188  1  0.00876991  0.05064926  0.57826143  1  -0.621905  0  -0.19981  -0.239336  0  3.185537  0
N  N189  1  0.50877022  0.94935129  0.92173897  1  -0.621934  0  -0.199844  -0.239363  0  3.185553  0
N  N190  1  0.99122910  0.94934941  0.42173760  1  -0.621867  0  -0.199858  -0.239335  0  3.18561  0
N  N191  1  0.49122980  0.05064937  0.07826200  1  -0.62186  0  -0.199824  -0.239329  0  3.185503  0
N  N192  1  0.90400117  0.20322858  0.44310611  1  -0.756299  0  -0.234347  -0.259149  0  3.405402  0
N  N193  1  0.40400219  0.79677024  0.05689448  1  -0.756255  0  -0.234381  -0.259187  0  3.405524  0
N  N194  1  0.09599684  0.79676814  0.55689333  1  -0.756337  0  -0.234389  -0.259182  0  3.405356  0
N  N195  1  0.59599883  0.20322845  0.94310596  1  -0.756208  0  -0.234354  -0.259169  0  3.405389  0
N  N196  1  0.79404540  0.24228835  0.43003072  1  -0.107822  0  -0.091019  -0.069927  0  3.218999  0
N  N197  1  0.29404637  0.75771182  0.06997124  1  -0.107876  0  -0.09097  -0.069876  0  3.219137  0
N  N198  1  0.20595262  0.75770970  0.56997001  1  -0.10783  0  -0.090982  -0.06987  0  3.219114  0
N  N199  1  0.70595265  0.24228885  0.93003019  1  -0.107956  0  -0.090971  -0.069866  0  3.219042  0
N  N200  1  0.72328149  0.27378384  0.48501086  1  -0.143946  0  -0.09386  -0.04526  0  3.425259  0
N  N201  1  0.22328360  0.72621698  0.01499038  1  -0.143941  0  -0.093927  -0.045311  0  3.42542  0
N  N202  1  0.27671853  0.72621617  0.51499040  1  -0.143899  0  -0.09392  -0.045337  0  3.425581  0
N  N203  1  0.77671742  0.27378302  0.98500994  1  -0.143976  0  -0.093927  -0.045316  0  3.42545  0
N  N204  1  0.78521943  0.25713970  0.53479794  1  -0.738876  0  -0.238527  -0.261796  0  3.426646  0
N  N205  1  0.28522124  0.74285950  0.96520332  1  -0.739042  0  -0.238515  -0.261781  0  3.426772  0
N  N206  1  0.21478360  0.74285966  0.46520314  1  -0.738952  0  -0.238476  -0.261764  0  3.426644  0
N  N207  1  0.71478178  0.25713853  0.03479694  1  -0.739144  0  -0.238483  -0.261774  0  3.426742  0
N  N208  1  0.35019886  0.01035429  0.74946492  1  -0.160725  0  -0.101678  -0.052445  0  3.396962  0
N  N209  1  0.85019868  0.98964549  0.75053319  1  -0.157574  0  -0.10162  -0.052256  0  3.396786  0
N  N210  1  0.64980317  0.98964504  0.25053475  1  -0.160689  0  -0.101644  -0.052416  0  3.396984  0
N  N211  1  0.14979934  0.01035317  0.24946584  1  -0.157506  0  -0.101627  -0.052312  0  3.396958  0
N  N212  1  0.39540764  0.00679992  0.69005819  1  -0.724711  0  -0.23277  -0.239464  0  3.422125  0
N  N213  1  0.89540829  0.99319789  0.80993983  1  -0.724639  0  -0.23282  -0.239624  0  3.422109  0
N  N214  1  0.60459238  0.99320073  0.30994230  1  -0.724719  0  -0.232802  -0.239472  0  3.42199  0
N  N215  1  0.10458973  0.00680142  0.19005937  1  -0.724765  0  -0.232786  -0.239545  0  3.422129  0
N  N216  1  0.22443927  0.98530388  0.74297529  1  -0.155511  0  -0.106766  -0.043425  0  3.44094  0
N  N217  1  0.72443973  0.01469657  0.75702262  1  -0.158765  0  -0.106844  -0.043619  0  3.440982  0
N  N218  1  0.77555975  0.01469608  0.25702362  1  -0.155516  0  -0.106825  -0.04349  0  3.441043  0
N  N219  1  0.27555829  0.98530209  0.24297641  1  -0.158717  0  -0.106829  -0.043549  0  3.441106  0
N  N220  1  0.18565099  0.96531046  0.67935974  1  -0.697604  0  -0.222922  -0.238783  0  3.34969  0
N  N221  1  0.68565427  0.03468870  0.82063878  1  -0.697408  0  -0.222851  -0.238639  0  3.349652  0
N  N222  1  0.81434803  0.03469213  0.32064034  1  -0.697615  0  -0.222887  -0.238717  0  3.349616  0
N  N223  1  0.31434575  0.96530931  0.17936054  1  -0.697437  0  -0.222837  -0.238647  0  3.349681  0
N  N224  1  0.31134672  0.09732521  0.53711765  1  -0.667256  0  -0.226528  -0.284314  0  3.197006  0
N  N225  1  0.81134689  0.90267725  0.96288354  1  -0.667246  0  -0.226555  -0.284332  0  3.196907  0
N  N226  1  0.68865330  0.90268200  0.46288506  1  -0.667298  0  -0.226526  -0.284258  0  3.196964  0
N  N227  1  0.18865113  0.09732404  0.03711666  1  -0.667208  0  -0.226517  -0.284324  0  3.196941  0
N  N228  1  0.40127441  0.16055509  0.54278986  1  -0.10733  0  -0.108143  -0.080879  0  3.281322  0
N  N229  1  0.90127458  0.83944802  0.95721190  1  -0.107268  0  -0.108105  -0.080808  0  3.281433  0
N  N230  1  0.59872761  0.83945148  0.45721314  1  -0.107369  0  -0.108084  -0.080859  0  3.28146  0
N  N231  1  0.09872144  0.16055261  0.04278765  1  -0.107228  0  -0.108182  -0.08088  0  3.281255  0
N  N232  1  0.50945659  0.14697476  0.57303057  1  -0.221427  0  -0.130377  -0.095077  0  3.484594  0
N  N233  1  0.00945555  0.85302644  0.92697000  1  -0.221396  0  -0.130373  -0.095094  0  3.484685  0
N  N234  1  0.49054444  0.85302982  0.42697097  1  -0.221259  0  -0.13035  -0.095012  0  3.484669  0
N  N235  1  0.99053847  0.14697287  0.07302874  1  -0.221447  0  -0.130334  -0.095037  0  3.484553  0
N  N236  1  0.49221750  0.07439400  0.58784434  1  -0.764356  0  -0.257524  -0.270508  0  3.42355  0
N  N237  1  0.99221682  0.92560576  0.91215414  1  -0.764409  0  -0.257585  -0.27055  0  3.42355  0
N  N238  1  0.50778453  0.92561057  0.41215673  1  -0.764463  0  -0.257587  -0.270587  0  3.423769  0
N  N239  1  0.00777819  0.07439354  0.08784459  1  -0.764533  0  -0.257506  -0.270437  0  3.423505  0
O  O240  1  0.37340889  0.63563767  0.62025357  1  -1.236405  0  -0.588358  -0.730543  0  2.033254  0
O  O241  1  0.87340811  0.36436282  0.87974751  1  -1.236448  0  -0.58841  -0.730528  0  2.033303  0
O  O242  1  0.62658913  0.36436167  0.37974704  1  -1.2364  0  -0.588344  -0.730549  0  2.033323  0
O  O243  1  0.12658891  0.63563785  0.12025392  1  -1.236473  0  -0.588338  -0.730562  0  2.033305  0
O  O244  1  0.84552884  0.34433995  0.70684766  1  -1.24309  0  -0.590804  -0.742944  0  2.045098  0
O  O245  1  0.34552511  0.65566508  0.79315232  1  -1.243095  0  -0.590807  -0.742955  0  2.045132  0
O  O246  1  0.15447519  0.65566071  0.29315330  1  -1.243054  0  -0.590802  -0.742959  0  2.045132  0
O  O247  1  0.65447290  0.34433948  0.20684828  1  -1.243128  0  -0.590777  -0.742906  0  2.045156  0
