# generated using pymatgen
data_Co2H26C36N4O11
_symmetry_space_group_name_H-M   'P 1'
_cell_length_a   8.18424358
_cell_length_b   11.33097068
_cell_length_c   12.88614454
_cell_angle_alpha   104.47478809
_cell_angle_beta   108.49558983
_cell_angle_gamma   90.01857504
_symmetry_Int_Tables_number   1
_chemical_formula_structural   Co2H26C36N4O11
_chemical_formula_sum   'Co2 H26 C36 N4 O11'
_cell_volume   1093.17257230
_cell_formula_units_Z   1
loop_
 _symmetry_equiv_pos_site_id
 _symmetry_equiv_pos_as_xyz
  1  'x, y, z'
loop_
 _atom_site_type_symbol
 _atom_site_label
 _atom_site_symmetry_multiplicity
 _atom_site_fract_x
 _atom_site_fract_y
 _atom_site_fract_z
 _atom_site_occupancy
 _atom_site_pbe_bader_charge
 _atom_site_pbe_bader_spin_density
 _atom_site_pbe_cm5_charge
 _atom_site_pbe_ddec_charge
 _atom_site_pbe_ddec_spin_density
 _atom_site_pbe_ddec_sum_bond_order
 _atom_site_pbe_magmom
Co  Co0  1  0.31903126  0.06308119  0.63120275  1  1.298562  2.594587  0.666865  0.899783  2.82711  2.498029  2.579
Co  Co1  1  0.68749343  0.93673980  0.36861571  1  1.296237  2.59541  0.667341  0.901304  2.828096  2.497162  2.58
H  H2  1  0.13754104  0.19398564  0.02777169  1  0.166618  0.00018  0.108473  0.138522  0.000111  1.019981  0.0
H  H3  1  0.06298714  0.29055428  0.20379741  1  0.042797  7.5e-05  0.095947  0.091938  3.5e-05  1.005501  0.0
H  H4  1  0.15443952  0.19754395  0.36788027  1  0.046178  9.4e-05  0.094176  0.092738  -9.3e-05  1.05657  0.0
H  H5  1  0.15263471  0.81728417  0.46189875  1  0.126224  0.001458  0.1226  0.100686  0.000255  1.003886  0.001
H  H6  1  0.14318904  0.59755293  0.46029258  1  0.080304  0.000949  0.104732  0.107293  0.000449  1.022442  0.0
H  H7  1  0.49226735  0.70315859  0.80635860  1  0.094034  0.001008  0.11841  0.128621  0.000495  0.978314  0.0
H  H8  1  0.48466565  0.91853884  0.79352027  1  0.1157  0.00153  0.121854  0.096256  0.000449  0.995663  0.001
H  H9  1  0.04766622  0.45189393  0.53637886  1  0.082968  0.000759  0.10265  0.106366  0.000284  1.029299  0.0
H  H10  1  0.06272375  0.23246117  0.53973251  1  0.141856  0.001164  0.118532  0.093549  0.000297  1.026218  0.001
H  H11  1  0.58041787  0.28929194  0.73147606  1  0.134434  0.001218  0.123683  0.100226  0.000271  0.989744  0.001
H  H12  1  0.58997926  0.51110426  0.73795745  1  0.073359  0.000886  0.110173  0.113241  0.000408  1.0015  0.0
H  H13  1  0.65241924  0.02342774  0.61719319  1  0.65287  0.000429  0.294471  0.388671  0.000124  0.955503  0.001
H  H14  1  0.65715451  0.07088272  0.74481585  1  0.604033  0.00073  0.32746  0.408642  0.000315  0.864199  0.001
H  H15  1  0.10857517  0.80612697  0.97210708  1  0.16306  0.000102  0.108588  0.138644  7.1e-05  1.020215  0.0
H  H16  1  0.85778072  0.70982803  0.79617881  1  0.035112  9.1e-05  0.096078  0.092085  4.3e-05  1.005282  0.0
H  H17  1  0.78583398  0.80261960  0.63199586  1  0.076156  0.0001  0.093769  0.092503  -8.6e-05  1.056419  0.0
H  H18  1  0.69067654  0.18245807  0.53812467  1  0.130266  0.001453  0.122086  0.099683  0.000245  1.004294  0.001
H  H19  1  0.68400667  0.40233345  0.54012165  1  0.082509  0.000949  0.10461  0.106695  0.00045  1.021093  0.0
H  H20  1  0.68685312  0.29697185  0.19394367  1  0.092365  0.001011  0.118128  0.127878  0.000497  0.97823  0.0
H  H21  1  0.69068530  0.08145115  0.20635980  1  0.117546  0.001512  0.122119  0.096617  0.00044  0.996369  0.001
H  H22  1  0.51210149  0.54791970  0.46388414  1  0.093055  0.000761  0.102823  0.106601  0.00029  1.027832  0.0
H  H23  1  0.52292480  0.76722566  0.46008429  1  0.121712  0.001178  0.11853  0.093836  0.000301  1.025273  0.001
H  H24  1  0.84929367  0.71086748  0.26849931  1  0.122862  0.001214  0.123776  0.100564  0.000266  0.98903  0.001
H  H25  1  0.85342860  0.48920753  0.26257775  1  0.074326  0.000889  0.11026  0.113389  0.000409  1.002105  0.0
H  H26  1  0.03502827  0.97676972  0.38289219  1  0.647633  0.000446  0.294476  0.388665  0.000125  0.955663  0.001
H  H27  1  0.91238227  0.92952542  0.25525426  1  0.593041  0.000679  0.32762  0.408264  0.000302  0.863945  0.001
C  C28  1  0.33209190  0.00446236  0.38840400  1  1.541528  -0.000344  0.217674  0.586334  -0.001959  4.153178  0.0
C  C29  1  0.27718482  0.05291205  0.28617752  1  0.010977  0.0043  -0.026699  -0.075494  0.00177  4.004307  0.003
C  C30  1  0.31783370  0.99759399  0.18743222  1  -0.051342  0.001733  -0.011912  -0.138428  0.000182  3.927803  0.001
C  C31  1  0.26397903  0.05129005  0.09673557  1  0.410079  0.000899  0.08039  0.224758  0.000477  4.017361  0.001
C  C32  1  0.17294623  0.15558829  0.10093549  1  -0.010288  0.000948  -0.093696  -0.176007  0.0005  3.955766  0.001
C  C33  1  0.13294438  0.20848148  0.19893066  1  -0.080773  0.000752  -0.101846  -0.078347  0.000366  4.065639  0.0
C  C34  1  0.18381772  0.15707199  0.29052727  1  0.004564  0.000976  -0.102236  -0.123389  0.000469  4.028956  0.001
C  C35  1  0.22625264  0.78791917  0.53636741  1  0.440531  -0.010264  0.048824  0.102746  -0.01135  3.932851  -0.006
C  C36  1  0.22130407  0.66543055  0.53638118  1  -0.024744  0.003844  -0.084727  -0.178786  0.001314  3.954559  0.004
C  C37  1  0.31926161  0.63019030  0.63320706  1  0.029405  -0.017516  0.00782  0.097556  -0.01903  3.996769  -0.011
C  C38  1  0.41777605  0.72331871  0.72712429  1  -0.053382  0.004005  -0.076982  -0.166625  0.001435  3.930282  0.004
C  C39  1  0.41444834  0.84377533  0.72076674  1  0.48068  -0.01046  0.050214  0.098498  -0.011492  3.953142  -0.006
C  C40  1  0.31943459  0.50089654  0.63532622  1  -0.023922  -0.008218  0.009137  0.099625  -0.008967  4.002359  -0.004
C  C41  1  0.16996840  0.41979358  0.57913478  1  -0.045133  0.000202  -0.083874  -0.173805  -0.000736  3.940434  0.001
C  C42  1  0.17674713  0.29773011  0.58068411  1  0.46734  -0.004067  0.051431  0.102616  -0.004686  3.930704  -0.002
C  C43  1  0.46559858  0.32962031  0.68959248  1  0.497943  -0.003933  0.057083  0.110897  -0.004793  3.93196  -0.002
C  C44  1  0.46939691  0.45308967  0.69268354  1  -0.066805  0.000299  -0.08232  -0.1824  -0.000646  3.95833  0.001
C  C45  1  0.40359707  0.87829242  0.17081304  1  1.58688  0.007932  0.199781  0.590311  0.005263  4.241813  0.005
C  C46  1  0.94349693  0.99547171  0.61138972  1  1.533532  -0.000303  0.217607  0.585287  -0.002032  4.154585  0.0
C  C47  1  0.99053984  0.94709726  0.71364477  1  -0.030231  0.004221  -0.027209  -0.076216  0.001712  4.005039  0.003
C  C48  1  0.13000026  0.00234016  0.81233926  1  0.003451  0.001273  -0.012222  -0.137596  -0.000127  3.925933  0.001
C  C49  1  0.16664194  0.94861966  0.90301461  1  0.368044  0.000953  0.081654  0.225976  0.000504  4.016244  0.001
C  C50  1  0.07100931  0.84452961  0.89892818  1  0.023101  0.001157  -0.094096  -0.176049  0.000607  3.955765  0.001
C  C51  1  0.93287544  0.79176025  0.80100430  1  -0.089176  0.000669  -0.101261  -0.077827  0.000324  4.065444  0.0
C  C52  1  0.89250179  0.84308376  0.70936146  1  -0.020471  0.001176  -0.102125  -0.123892  0.000562  4.030124  0.001
C  C53  1  0.69012487  0.21192393  0.46371299  1  0.437369  -0.010266  0.048682  0.101667  -0.011372  3.931348  -0.006
C  C54  1  0.68578977  0.33450692  0.46388013  1  -0.040089  0.003828  -0.083938  -0.175661  0.001309  3.952219  0.004
C  C55  1  0.68718638  0.36983761  0.36713863  1  0.026276  -0.017551  0.007322  0.095036  -0.019059  3.999899  -0.011
C  C56  1  0.69141718  0.27673676  0.27311191  1  -0.034816  0.004019  -0.076916  -0.165077  0.00144  3.930873  0.004
C  C57  1  0.69373281  0.15620679  0.27923328  1  0.482145  -0.010469  0.049354  0.097044  -0.011517  3.95501  -0.006
C  C58  1  0.68520983  0.49910835  0.36505308  1  -0.014921  -0.00831  0.009244  0.099833  -0.009073  4.001992  -0.004
C  C59  1  0.59156344  0.58005568  0.42106509  1  -0.065607  0.000219  -0.083473  -0.173965  -0.000726  3.939441  0.001
C  C60  1  0.59630594  0.70207072  0.41931214  1  0.478531  -0.004123  0.051737  0.103737  -0.004762  3.928471  -0.002
C  C61  1  0.77648042  0.67046268  0.31046348  1  0.522988  -0.004012  0.056608  0.109478  -0.00485  3.929476  -0.002
C  C62  1  0.77777422  0.54704969  0.30767267  1  -0.064587  0.000302  -0.082204  -0.181708  -0.000647  3.956949  0.001
C  C63  1  0.23258842  0.12157186  0.82893569  1  1.62306  0.007989  0.199348  0.589392  0.00537  4.2413  0.005
N  N64  1  0.32250999  0.25216080  0.63346255  1  -1.194904  0.049508  -0.313654  -0.220717  0.027214  3.510304  0.042
N  N65  1  0.32101766  0.87677938  0.62705723  1  -1.219212  0.054331  -0.327835  -0.263924  0.029731  3.591648  0.046
N  N66  1  0.68910046  0.74777228  0.36641573  1  -1.197696  0.04948  -0.313835  -0.221246  0.027194  3.50842  0.042
N  N67  1  0.69370815  0.12306616  0.37285014  1  -1.226632  0.054175  -0.326751  -0.262212  0.029655  3.591393  0.046
O  O68  1  0.24133700  0.02979312  0.45558240  1  -1.165015  0.068931  -0.314925  -0.578315  0.036639  2.451513  0.057
O  O69  1  0.46052308  0.94199211  0.40818312  1  -1.173517  0.063815  -0.296606  -0.536339  0.032644  2.427415  0.058
O  O70  1  0.30850536  0.78172062  0.12697332  1  -1.142536  0.03214  -0.323304  -0.511224  0.015795  2.037933  0.027
O  O71  1  0.57226977  0.88684254  0.20150584  1  -1.101919  0.111891  -0.34616  -0.597082  0.056698  2.306103  0.092
O  O72  1  0.59706571  0.07768498  0.66847390  1  -1.225953  0.042576  -0.560838  -0.763712  0.022174  2.173919  0.036
O  O73  1  0.78552958  0.97040206  0.54429719  1  -1.172684  0.068566  -0.315255  -0.578279  0.036557  2.449394  0.057
O  O74  1  0.05243826  0.05757373  0.59145725  1  -1.155319  0.063634  -0.295788  -0.534808  0.032598  2.428974  0.058
O  O75  1  0.18149157  0.21819904  0.87276426  1  -1.137882  0.031925  -0.32312  -0.510991  0.015665  2.037893  0.027
O  O76  1  0.37057768  0.11300835  0.79828134  1  -1.136925  0.112452  -0.345404  -0.59593  0.056917  2.306745  0.093
O  O77  1  0.92846562  0.92251880  0.33152028  1  -1.209458  0.042698  -0.560813  -0.763545  0.022182  2.174102  0.036
O  O78  1  0.30788755  0.99979066  0.99978464  1  -1.098305  0.001156  -0.172117  -0.234457  0.000598  2.510763  0.001
