# generated using pymatgen
data_TbH6C9NO7
_symmetry_space_group_name_H-M   'P 1'
_cell_length_a   7.55317462
_cell_length_b   8.44340969
_cell_length_c   17.06512367
_cell_angle_alpha   89.99985163
_cell_angle_beta   90.00058575
_cell_angle_gamma   104.74402482
_symmetry_Int_Tables_number   1
_chemical_formula_structural   TbH6C9NO7
_chemical_formula_sum   'Tb4 H24 C36 N4 O28'
_cell_volume   1052.48485373
_cell_formula_units_Z   4
loop_
 _symmetry_equiv_pos_site_id
 _symmetry_equiv_pos_as_xyz
  1  'x, y, z'
loop_
 _atom_site_type_symbol
 _atom_site_label
 _atom_site_symmetry_multiplicity
 _atom_site_fract_x
 _atom_site_fract_y
 _atom_site_fract_z
 _atom_site_occupancy
 _atom_site_hle17_bader_spin_density
 _atom_site_hle17_ddec_charge
 _atom_site_hle17_ddec_spin_density
 _atom_site_hle17_ddec_sum_bond_order
 _atom_site_hle17_magmom
 _atom_site_hse06_10hf_bader_spin_density
 _atom_site_hse06_10hf_ddec_charge
 _atom_site_hse06_10hf_ddec_spin_density
 _atom_site_hse06_10hf_ddec_sum_bond_order
 _atom_site_hse06_10hf_magmom
 _atom_site_hse06_bader_spin_density
 _atom_site_hse06_ddec_charge
 _atom_site_hse06_ddec_spin_density
 _atom_site_hse06_ddec_sum_bond_order
 _atom_site_hse06_magmom
 _atom_site_pbe_bader_spin_density
 _atom_site_pbe_cm5_charge
 _atom_site_pbe_ddec_charge
 _atom_site_pbe_ddec_spin_density
 _atom_site_pbe_ddec_sum_bond_order
 _atom_site_pbe_magmom
Tb  Tb0  1  0.78176042  0.07126520  0.71588579  1  0  2.284766  0  1.661958  0  0  2.140093  0  2.128932  0  0  2.259825  0  1.953548  0  0  1.533794  2.103686  0  2.162338  0
Tb  Tb1  1  0.21824315  0.42873654  0.21588380  1  0  2.284759  0  1.661876  0  0  2.140041  0  2.128885  0  0  2.259806  0  1.953446  0  0  1.533875  2.103591  0  2.16232  0
Tb  Tb2  1  0.21824120  0.92873693  0.28411504  1  0  2.284791  0  1.661891  0  0  2.140093  0  2.128882  0  0  2.25985  0  1.953475  0  0  1.533839  2.103687  0  2.162267  0
Tb  Tb3  1  0.78175415  0.57126435  0.78411645  1  0  2.28482  0  1.661815  0  0  2.140118  0  2.128788  0  0  2.259861  0  1.953384  0  0  1.533886  2.10368  0  2.162172  0
H  H4  1  0.57429164  0.70384928  0.02499511  1  0  0.120468  0  0.917482  0  0  0.131016  0  0.976362  0  0  0.135462  0  0.971362  0  0  0.121409  0.127889  0  0.979543  0
H  H5  1  0.42571205  0.79615575  0.52499050  1  0  0.120542  0  0.917295  0  0  0.131064  0  0.976197  0  0  0.135507  0  0.971202  0  0  0.12147  0.127946  0  0.979385  0
H  H6  1  0.42570567  0.29615162  0.97500690  1  0  0.12049  0  0.917415  0  0  0.131079  0  0.976248  0  0  0.135526  0  0.971245  0  0  0.121447  0.127955  0  0.979429  0
H  H7  1  0.57429222  0.20384640  0.47500858  1  0  0.120565  0  0.917311  0  0  0.131105  0  0.976195  0  0  0.13555  0  0.971198  0  0  0.121495  0.127987  0  0.979388  0
H  H8  1  0.87073665  0.19285519  0.95964155  1  0  0.093654  0  0.919942  0  0  0.104111  0  0.9801  0  0  0.10711  0  0.976937  0  0  0.126573  0.102003  0  0.982085  0
H  H9  1  0.12926888  0.30714775  0.45963990  1  0  0.093666  0  0.9199  0  0  0.104139  0  0.980046  0  0  0.107139  0  0.97688  0  0  0.126594  0.102035  0  0.982035  0
H  H10  1  0.12926262  0.80714326  0.04035812  1  0  0.093595  0  0.919957  0  0  0.104078  0  0.980091  0  0  0.107078  0  0.976926  0  0  0.126557  0.101972  0  0.982073  0
H  H11  1  0.87073338  0.69285194  0.54035977  1  0  0.093638  0  0.919925  0  0  0.104112  0  0.980066  0  0  0.107112  0  0.976903  0  0  0.126586  0.102009  0  0.982054  0
H  H12  1  0.68027533  0.10740372  0.18765731  1  0  0.099616  0  0.927092  0  0  0.105809  0  0.993265  0  0  0.109123  0  0.989874  0  0  0.130617  0.103489  0  0.995422  0
H  H13  1  0.31972965  0.39260537  0.68765562  1  0  0.099497  0  0.927109  0  0  0.105809  0  0.993173  0  0  0.109117  0  0.989797  0  0  0.130639  0.103485  0  0.995334  0
H  H14  1  0.31972599  0.89260209  0.81234352  1  0  0.099617  0  0.927096  0  0  0.105851  0  0.993224  0  0  0.10916  0  0.989846  0  0  0.130641  0.103526  0  0.995384  0
H  H15  1  0.68027595  0.60739678  0.31234346  1  0  0.099595  0  0.926884  0  0  0.105801  0  0.993055  0  0  0.109107  0  0.989682  0  0  0.130593  0.103478  0  0.995207  0
H  H16  1  0.17465379  0.39764175  0.91331436  1  0  0.087987  0  0.908953  0  0  0.101573  0  0.967557  0  0  0.103224  0  0.965415  0  0  0.11207  0.100583  0  0.968639  0
H  H17  1  0.82535431  0.10235998  0.41331613  1  0  0.087976  0  0.908887  0  0  0.101545  0  0.967551  0  0  0.103199  0  0.96541  0  0  0.112047  0.100557  0  0.968646  0
H  H18  1  0.82534882  0.60235917  0.08668531  1  0  0.087946  0  0.908932  0  0  0.101539  0  0.967553  0  0  0.103194  0  0.965414  0  0  0.112032  0.100548  0  0.968638  0
H  H19  1  0.17464795  0.89763970  0.58668353  1  0  0.087941  0  0.908933  0  0  0.101497  0  0.967589  0  0  0.103148  0  0.965447  0  0  0.112017  0.100515  0  0.968677  0
H  H20  1  0.26748993  0.52163121  0.83122367  1  0  0.114025  0  0.911799  0  0  0.125603  0  0.971999  0  0  0.128268  0  0.969892  0  0  0.123088  0.12395  0  0.973085  0
H  H21  1  0.73251515  0.97837256  0.33122454  1  0  0.113997  0  0.911877  0  0  0.125596  0  0.972078  0  0  0.12825  0  0.969989  0  0  0.123053  0.123946  0  0.973167  0
H  H22  1  0.73251032  0.47836603  0.16877365  1  0  0.114004  0  0.911832  0  0  0.125603  0  0.972015  0  0  0.128267  0  0.969914  0  0  0.123079  0.123951  0  0.973097  0
H  H23  1  0.26748677  0.02162591  0.66877512  1  0  0.114004  0  0.911892  0  0  0.125585  0  0.9721  0  0  0.128237  0  0.970009  0  0  0.12305  0.123939  0  0.973193  0
H  H24  1  0.09919355  0.66822931  0.89799974  1  0  0.34054  0  0.970958  0  0  0.30367  0  1.059982  0  0  0.315677  0  1.049088  0  0  0.28924  0.295186  0  1.068341  0
H  H25  1  0.90081203  0.83177078  0.39800039  1  0  0.340384  0  0.971278  0  0  0.303646  0  1.060043  0  0  0.315655  0  1.049146  0  0  0.28922  0.295162  0  1.068412  0
H  H26  1  0.90081004  0.33177038  0.10199934  1  0  0.340466  0  0.971116  0  0  0.303669  0  1.05999  0  0  0.315679  0  1.049091  0  0  0.289207  0.295187  0  1.068347  0
H  H27  1  0.09918989  0.16822769  0.60200044  1  0  0.340364  0  0.971304  0  0  0.303639  0  1.060037  0  0  0.315649  0  1.049138  0  0  0.289233  0.295153  0  1.06842  0
C  C28  1  0.74234142  0.88660959  0.89895681  1  0  0.735679  0  3.862254  0  0  0.685827  0  4.157325  0  0  0.723039  0  4.149039  0  0  0.240047  0.661149  0  4.164501  0
C  C29  1  0.25765408  0.61337334  0.39895072  1  0  0.735518  0  3.862796  0  0  0.685718  0  4.157784  0  0  0.722909  0  4.149537  0  0  0.239906  0.661042  0  4.164949  0
C  C30  1  0.25764690  0.11338760  0.10104344  1  0  0.735407  0  3.862737  0  0  0.685685  0  4.157651  0  0  0.722895  0  4.149365  0  0  0.239981  0.660996  0  4.164838  0
C  C31  1  0.74234990  0.38663247  0.60104953  1  0  0.735592  0  3.862951  0  0  0.685698  0  4.158059  0  0  0.722888  0  4.149814  0  0  0.239886  0.661032  0  4.16521  0
C  C32  1  0.72441296  0.94094982  0.98166109  1  0  -0.123301  0  3.747558  0  0  -0.09683  0  3.990087  0  0  -0.109802  0  4.012758  0  0  -0.009907  -0.088458  0  3.973938  0
C  C33  1  0.27559095  0.55905637  0.48165866  1  0  -0.123217  0  3.74751  0  0  -0.096811  0  3.990096  0  0  -0.109776  0  4.012773  0  0  -0.009847  -0.088433  0  3.973937  0
C  C34  1  0.27558267  0.05904984  0.01833975  1  0  -0.123203  0  3.74748  0  0  -0.096908  0  3.990185  0  0  -0.109875  0  4.012854  0  0  -0.009942  -0.088532  0  3.974038  0
C  C35  1  0.72441068  0.44094577  0.51834100  1  0  -0.123374  0  3.747713  0  0  -0.096934  0  3.990318  0  0  -0.109898  0  4.012993  0  0  -0.009917  -0.088565  0  3.97417  0
C  C36  1  0.63288791  0.83252378  0.03897455  1  0  -0.012891  0  3.657169  0  0  -0.057702  0  3.907882  0  0  -0.050363  0  3.922052  0  0  -0.049467  -0.061773  0  3.897134  0
C  C37  1  0.36711242  0.66747756  0.53897160  1  0  -0.012918  0  3.657062  0  0  -0.057676  0  3.907798  0  0  -0.050336  0  3.921965  0  0  -0.049472  -0.06176  0  3.897067  0
C  C38  1  0.36710974  0.16747834  0.96102629  1  0  -0.01299  0  3.657071  0  0  -0.057782  0  3.907823  0  0  -0.050449  0  3.921997  0  0  -0.049512  -0.061857  0  3.89708  0
C  C39  1  0.63289018  0.33252335  0.46102807  1  0  -0.012911  0  3.657058  0  0  -0.057748  0  3.907798  0  0  -0.05041  0  3.921965  0  0  -0.049504  -0.06183  0  3.897077  0
C  C40  1  0.79810173  0.10442898  0.00265629  1  0  0.133107  0  3.66478  0  0  0.086121  0  3.922494  0  0  0.095505  0  3.937758  0  0  0.062891  0.080407  0  3.911416  0
C  C41  1  0.20190225  0.39557279  0.50265405  1  0  0.133015  0  3.664564  0  0  0.085996  0  3.922311  0  0  0.095378  0  3.937573  0  0  0.06281  0.080286  0  3.911236  0
C  C42  1  0.20189955  0.89557193  0.99734338  1  0  0.133104  0  3.664787  0  0  0.086138  0  3.922533  0  0  0.09552  0  3.937795  0  0  0.062899  0.080428  0  3.911448  0
C  C43  1  0.79810035  0.60442812  0.49734620  1  0  0.133107  0  3.664649  0  0  0.08611  0  3.92239  0  0  0.09549  0  3.937651  0  0  0.062834  0.080391  0  3.911322  0
C  C44  1  0.61329746  0.89152688  0.11400762  1  0  -0.102136  0  3.7186  0  0  -0.073172  0  3.95445  0  0  -0.084811  0  3.973495  0  0  -0.001538  -0.06562  0  3.940639  0
C  C45  1  0.38670763  0.60848058  0.61400366  1  0  -0.102158  0  3.718311  0  0  -0.073236  0  3.9542  0  0  -0.08487  0  3.973249  0  0  -0.001575  -0.065672  0  3.940369  0
C  C46  1  0.38670284  0.10847524  0.88599498  1  0  -0.102065  0  3.718473  0  0  -0.073106  0  3.954363  0  0  -0.084742  0  3.97341  0  0  -0.001548  -0.065555  0  3.940554  0
C  C47  1  0.61329797  0.39152157  0.38599542  1  0  -0.102195  0  3.718507  0  0  -0.073152  0  3.95423  0  0  -0.084786  0  3.973277  0  0  -0.001555  -0.065595  0  3.940406  0
C  C48  1  0.69234065  0.05679231  0.12973339  1  0  0.159784  0  3.602601  0  0  0.112175  0  3.857711  0  0  0.123287  0  3.869278  0  0  0.074593  0.105297  0  3.849018  0
C  C49  1  0.30766129  0.44321065  0.62973216  1  0  0.159971  0  3.60223  0  0  0.1122  0  3.857423  0  0  0.123304  0  3.868994  0  0  0.074561  0.10534  0  3.848716  0
C  C50  1  0.30765867  0.94321104  0.87026687  1  0  0.159777  0  3.602513  0  0  0.11213  0  3.857636  0  0  0.123236  0  3.869206  0  0  0.074568  0.105263  0  3.848936  0
C  C51  1  0.69234362  0.55678904  0.37026751  1  0  0.159774  0  3.60238  0  0  0.112135  0  3.857469  0  0  0.123238  0  3.869039  0  0  0.074561  0.105275  0  3.848748  0
C  C52  1  0.50713150  0.78301498  0.17654904  1  0  0.733123  0  3.863985  0  0  0.679545  0  4.163748  0  0  0.716772  0  4.15588  0  0  0.237115  0.654262  0  4.172475  0
C  C53  1  0.49286792  0.71697655  0.67655187  1  0  0.732974  0  3.863816  0  0  0.679564  0  4.163324  0  0  0.716774  0  4.155475  0  0  0.2371  0.65429  0  4.17203  0
C  C54  1  0.49286320  0.21699079  0.82345297  1  0  0.733127  0  3.863899  0  0  0.679538  0  4.163679  0  0  0.716765  0  4.155811  0  0  0.237104  0.654258  0  4.172406  0
C  C55  1  0.50713567  0.28302315  0.32344838  1  0  0.733061  0  3.863905  0  0  0.679529  0  4.163551  0  0  0.716745  0  4.155697  0  0  0.237057  0.654252  0  4.17226  0
C  C56  1  0.04226965  0.31972828  0.80377315  1  0  0.68496  0  3.860905  0  0  0.638544  0  4.165595  0  0  0.670813  0  4.165243  0  0  0.208612  0.616007  0  4.171637  0
C  C57  1  0.95772454  0.18029421  0.30377191  1  0  0.68514  0  3.86091  0  0  0.638673  0  4.165708  0  0  0.670957  0  4.165333  0  0  0.208754  0.61613  0  4.17174  0
C  C58  1  0.95772702  0.68027506  0.19622828  1  0  0.684953  0  3.86084  0  0  0.638526  0  4.165556  0  0  0.670817  0  4.165177  0  0  0.208637  0.616002  0  4.171577  0
C  C59  1  0.04227930  0.81969693  0.69622775  1  0  0.685443  0  3.860656  0  0  0.638889  0  4.165581  0  0  0.671148  0  4.165232  0  0  0.208878  0.616346  0  4.171613  0
C  C60  1  0.13872286  0.45364577  0.85919157  1  0  -0.0061  0  3.631429  0  0  -0.059718  0  3.893771  0  0  -0.056418  0  3.89554  0  0  -0.066434  -0.061704  0  3.893276  0
C  C61  1  0.86128268  0.04635596  0.35919358  1  0  -0.006167  0  3.630963  0  0  -0.059841  0  3.893488  0  0  -0.056555  0  3.895286  0  0  -0.066457  -0.061808  0  3.892982  0
C  C62  1  0.86127940  0.54635392  0.14080751  1  0  -0.00605  0  3.631333  0  0  -0.059727  0  3.893783  0  0  -0.056448  0  3.895574  0  0  -0.066431  -0.061717  0  3.893288  0
C  C63  1  0.13871924  0.95364250  0.64080608  1  0  -0.006246  0  3.631069  0  0  -0.059831  0  3.893522  0  0  -0.056524  0  3.895307  0  0  -0.06645  -0.061803  0  3.893026  0
N  N64  1  0.78527836  0.16014109  0.07549601  1  0  -0.290638  0  3.190178  0  0  -0.22472  0  3.442835  0  0  -0.240395  0  3.457195  0  0  -0.299327  -0.214245  0  3.432689  0
N  N65  1  0.21472763  0.33986190  0.57549449  1  0  -0.290649  0  3.190177  0  0  -0.224657  0  3.442785  0  0  -0.240325  0  3.457142  0  0  -0.299301  -0.214192  0  3.432657  0
N  N66  1  0.21472292  0.83985982  0.92450424  1  0  -0.290634  0  3.190144  0  0  -0.224665  0  3.442831  0  0  -0.240335  0  3.457192  0  0  -0.299307  -0.214188  0  3.432678  0
N  N67  1  0.78527728  0.66013780  0.42450459  1  0  -0.290577  0  3.190174  0  0  -0.224665  0  3.442799  0  0  -0.240329  0  3.457153  0  0  -0.299264  -0.214194  0  3.432658  0
O  O68  1  0.74905627  0.99408760  0.84636470  1  0  -0.742791  0  2.086602  0  0  -0.693865  0  2.350752  0  0  -0.730755  0  2.338381  0  0  -0.393472  -0.675021  0  2.356458  0
O  O69  1  0.25094287  0.50591736  0.34636633  1  0  -0.742567  0  2.087202  0  0  -0.693669  0  2.351376  0  0  -0.730557  0  2.339029  0  0  -0.393357  -0.674818  0  2.357082  0
O  O70  1  0.25093633  0.00590593  0.15363497  1  0  -0.742703  0  2.086643  0  0  -0.693826  0  2.350783  0  0  -0.730745  0  2.338469  0  0  -0.393474  -0.674974  0  2.35649  0
O  O71  1  0.74905606  0.49407987  0.65363275  1  0  -0.742543  0  2.087318  0  0  -0.693609  0  2.351556  0  0  -0.730486  0  2.339199  0  0  -0.393321  -0.674764  0  2.357252  0
O  O72  1  0.74833025  0.73905547  0.88867806  1  0  -0.723285  0  1.988319  0  0  -0.675871  0  2.240989  0  0  -0.711338  0  2.224156  0  0  -0.393948  -0.658298  0  2.249348  0
O  O73  1  0.25166058  0.76094946  0.38867175  1  0  -0.723344  0  1.988068  0  0  -0.675948  0  2.24072  0  0  -0.711418  0  2.223906  0  0  -0.393926  -0.658379  0  2.24909  0
O  O74  1  0.25164841  0.26093556  0.11132453  1  0  -0.723105  0  1.988611  0  0  -0.675715  0  2.241231  0  0  -0.711183  0  2.224399  0  0  -0.393822  -0.658131  0  2.24959  0
O  O75  1  0.74835164  0.23905272  0.61132674  1  0  -0.723361  0  1.988122  0  0  -0.675929  0  2.240795  0  0  -0.711396  0  2.223983  0  0  -0.393907  -0.658357  0  2.249159  0
O  O76  1  0.44771933  0.63150155  0.16004809  1  0  -0.728556  0  1.986421  0  0  -0.680561  0  2.246746  0  0  -0.716687  0  2.229777  0  0  -0.399731  -0.662787  0  2.255867  0
O  O77  1  0.55228157  0.86851079  0.66004632  1  0  -0.728443  0  1.985819  0  0  -0.680527  0  2.246059  0  0  -0.716646  0  2.229101  0  0  -0.399744  -0.662766  0  2.255181  0
O  O78  1  0.55227101  0.36849810  0.83995274  1  0  -0.728506  0  1.986578  0  0  -0.680521  0  2.246928  0  0  -0.716642  0  2.22996  0  0  -0.399712  -0.66275  0  2.256044  0
O  O79  1  0.44772207  0.13149380  0.33995335  1  0  -0.72844  0  1.985964  0  0  -0.680476  0  2.246256  0  0  -0.7166  0  2.229297  0  0  -0.399686  -0.662716  0  2.25538  0
O  O80  1  0.47971714  0.84835955  0.24097859  1  0  -0.739776  0  2.030717  0  0  -0.694146  0  2.294117  0  0  -0.729202  0  2.280458  0  0  -0.387115  -0.67691  0  2.302774  0
O  O81  1  0.52028193  0.65164909  0.74097518  1  0  -0.73977  0  2.03107  0  0  -0.694167  0  2.294344  0  0  -0.729217  0  2.280693  0  0  -0.387077  -0.676923  0  2.302983  0
O  O82  1  0.52027653  0.15164255  0.75902108  1  0  -0.739843  0  2.030453  0  0  -0.694216  0  2.293872  0  0  -0.729273  0  2.280216  0  0  -0.38708  -0.676979  0  2.302531  0
O  O83  1  0.47972003  0.34835426  0.25902390  1  0  -0.739799  0  2.031012  0  0  -0.694173  0  2.294351  0  0  -0.729226  0  2.280695  0  0  -0.387057  -0.676923  0  2.30299  0
O  O84  1  0.89122900  0.33752014  0.77320219  1  0  -0.850968  0  2.225802  0  0  -0.788165  0  2.489812  0  0  -0.832533  0  2.479447  0  0  -0.473987  -0.769396  0  2.496538  0
O  O85  1  0.10877059  0.16248158  0.27320121  1  0  -0.851237  0  2.225437  0  0  -0.788384  0  2.489453  0  0  -0.832765  0  2.479081  0  0  -0.474131  -0.769608  0  2.496181  0
O  O86  1  0.10877159  0.66247832  0.22679982  1  0  -0.85097  0  2.225552  0  0  -0.78818  0  2.489609  0  0  -0.832558  0  2.479232  0  0  -0.474067  -0.76942  0  2.49634  0
O  O87  1  0.89123334  0.83751934  0.72679845  1  0  -0.851378  0  2.225259  0  0  -0.78852  0  2.489359  0  0  -0.832895  0  2.478998  0  0  -0.474165  -0.769739  0  2.496084  0
O  O88  1  0.10005072  0.19721764  0.78738731  1  0  -0.630288  0  1.939561  0  0  -0.590583  0  2.174746  0  0  -0.620494  0  2.169842  0  0  -0.320935  -0.573528  0  2.177584  0
O  O89  1  0.89995573  0.30277431  0.28739034  1  0  -0.630101  0  1.940409  0  0  -0.590389  0  2.175632  0  0  -0.620298  0  2.170718  0  0  -0.320857  -0.573358  0  2.178506  0
O  O90  1  0.89994718  0.80277591  0.21261588  1  0  -0.630268  0  1.939832  0  0  -0.590509  0  2.174969  0  0  -0.620422  0  2.170056  0  0  -0.32086  -0.573455  0  2.177787  0
O  O91  1  0.10004290  0.69722659  0.71260698  1  0  -0.630184  0  1.940564  0  0  -0.590458  0  2.175868  0  0  -0.620356  0  2.170964  0  0  -0.320909  -0.573438  0  2.178764  0
O  O92  1  0.02042989  0.55725758  0.87556967  1  0  -0.637008  0  2.204498  0  0  -0.578795  0  2.459072  0  0  -0.605343  0  2.444165  0  0  -0.464283  -0.566214  0  2.468014  0
O  O93  1  0.97957650  0.94274252  0.37557113  1  0  -0.636871  0  2.204447  0  0  -0.578686  0  2.458939  0  0  -0.605232  0  2.444041  0  0  -0.464246  -0.566106  0  2.467895  0
O  O94  1  0.97957306  0.44274456  0.12442882  1  0  -0.636967  0  2.204526  0  0  -0.578764  0  2.459055  0  0  -0.605311  0  2.444157  0  0  -0.464266  -0.566186  0  2.468007  0
O  O95  1  0.02042542  0.05725595  0.62442912  1  0  -0.63684  0  2.204603  0  0  -0.578691  0  2.459064  0  0  -0.605237  0  2.444161  0  0  -0.464256  -0.566102  0  2.468026  0
