# generated using pymatgen
data_UH14C8N2O7
_symmetry_space_group_name_H-M   'P 1'
_cell_length_a   8.64443272
_cell_length_b   9.48268662
_cell_length_c   9.64084391
_cell_angle_alpha   61.42966770
_cell_angle_beta   70.81752571
_cell_angle_gamma   66.14946171
_symmetry_Int_Tables_number   1
_chemical_formula_structural   UH14C8N2O7
_chemical_formula_sum   'U2 H28 C16 N4 O14'
_cell_volume   625.72466308
_cell_formula_units_Z   2
loop_
 _symmetry_equiv_pos_site_id
 _symmetry_equiv_pos_as_xyz
  1  'x, y, z'
loop_
 _atom_site_type_symbol
 _atom_site_label
 _atom_site_symmetry_multiplicity
 _atom_site_fract_x
 _atom_site_fract_y
 _atom_site_fract_z
 _atom_site_occupancy
 _atom_site_hle17_bader_spin_density
 _atom_site_hle17_ddec_charge
 _atom_site_hle17_ddec_spin_density
 _atom_site_hle17_ddec_sum_bond_order
 _atom_site_hle17_magmom
 _atom_site_hse06_10hf_bader_spin_density
 _atom_site_hse06_10hf_ddec_charge
 _atom_site_hse06_10hf_ddec_spin_density
 _atom_site_hse06_10hf_ddec_sum_bond_order
 _atom_site_hse06_10hf_magmom
 _atom_site_hse06_bader_spin_density
 _atom_site_hse06_ddec_charge
 _atom_site_hse06_ddec_spin_density
 _atom_site_hse06_ddec_sum_bond_order
 _atom_site_hse06_magmom
 _atom_site_pbe_bader_spin_density
 _atom_site_pbe_cm5_charge
 _atom_site_pbe_ddec_charge
 _atom_site_pbe_ddec_spin_density
 _atom_site_pbe_ddec_sum_bond_order
 _atom_site_pbe_magmom
U  U0  1  0.32876444  0.81991556  0.29357578  1  0  2.473864  0  4.168583  0  0  2.534021  0  4.829562  0  0  2.64583  0  4.790069  0  0  2.181229  2.454862  0  4.857604  0
U  U1  1  0.67123507  0.18008145  0.70642451  1  0  2.473848  0  4.168486  0  0  2.534028  0  4.829413  0  0  2.645783  0  4.790014  0  0  2.181199  2.454855  0  4.857477  0
H  H2  1  0.98490423  0.43097844  0.32362398  1  0  0.301032  0  0.938459  0  0  0.284988  0  0.997799  0  0  0.293427  0  0.991854  0  0  0.306818  0.279068  0  1.001897  0
H  H3  1  0.01509416  0.56902235  0.67637589  1  0  0.301011  0  0.938527  0  0  0.28495  0  0.997864  0  0  0.293391  0  0.991916  0  0  0.306818  0.27903  0  1.001962  0
H  H4  1  0.36096210  0.41445380  0.41486568  1  0  0.308215  0  0.890402  0  0  0.289081  0  0.956264  0  0  0.295922  0  0.951232  0  0  0.328542  0.28444  0  0.959708  0
H  H5  1  0.63903703  0.58554447  0.58513516  1  0  0.308261  0  0.890328  0  0  0.289086  0  0.956246  0  0  0.295927  0  0.951214  0  0  0.328545  0.284446  0  0.95969  0
H  H6  1  0.24994695  0.52023691  0.86069205  1  0  0.118022  0  0.92439  0  0  0.135362  0  0.977172  0  0  0.137721  0  0.975933  0  0  0.112249  0.13323  0  0.978841  0
H  H7  1  0.75005795  0.47976257  0.13930860  1  0  0.118029  0  0.924407  0  0  0.13535  0  0.977186  0  0  0.13771  0  0.975947  0  0  0.112251  0.13322  0  0.978853  0
H  H8  1  0.08121036  0.70606884  0.85624377  1  0  0.120701  0  0.924515  0  0  0.139666  0  0.976185  0  0  0.141968  0  0.974952  0  0  0.108672  0.138109  0  0.976993  0
H  H9  1  0.91879245  0.29392941  0.14375808  1  0  0.120697  0  0.924533  0  0  0.139647  0  0.976198  0  0  0.141955  0  0.974959  0  0  0.108668  0.138091  0  0.977005  0
H  H10  1  0.32243546  0.62420494  0.00891974  1  0  0.069591  0  0.946063  0  0  0.085792  0  1.009524  0  0  0.08658  0  1.010244  0  0  0.095691  0.085381  0  1.008668  0
H  H11  1  0.67756747  0.37579706  0.99107926  1  0  0.069588  0  0.94606  0  0  0.08579  0  1.00953  0  0  0.086578  0  1.01025  0  0  0.095688  0.085377  0  1.008673  0
H  H12  1  0.46265162  0.66277744  0.82358615  1  0  0.068727  0  0.945652  0  0  0.087707  0  1.005599  0  0  0.088523  0  1.00637  0  0  0.095222  0.086969  0  1.005282  0
H  H13  1  0.53735255  0.33722455  0.17641353  1  0  0.068771  0  0.945605  0  0  0.087738  0  1.005573  0  0  0.088552  0  1.006345  0  0  0.095248  0.086997  0  1.00526  0
H  H14  1  0.25207971  0.96411599  0.72155126  1  0  0.110815  0  0.95217  0  0  0.124689  0  1.012632  0  0  0.126757  0  1.012333  0  0  0.106204  0.123199  0  1.012998  0
H  H15  1  0.74791868  0.03588480  0.27844965  1  0  0.110858  0  0.952169  0  0  0.124712  0  1.012631  0  0  0.126778  0  1.012331  0  0  0.106206  0.123222  0  1.012997  0
H  H16  1  0.14420675  0.91668587  0.92335752  1  0  0.107529  0  0.929931  0  0  0.121575  0  0.991934  0  0  0.12338  0  0.991472  0  0  0.109931  0.120369  0  0.992111  0
H  H17  1  0.85579484  0.08331238  0.07664468  1  0  0.107536  0  0.929945  0  0  0.121583  0  0.99192  0  0  0.123387  0  0.991458  0  0  0.109912  0.120374  0  0.992098  0
H  H18  1  0.79172151  0.65855369  0.17847759  1  0  0.098437  0  0.958956  0  0  0.118372  0  1.022168  0  0  0.119259  0  1.021224  0  0  0.112802  0.117373  0  1.023566  0
H  H19  1  0.20827774  0.34144834  0.82152040  1  0  0.098444  0  0.958945  0  0  0.118376  0  1.022165  0  0  0.119264  0  1.02122  0  0  0.112805  0.117377  0  1.023565  0
H  H20  1  0.82753823  0.76525173  0.26801364  1  0  0.088982  0  0.967241  0  0  0.109821  0  1.031918  0  0  0.109907  0  1.032899  0  0  0.104624  0.109424  0  1.031772  0
H  H21  1  0.17246385  0.23474902  0.73198517  1  0  0.088979  0  0.967226  0  0  0.109819  0  1.031904  0  0  0.109906  0  1.032885  0  0  0.104608  0.109421  0  1.031757  0
H  H22  1  0.94443059  0.77308514  0.07533124  1  0  0.085602  0  0.950805  0  0  0.106916  0  1.014933  0  0  0.106719  0  1.015229  0  0  0.10381  0.106961  0  1.014801  0
H  H23  1  0.05557026  0.22691562  0.92466792  1  0  0.085611  0  0.95079  0  0  0.106905  0  1.014947  0  0  0.106707  0  1.015244  0  0  0.103796  0.10695  0  1.014814  0
H  H24  1  0.37164460  0.14496307  0.47830070  1  0  0.121598  0  0.937379  0  0  0.142083  0  0.998014  0  0  0.14436  0  0.995976  0  0  0.11882  0.140443  0  0.99945  0
H  H25  1  0.62835454  0.85503520  0.52169807  1  0  0.121652  0  0.937356  0  0  0.142106  0  0.998017  0  0  0.144384  0  0.995978  0  0  0.118841  0.140465  0  0.999452  0
H  H26  1  0.14246177  0.21036953  0.50493247  1  0  0.096708  0  0.940908  0  0  0.115981  0  1.005932  0  0  0.116834  0  1.005293  0  0  0.110167  0.115393  0  1.006506  0
H  H27  1  0.85753700  0.78963000  0.49506581  1  0  0.096698  0  0.940902  0  0  0.115963  0  1.005927  0  0  0.116815  0  1.005289  0  0  0.110155  0.115375  0  1.006502  0
H  H28  1  0.26642346  0.22559165  0.31303875  1  0  0.093464  0  0.935369  0  0  0.111902  0  1.001263  0  0  0.112524  0  1.000807  0  0  0.107508  0.111823  0  1.001172  0
H  H29  1  0.73357616  0.77440912  0.68695870  1  0  0.093479  0  0.935384  0  0  0.111907  0  1.001276  0  0  0.112529  0  1.00082  0  0  0.10752  0.11183  0  1.001187  0
C  C30  1  0.24714185  0.72360177  0.63557410  1  0  0.710018  0  3.790544  0  0  0.671521  0  4.095283  0  0  0.707328  0  4.087404  0  0  0.218746  0.647303  0  4.098943  0
C  C31  1  0.75285900  0.27639900  0.36442610  1  0  0.710198  0  3.790355  0  0  0.671575  0  4.095238  0  0  0.707382  0  4.087354  0  0  0.218767  0.647359  0  4.098896  0
C  C32  1  0.21943566  0.65758531  0.81581927  1  0  -0.266536  0  3.64861  0  0  -0.301254  0  3.889519  0  0  -0.306687  0  3.896487  0  0  -0.156299  -0.297544  0  3.884741  0
C  C33  1  0.78056802  0.34241417  0.18418070  1  0  -0.266584  0  3.648708  0  0  -0.30119  0  3.889562  0  0  -0.30663  0  3.896532  0  0  -0.15627  -0.297481  0  3.884785  0
C  C34  1  0.32795103  0.69939175  0.87956500  1  0  -0.041413  0  3.654595  0  0  -0.083302  0  3.911937  0  0  -0.08257  0  3.925122  0  0  -0.155142  -0.083667  0  3.902506  0
C  C35  1  0.67205105  0.30060900  0.12043381  1  0  -0.041375  0  3.654648  0  0  -0.083303  0  3.911987  0  0  -0.082567  0  3.925161  0  0  -0.155158  -0.083671  0  3.902556  0
C  C36  1  0.26846555  0.88711387  0.84676949  1  0  -0.281652  0  3.655048  0  0  -0.323257  0  3.898352  0  0  -0.330205  0  3.906496  0  0  -0.157797  -0.31824  0  3.892816  0
C  C37  1  0.73153444  0.11288565  0.15323155  1  0  -0.281819  0  3.655166  0  0  -0.323353  0  3.898415  0  0  -0.330295  0  3.90655  0  0  -0.1578  -0.318331  0  3.892873  0
C  C38  1  0.39438958  0.93337365  0.88276723  1  0  0.769118  0  3.757165  0  0  0.746916  0  4.039096  0  0  0.786984  0  4.024973  0  0  0.259819  0.718737  0  4.048571  0
C  C39  1  0.60561336  0.06662835  0.11723177  1  0  0.769266  0  3.756887  0  0  0.747016  0  4.038869  0  0  0.787083  0  4.024745  0  0  0.25988  0.718839  0  4.048336  0
C  C40  1  0.14886978  0.54726886  0.31092117  1  0  0.713823  0  3.876882  0  0  0.652457  0  4.176192  0  0  0.689484  0  4.170975  0  0  0.346013  0.627211  0  4.178739  0
C  C41  1  0.85112935  0.45272941  0.68907967  1  0  0.713738  0  3.876913  0  0  0.652305  0  4.176273  0  0  0.689329  0  4.171062  0  0  0.345983  0.627059  0  4.178817  0
C  C42  1  0.88984701  0.69294225  0.19325694  1  0  -0.100291  0  3.672469  0  0  -0.202062  0  3.931169  0  0  -0.196326  0  3.939896  0  0  -0.133598  -0.205562  0  3.925749  0
C  C43  1  0.11015139  0.30705854  0.80674190  1  0  -0.100302  0  3.672485  0  0  -0.202089  0  3.931166  0  0  -0.196354  0  3.939892  0  0  -0.133577  -0.20559  0  3.925746  0
C  C44  1  0.25984613  0.23748519  0.42303057  1  0  -0.113284  0  3.653696  0  0  -0.216039  0  3.923656  0  0  -0.210917  0  3.929918  0  0  -0.130547  -0.219509  0  3.919144  0
C  C45  1  0.74015105  0.76251560  0.57696655  1  0  -0.113328  0  3.653707  0  0  -0.216026  0  3.923626  0  0  -0.210902  0  3.929887  0  0  -0.130559  -0.219501  0  3.91912  0
N  N46  1  0.02013897  0.53970463  0.26807919  1  0  -0.428659  0  3.282639  0  0  -0.361124  0  3.529764  0  0  -0.384096  0  3.537399  0  0  -0.431098  -0.345663  0  3.524268  0
N  N47  1  0.97986065  0.46029615  0.73192136  1  0  -0.428644  0  3.282662  0  0  -0.361007  0  3.529722  0  0  -0.383974  0  3.537356  0  0  -0.431099  -0.345546  0  3.524226  0
N  N48  1  0.26247265  0.40360954  0.38862621  1  0  -0.435531  0  3.32234  0  0  -0.376902  0  3.589684  0  0  -0.397475  0  3.595935  0  0  -0.424303  -0.362682  0  3.584943  0
N  N49  1  0.73752489  0.59639000  0.61137347  1  0  -0.435602  0  3.322319  0  0  -0.376939  0  3.589699  0  0  -0.397511  0  3.59595  0  0  -0.424346  -0.36272  0  3.584961  0
O  O50  1  0.15909622  0.01865596  0.24928248  1  0  -0.722206  0  1.504621  0  0  -0.730496  0  1.778645  0  0  -0.75093  0  1.764793  0  0  -0.7659  -0.718524  0  1.788643  0
O  O51  1  0.84090207  0.98134106  0.75071609  1  0  -0.722208  0  1.504619  0  0  -0.730511  0  1.778645  0  0  -0.750933  0  1.764802  0  0  -0.765924  -0.718537  0  1.788646  0
O  O52  1  0.49957417  0.62171280  0.33157547  1  0  -0.72267  0  1.589658  0  0  -0.729277  0  1.890097  0  0  -0.75088  0  1.876736  0  0  -0.754168  -0.716452  0  1.900339  0
O  O53  1  0.50042337  0.37828673  0.66842316  1  0  -0.722618  0  1.589522  0  0  -0.729231  0  1.889948  0  0  -0.750823  0  1.876595  0  0  -0.754096  -0.716404  0  1.900189  0
O  O54  1  0.16017716  0.70047567  0.56722151  1  0  -0.658153  0  1.99556  0  0  -0.63376  0  2.248606  0  0  -0.665404  0  2.243789  0  0  -0.338879  -0.610902  0  2.249886  0
O  O55  1  0.83982123  0.29952512  0.43278044  1  0  -0.658226  0  1.995488  0  0  -0.633816  0  2.248613  0  0  -0.665455  0  2.243799  0  0  -0.338913  -0.61096  0  2.249906  0
O  O56  1  0.35909773  0.80113380  0.54719429  1  0  -0.638105  0  1.964869  0  0  -0.610281  0  2.215104  0  0  -0.642551  0  2.211608  0  0  -0.3438  -0.586714  0  2.216  0
O  O57  1  0.64090349  0.19886570  0.45280536  1  0  -0.638188  0  1.964777  0  0  -0.61032  0  2.215059  0  0  -0.642584  0  2.211562  0  0  -0.343799  -0.586746  0  2.21595  0
O  O58  1  0.47428957  0.03280780  0.76876692  1  0  -0.660002  0  2.042656  0  0  -0.646957  0  2.311983  0  0  -0.681578  0  2.304694  0  0  -0.356205  -0.621889  0  2.316228  0
O  O59  1  0.52570748  0.96718924  0.23123408  1  0  -0.660065  0  2.042426  0  0  -0.647011  0  2.311788  0  0  -0.681642  0  2.304495  0  0  -0.356236  -0.621946  0  2.316029  0
O  O60  1  0.41823656  0.86740901  0.02752813  1  0  -0.687155  0  2.078321  0  0  -0.675661  0  2.352716  0  0  -0.712394  0  2.344454  0  0  -0.384433  -0.648747  0  2.357014  0
O  O61  1  0.58176158  0.13259680  0.97246944  1  0  -0.687191  0  2.078263  0  0  -0.675678  0  2.352658  0  0  -0.712402  0  2.344398  0  0  -0.384447  -0.648763  0  2.356955  0
O  O62  1  0.16143120  0.69244144  0.27376678  1  0  -0.700597  0  2.061204  0  0  -0.688484  0  2.355817  0  0  -0.721499  0  2.349109  0  0  -0.394714  -0.664203  0  2.357704  0
O  O63  1  0.83856917  0.30755683  0.72623475  1  0  -0.700507  0  2.061157  0  0  -0.688376  0  2.355787  0  0  -0.721385  0  2.349093  0  0  -0.394644  -0.664089  0  2.35767  0
