# generated using pymatgen
data_CuH20C25N2O3
_symmetry_space_group_name_H-M   'P 1'
_cell_length_a   5.17993079
_cell_length_b   10.09223494
_cell_length_c   19.91474810
_cell_angle_alpha   99.88646241
_cell_angle_beta   89.99862810
_cell_angle_gamma   90.00033092
_symmetry_Int_Tables_number   1
_chemical_formula_structural   CuH20C25N2O3
_chemical_formula_sum   'Cu2 H40 C50 N4 O6'
_cell_volume   1025.62465790
_cell_formula_units_Z   2
loop_
 _symmetry_equiv_pos_site_id
 _symmetry_equiv_pos_as_xyz
  1  'x, y, z'
loop_
 _atom_site_type_symbol
 _atom_site_label
 _atom_site_symmetry_multiplicity
 _atom_site_fract_x
 _atom_site_fract_y
 _atom_site_fract_z
 _atom_site_occupancy
 _atom_site_pbe_bader_charge
 _atom_site_pbe_bader_spin_density
 _atom_site_pbe_cm5_charge
 _atom_site_pbe_ddec_charge
 _atom_site_pbe_ddec_spin_density
 _atom_site_pbe_ddec_sum_bond_order
 _atom_site_pbe_magmom
Cu  Cu0  1  0.60684009  0.43562898  0.18481869  1  1.041904  0.547151  0.739366  0.725255  0.741368  2.334819  0.546
Cu  Cu1  1  0.10688379  0.56437091  0.81518530  1  1.041969  -0.547131  0.739389  0.72538  -0.741356  2.334905  -0.546
H  H2  1  0.02712037  0.62702803  0.33347436  1  0.083572  -0.000228  0.100791  0.114703  -0.000107  1.03472  0.0
H  H3  1  0.52716702  0.37299604  0.66653792  1  0.08349  0.000228  0.100898  0.114977  0.000108  1.034544  0.0
H  H4  1  0.84544315  0.54543654  0.43462852  1  0.085756  0.001031  0.099376  0.099321  0.000539  1.029318  0.001
H  H5  1  0.34547051  0.45458826  0.56538725  1  0.085852  -0.001031  0.099324  0.099189  -0.00054  1.029187  -0.001
H  H6  1  0.81900792  0.37575842  0.50599926  1  0.103143  6.3e-05  0.095232  0.095591  5.3e-05  1.048578  0.0
H  H7  1  0.31908650  0.62424669  0.49400669  1  0.103166  -6.3e-05  0.095233  0.095622  -5.3e-05  1.048538  0.0
H  H8  1  0.98020591  0.16743208  0.54223308  1  0.021344  1.6e-05  0.096038  0.090981  5e-06  1.035211  0.0
H  H9  1  0.48031945  0.83258242  0.45777599  1  0.022519  -1.6e-05  0.096118  0.091039  -5e-06  1.035511  0.0
H  H10  1  0.37009113  0.05220004  0.48535710  1  0.058889  2.5e-05  0.095767  0.088637  8e-06  1.031527  0.0
H  H11  1  0.87018805  0.94780494  0.51464758  1  0.05885  -2.5e-05  0.095731  0.088605  -8e-06  1.031455  0.0
H  H12  1  0.57760216  0.13379754  0.39074675  1  0.075593  0.000451  0.095472  0.095088  0.000328  1.046991  0.0
H  H13  1  0.07770395  0.86620573  0.60925120  1  0.075282  -0.000452  0.095546  0.095371  -0.000328  1.046735  0.0
H  H14  1  0.74766916  0.21713056  0.32302006  1  0.092832  0.012056  0.114927  0.077484  0.006382  1.03385  0.008
H  H15  1  0.24779208  0.78287121  0.67697537  1  0.092564  -0.012071  0.114846  0.077469  -0.00639  1.03358  -0.008
H  H16  1  0.11148746  0.23511400  0.24702558  1  0.070103  0.001901  0.109865  0.0771  0.001038  1.013847  0.001
H  H17  1  0.61156473  0.76488383  0.75297920  1  0.0697  -0.001901  0.109814  0.077031  -0.001038  1.013862  -0.001
H  H18  1  0.73195670  0.08015762  0.14418729  1  0.041342  0.000193  0.099913  0.111862  0.000105  0.974773  0.0
H  H19  1  0.23199832  0.91984824  0.85580811  1  0.041645  -0.000193  0.099922  0.111765  -0.000105  0.974893  0.0
H  H20  1  0.06598361  0.04320467  0.15064001  1  0.055805  0.001148  0.099024  0.107573  0.000633  0.99294  0.001
H  H21  1  0.56603069  0.95681383  0.84935696  1  0.055944  -0.001148  0.098974  0.107423  -0.000633  0.992793  -0.001
H  H22  1  0.16107359  0.05996294  0.29791998  1  0.037235  6.9e-05  0.095316  0.096887  3.7e-05  1.039368  0.0
H  H23  1  0.66112085  0.94003056  0.70206304  1  0.036509  -6.9e-05  0.095219  0.096808  -3.7e-05  1.03942  0.0
H  H24  1  0.05992535  0.91340968  0.38113349  1  0.069882  -8e-06  0.095557  0.089702  -7e-06  1.025204  0.0
H  H25  1  0.55995558  0.08658200  0.61885337  1  0.071594  9e-06  0.095464  0.089493  7e-06  1.025409  0.0
H  H26  1  0.67658104  0.76005348  0.36324812  1  0.053636  -2e-06  0.096707  0.095565  -5e-06  1.027976  0.0
H  H27  1  0.17661961  0.23993748  0.63674611  1  0.054216  2e-06  0.09674  0.095636  5e-06  1.028042  0.0
H  H28  1  0.39504993  0.76029891  0.26327055  1  0.096845  0.0001  0.097254  0.096392  0.000148  1.048168  0.0
H  H29  1  0.89509671  0.23968109  0.73672554  1  0.096929  -0.0001  0.097191  0.096276  -0.000147  1.048593  0.0
H  H30  1  0.49039765  0.91276144  0.18043863  1  0.071229  -3e-06  0.093164  0.090894  -9e-06  1.040061  0.0
H  H31  1  0.99042528  0.08722234  0.81955585  1  0.071084  3e-06  0.093137  0.090809  9e-06  1.039944  0.0
H  H32  1  0.80062097  0.51944348  0.05970221  1  0.143817  0.001165  0.113982  0.088983  0.000543  1.056403  0.001
H  H33  1  0.30063511  0.48053246  0.94030250  1  0.144216  -0.001165  0.114008  0.089029  -0.000543  1.056431  -0.001
H  H34  1  0.67515418  0.68091702  0.98211243  1  0.136428  0.000656  0.108358  0.127639  0.000296  1.024382  0.0
H  H35  1  0.17514295  0.31904250  0.01788528  1  0.136255  -0.000657  0.108348  0.127674  -0.000297  1.024305  0.0
H  H36  1  0.26869232  0.81572590  0.00797902  1  0.079148  0.000244  0.116302  0.11736  0.000144  0.96235  0.0
H  H37  1  0.76864206  0.18426360  0.99201813  1  0.079004  -0.000244  0.116332  0.117353  -0.000144  0.962278  0.0
H  H38  1  0.00919626  0.78463992  0.11162149  1  0.094905  0.00072  0.106957  0.110806  0.000386  1.017193  0.0
H  H39  1  0.50918138  0.21537259  0.88837870  1  0.098125  -0.000717  0.107011  0.110887  -0.000386  1.017295  0.0
H  H40  1  0.16342955  0.61911828  0.18260443  1  0.14948  0.001165  0.119966  0.092759  0.000533  1.022553  0.002
H  H41  1  0.66347538  0.38087480  0.81738857  1  0.149662  -0.001164  0.11991  0.092673  -0.000533  1.022543  -0.002
C  C42  1  0.42704852  0.35558188  0.33312513  1  -0.049308  0.00742  -0.044225  -0.164482  0.004947  4.004272  0.007
C  C43  1  0.92712600  0.64441696  0.66687665  1  -0.048381  -0.007423  -0.044246  -0.164548  -0.004952  4.004035  -0.007
C  C44  1  0.30942429  0.46871438  0.31090534  1  0.704094  -0.00084  0.099422  0.335413  0.000934  4.083925  -0.002
C  C45  1  0.80949999  0.53128774  0.68910036  1  0.703393  0.000835  0.099459  0.335771  -0.000934  4.083591  0.002
C  C46  1  0.10558832  0.53881142  0.35098726  1  -0.072257  0.011916  -0.105763  -0.199605  0.008638  3.963271  0.01
C  C47  1  0.60563746  0.46120629  0.64902550  1  -0.072671  -0.011914  -0.105848  -0.200019  -0.008638  3.963422  -0.01
C  C48  1  0.00641344  0.49303208  0.40618474  1  -0.056212  -0.001494  -0.082079  -0.090406  -0.001087  4.006567  -0.001
C  C49  1  0.50647184  0.50699390  0.59383184  1  -0.055431  0.001496  -0.08188  -0.090045  0.001088  4.006339  0.001
C  C50  1  0.10492545  0.37444054  0.42709256  1  -0.06879  0.000595  -0.020232  0.039893  0.000417  4.0235  0.0
C  C51  1  0.60500880  0.62557727  0.57291771  1  -0.069139  -0.000596  -0.020396  0.039646  -0.000418  4.023639  0.0
C  C52  1  0.98587756  0.32289966  0.48102245  1  -0.068879  -0.000489  -0.091839  -0.121844  -0.000307  3.998303  0.0
C  C53  1  0.48596263  0.67710975  0.51898709  1  -0.069238  0.00049  -0.091971  -0.122154  0.000308  3.998462  0.0
C  C54  1  0.07680089  0.20742815  0.50141240  1  -0.058549  0.000184  -0.106364  -0.113529  0.00011  4.064004  0.0
C  C55  1  0.57690675  0.79259404  0.49859191  1  -0.057621  -0.000186  -0.106486  -0.113664  -0.000111  4.064183  0.0
C  C56  1  0.29466566  0.14226598  0.46877310  1  -0.036747  -0.000682  -0.097121  -0.080155  -0.00047  4.034456  0.0
C  C57  1  0.79476208  0.85774340  0.53122937  1  -0.038226  0.000682  -0.096897  -0.079733  0.00047  4.034189  0.0
C  C58  1  0.41347394  0.18992550  0.41526538  1  -0.061082  0.001071  -0.097542  -0.142297  0.000764  3.986891  0.001
C  C59  1  0.91355929  0.81007950  0.58473506  1  -0.061118  -0.001073  -0.097673  -0.142836  -0.000765  3.986776  -0.001
C  C60  1  0.32183472  0.30661247  0.39187130  1  -0.015078  -0.001194  -0.005026  0.051142  -0.000734  3.963347  -0.001
C  C61  1  0.82192386  0.69339256  0.60813613  1  -0.014451  0.001194  -0.005032  0.051371  0.000734  3.963228  0.001
C  C62  1  0.64414123  0.28920454  0.29764131  1  0.590001  -0.004423  0.068578  0.115891  -0.002265  3.962391  -0.003
C  C63  1  0.14421879  0.71078718  0.70236170  1  0.58911  0.004423  0.068884  0.116172  0.002267  3.9624  0.003
C  C64  1  0.95694287  0.23114860  0.20881153  1  0.310394  0.005321  -0.000447  -0.00725  0.004401  3.877749  0.003
C  C65  1  0.45700851  0.76886434  0.79118846  1  0.310129  -0.005319  -0.00058  -0.007452  -0.004398  3.877768  -0.003
C  C66  1  0.06209721  0.29569075  0.14994579  1  1.588782  -0.001365  0.202038  0.569759  0.00024  4.16658  -0.002
C  C67  1  0.56217760  0.70432538  0.85006001  1  1.589165  0.001362  0.202238  0.569691  -0.000241  4.166693  0.002
C  C68  1  0.89414227  0.08279020  0.18008326  1  -0.023832  0.001591  -0.15211  -0.228481  0.001191  3.914271  0.001
C  C69  1  0.39419160  0.91720812  0.81990960  1  -0.024009  -0.00159  -0.151983  -0.227998  -0.00119  3.914228  -0.001
C  C70  1  0.83289670  0.99646156  0.23270426  1  -0.043211  0.000334  -0.017099  0.111492  0.000229  3.975499  0.0
C  C71  1  0.33294326  0.00352814  0.76728254  1  -0.043046  -0.000335  -0.017262  0.110996  -0.00023  3.975599  0.0
C  C72  1  0.99127212  0.99538114  0.28984896  1  -0.038658  0.000443  -0.099529  -0.15092  0.000352  3.977791  0.0
C  C73  1  0.49131724  0.00461601  0.71013927  1  -0.038429  -0.000443  -0.099394  -0.150798  -0.000353  3.977438  0.0
C  C74  1  0.93468074  0.91200687  0.33695957  1  -0.054308  0.000187  -0.095476  -0.080357  0.000128  4.028801  0.0
C  C75  1  0.43471213  0.08798559  0.66302498  1  -0.056466  -0.000188  -0.09529  -0.079929  -0.000128  4.028467  0.0
C  C76  1  0.72029689  0.82669087  0.32717315  1  -0.059337  -1.5e-05  -0.099838  -0.102757  -4e-05  4.020247  0.0
C  C77  1  0.22033929  0.17330015  0.67281585  1  -0.059653  1.5e-05  -0.100014  -0.103078  4e-05  4.02032  0.0
C  C78  1  0.56133261  0.82699842  0.27076634  1  -0.109103  0.000252  -0.095033  -0.075126  0.000129  4.028859  0.0
C  C79  1  0.06135338  0.17298900  0.72922562  1  -0.10889  -0.000253  -0.094872  -0.074894  -0.000129  4.029133  0.0
C  C80  1  0.61648767  0.91211556  0.22430508  1  -0.049594  -1e-05  -0.099001  -0.146449  -3.1e-05  3.976387  0.0
C  C81  1  0.11652991  0.08787786  0.77568367  1  -0.04931  1e-05  -0.098971  -0.146211  3.1e-05  3.976265  0.0
C  C82  1  0.62808815  0.58127432  0.06890959  1  0.463881  -0.000659  0.043003  0.081549  0.000176  3.918923  0.0
C  C83  1  0.12809769  0.41870845  0.93109162  1  0.464309  0.000659  0.04307  0.081473  -0.000177  3.919046  0.0
C  C84  1  0.55749621  0.67129384  0.02648641  1  -0.057611  0.004622  -0.082597  -0.123019  0.003168  3.951288  0.004
C  C85  1  0.05747153  0.32868721  0.97351349  1  -0.057674  -0.004624  -0.082683  -0.123073  -0.003169  3.951142  -0.004
C  C86  1  0.33178690  0.74629385  0.04104436  1  -0.063124  -0.003273  -0.061482  -0.022551  -0.002225  3.94412  -0.002
C  C87  1  0.83174415  0.25369550  0.95895095  1  -0.062489  0.00327  -0.061588  -0.022714  0.002223  3.944802  0.002
C  C88  1  0.18685689  0.72889868  0.09790215  1  -0.061508  0.004957  -0.083655  -0.137026  0.003426  3.984605  0.004
C  C89  1  0.68683630  0.27109872  0.90210622  1  -0.065303  -0.00496  -0.083574  -0.136893  -0.003427  3.984832  -0.004
C  C90  1  0.27010741  0.63685577  0.13792795  1  0.478596  -0.000638  0.049379  0.100353  0.000151  3.918657  0.0
C  C91  1  0.77014593  0.36313758  0.86207359  1  0.47928  0.00064  0.049467  0.100386  -0.00015  3.918376  0.0
N  N92  1  0.73142001  0.30667355  0.23840970  1  -1.142  0.106923  -0.385656  -0.281434  0.074121  3.581781  0.091
N  N93  1  0.23148867  0.69332420  0.76158643  1  -1.140756  -0.106939  -0.385718  -0.281479  -0.074135  3.581888  -0.091
N  N94  1  0.48825485  0.56465497  0.12406244  1  -1.204109  0.064295  -0.345522  -0.226945  0.045425  3.581833  0.056
N  N95  1  0.98829003  0.43534453  0.87594262  1  -1.205676  -0.064298  -0.34567  -0.226922  -0.045425  3.582019  -0.056
O  O96  1  0.37114885  0.51476468  0.25582173  1  -1.104581  0.112929  -0.325358  -0.49114  0.076421  2.436338  0.104
O  O97  1  0.87123846  0.48523154  0.74417505  1  -1.104847  -0.112873  -0.325363  -0.491462  -0.076384  2.436722  -0.104
O  O98  1  0.91674423  0.38508519  0.12935242  1  -1.116563  0.10273  -0.327663  -0.54328  0.069331  2.385792  0.094
O  O99  1  0.41672732  0.61492636  0.87066019  1  -1.116352  -0.102794  -0.32781  -0.543458  -0.069374  2.385171  -0.094
O  O100  1  0.27494072  0.25824146  0.12387761  1  -1.184206  0.020785  -0.331121  -0.567016  0.013915  2.146433  0.018
O  O101  1  0.77496912  0.74174607  0.87611781  1  -1.184774  -0.020747  -0.331051  -0.566656  -0.013891  2.147486  -0.018
