# generated using pymatgen
data_AgH7C5(NO)2
_symmetry_space_group_name_H-M   'P 1'
_cell_length_a   12.26887726
_cell_length_b   12.86673561
_cell_length_c   12.44127643
_cell_angle_alpha   83.92366294
_cell_angle_beta   77.17098370
_cell_angle_gamma   61.52568769
_symmetry_Int_Tables_number   1
_chemical_formula_structural   AgH7C5(NO)2
_chemical_formula_sum   'Ag8 H56 C40 N16 O16'
_cell_volume   1683.30733265
_cell_formula_units_Z   8
loop_
 _symmetry_equiv_pos_site_id
 _symmetry_equiv_pos_as_xyz
  1  'x, y, z'
loop_
 _atom_site_type_symbol
 _atom_site_label
 _atom_site_symmetry_multiplicity
 _atom_site_fract_x
 _atom_site_fract_y
 _atom_site_fract_z
 _atom_site_occupancy
 _atom_site_pbe_bader_charge
 _atom_site_pbe_bader_spin_density
 _atom_site_pbe_cm5_charge
 _atom_site_pbe_ddec_charge
 _atom_site_pbe_ddec_spin_density
 _atom_site_pbe_ddec_sum_bond_order
 _atom_site_pbe_magmom
Ag  Ag0  1  0.41815172  0.11300126  0.98194793  1  0.554139  0  0.404653  0.318147  0  2.130002  0
Ag  Ag1  1  0.46883936  0.11300415  0.51805323  1  0.553862  0  0.404659  0.318144  0  2.130158  0
Ag  Ag2  1  0.58184507  0.88699835  0.01805488  1  0.553914  0  0.404645  0.318092  0  2.130084  0
Ag  Ag3  1  0.53115984  0.88699900  0.48194786  1  0.553436  0  0.404658  0.318128  0  2.130169  0
Ag  Ag4  1  0.49750569  0.49305502  0.21295269  1  0.525249  0  0.45829  0.316003  0  1.771725  0
Ag  Ag5  1  0.00943833  0.49306208  0.28704815  1  0.525323  0  0.458242  0.315964  0  1.771727  0
Ag  Ag6  1  0.50249616  0.50694282  0.78704920  1  0.525237  0  0.45826  0.315975  0  1.77173  0
Ag  Ag7  1  0.99055920  0.50694108  0.71295170  1  0.525344  0  0.458273  0.31599  0  1.771718  0
H  H8  1  0.53090299  0.08767702  0.23800105  1  0.103508  0  0.126574  0.096132  0  0.962044  0
H  H9  1  0.38141849  0.08767702  0.26199901  1  0.079709  0  0.126561  0.096105  0  0.962036  0
H  H10  1  0.46909709  0.91232436  0.76199682  1  0.103498  0  0.126557  0.096072  0  0.96211  0
H  H11  1  0.61858198  0.91232524  0.73799948  1  0.079696  0  0.12655  0.096095  0  0.962043  0
H  H12  1  0.44119994  0.34826256  0.06251037  1  0.110697  0  0.124232  0.101324  0  0.988015  0
H  H13  1  0.21053512  0.34826524  0.43748981  1  0.112347  0  0.124246  0.101368  0  0.987929  0
H  H14  1  0.55879758  0.65174059  0.93748868  1  0.110722  0  0.124232  0.101316  0  0.988069  0
H  H15  1  0.78946417  0.65173438  0.56250924  1  0.11206  0  0.12424  0.101351  0  0.987914  0
H  H16  1  0.56340936  0.23614526  0.12402337  1  0.133539  0  0.128781  0.105922  0  0.950599  0
H  H17  1  0.20044324  0.23614540  0.37597671  1  0.100292  0  0.128793  0.105944  0  0.950553  0
H  H18  1  0.43658772  0.76385877  0.87597648  1  0.133444  0  0.128761  0.105875  0  0.950641  0
H  H19  1  0.79955433  0.76385598  0.62402172  1  0.100505  0  0.128791  0.105917  0  0.950576  0
H  H20  1  0.23660138  0.35024395  0.09535333  1  0.04471  0  0.115884  0.077391  0  0.995784  0
H  H21  1  0.41315103  0.35024751  0.40464785  1  0.060075  0  0.115894  0.07737  0  0.995793  0
H  H22  1  0.76339575  0.64975832  0.90464750  1  0.044645  0  0.115863  0.077344  0  0.995752  0
H  H23  1  0.58684655  0.64975388  0.59535218  1  0.060083  0  0.115901  0.077399  0  0.995776  0
H  H24  1  0.21307039  0.23747236  0.17827294  1  0.076427  0  0.124337  0.096988  0  0.971572  0
H  H25  1  0.54945422  0.23747430  0.32172796  1  0.080788  0  0.124312  0.09695  0  0.971596  0
H  H26  1  0.78692630  0.76253079  0.82172709  1  0.076381  0  0.124298  0.096913  0  0.971624  0
H  H27  1  0.45054419  0.76252709  0.67827189  1  0.080797  0  0.124308  0.096925  0  0.97159  0
H  H28  1  0.25461741  0.50135771  0.17755167  1  0.108113  0  0.125081  0.10464  0  0.968683  0
H  H29  1  0.24402290  0.50135847  0.32245018  1  0.108311  0  0.125104  0.104665  0  0.968812  0
H  H30  1  0.74537928  0.49864544  0.82244837  1  0.108138  0  0.125087  0.104656  0  0.968659  0
H  H31  1  0.75597512  0.49864202  0.67755066  1  0.108335  0  0.125073  0.1046  0  0.968707  0
H  H32  1  0.24087439  0.56244916  0.67638197  1  0.082313  0  0.1261  0.095213  0  0.956248  0
H  H33  1  0.19667480  0.56245168  0.82361922  1  0.089201  0  0.126075  0.095176  0  0.956255  0
H  H34  1  0.75912486  0.43755222  0.32361689  1  0.082369  0  0.126113  0.095231  0  0.956268  0
H  H35  1  0.80332489  0.43754882  0.17638044  1  0.089189  0  0.126094  0.095212  0  0.956225  0
H  H36  1  0.48577136  0.29860572  0.86417653  1  0.186056  0  0.125922  0.112371  0  1.033271  0
H  H37  1  0.21562066  0.29860516  0.63582489  1  0.174828  0  0.12595  0.112374  0  1.033424  0
H  H38  1  0.51422960  0.70139389  0.13582295  1  0.186054  0  0.125924  0.112368  0  1.033298  0
H  H39  1  0.78437859  0.70139622  0.36417478  1  0.174824  0  0.125991  0.112477  0  1.033286  0
H  H40  1  0.33477306  0.41239825  0.92954904  1  0.058155  0  0.11594  0.07805  0  0.983307  0
H  H41  1  0.25282817  0.41239628  0.57045250  1  0.047071  0  0.11594  0.07806  0  0.983219  0
H  H42  1  0.66522707  0.58760136  0.07045063  1  0.058143  0  0.115946  0.078064  0  0.983259  0
H  H43  1  0.74717107  0.58760510  0.42954476  1  0.046884  0  0.115934  0.078065  0  0.983249  0
H  H44  1  0.14543682  0.40984988  0.91463633  1  0.042436  0  0.115865  0.078124  0  0.969646  0
H  H45  1  0.44471220  0.40984574  0.58536555  1  0.046382  0  0.115861  0.078113  0  0.969636  0
H  H46  1  0.85456287  0.59015061  0.08536253  1  0.042434  0  0.11584  0.078079  0  0.969632  0
H  H47  1  0.55528754  0.59015299  0.41463270  1  0.046405  0  0.115872  0.078127  0  0.969621  0
H  H48  1  0.15226245  0.29855311  0.83324515  1  0.159797  0  0.130132  0.124816  0  0.979479  0
H  H49  1  0.54918395  0.29854902  0.66675546  1  0.17345  0  0.130143  0.124848  0  0.979429  0
H  H50  1  0.84773763  0.70144828  0.16675433  1  0.159459  0  0.13013  0.124803  0  0.979466  0
H  H51  1  0.45081662  0.70144970  0.33324340  1  0.173441  0  0.130122  0.124799  0  0.979489  0
H  H52  1  0.49699057  0.14992680  0.75667733  1  0.097032  0  0.12294  0.099036  0  0.99  0
H  H53  1  0.35307742  0.14992661  0.74332481  1  0.091167  0  0.122911  0.098994  0  0.990011  0
H  H54  1  0.50300829  0.85007370  0.24332172  1  0.097014  0  0.122927  0.099005  0  0.990024  0
H  H55  1  0.64692226  0.85007389  0.25667486  1  0.091171  0  0.122917  0.098995  0  0.990002  0
H  H56  1  0.09545782  0.00228777  0.07207760  1  0.07364  0  0.097786  0.11985  0  1.002809  0
H  H57  1  0.90224745  0.00230007  0.42792386  1  0.061701  0  0.0977  0.119737  0  1.002841  0
H  H58  1  0.90454413  0.99770654  0.92792144  1  0.073551  0  0.097717  0.11973  0  1.002888  0
H  H59  1  0.09775646  0.99769866  0.57207587  1  0.061699  0  0.097689  0.119746  0  1.002814  0
H  H60  1  0.10141261  0.81710447  0.13547298  1  0.118708  0  0.106711  0.126527  0  1.001755  0
H  H61  1  0.08147504  0.81711981  0.36452612  1  0.120469  0  0.106739  0.126569  0  1.001775  0
H  H62  1  0.89859017  0.18288984  0.86452749  1  0.118684  0  0.106703  0.126513  0  1.001754  0
H  H63  1  0.91852888  0.18287892  0.63547522  1  0.120521  0  0.106735  0.126567  0  1.001778  0
C  C64  1  0.42802257  0.14395513  0.24999932  1  0.534142  0  0.026777  -0.001749  0  3.884381  0
C  C65  1  0.57197755  0.85604448  0.74999794  1  0.534028  0  0.026787  -0.001714  0  3.884406  0
C  C66  1  0.46073665  0.29234645  0.13569980  1  0.49597  0  0.023145  0.010028  0  3.822238  0
C  C67  1  0.24691644  0.29235013  0.36430009  1  0.516442  0  0.023136  0.009956  0  3.822345  0
C  C68  1  0.53926132  0.70765582  0.86429925  1  0.496367  0  0.023131  0.010025  0  3.822362  0
C  C69  1  0.75308488  0.70765214  0.63569902  1  0.516501  0  0.023149  0.010038  0  3.822182  0
C  C70  1  0.25997028  0.29334289  0.16790633  1  0.559702  0  0.015007  -0.01314  0  3.906646  0
C  C71  1  0.44668558  0.29334480  0.33209474  1  0.55162  0  0.015038  -0.012983  0  3.906472  0
C  C72  1  0.74002808  0.70666026  0.83209173  1  0.559718  0  0.015054  -0.013019  0  3.906634  0
C  C73  1  0.55331455  0.70665481  0.66790332  1  0.551578  0  0.015  -0.013065  0  3.906513  0
C  C74  1  0.27777080  0.44445754  0.25000015  1  0.515396  0  0.013396  -0.006  0  3.811336  0
C  C75  1  0.72222717  0.55554473  0.75000050  1  0.515412  0  0.013419  -0.005925  0  3.811215  0
C  C76  1  0.24688749  0.50622536  0.75000023  1  0.536961  0  0.023043  -0.0084  0  3.87683  0
C  C77  1  0.75311347  0.49377426  0.24999845  1  0.536907  0  0.022993  -0.008493  0  3.876909  0
C  C78  1  0.38679381  0.35433909  0.85714415  1  0.488424  0  0.005317  -0.021086  0  3.854387  0
C  C79  1  0.25886277  0.35433785  0.64285836  1  0.513617  0  0.005253  -0.021065  0  3.854205  0
C  C80  1  0.61320632  0.64566052  0.14285472  1  0.488406  0  0.005279  -0.021153  0  3.854262  0
C  C81  1  0.74113524  0.64566265  0.35714247  1  0.513816  0  0.005182  -0.021249  0  3.854272  0
C  C82  1  0.19677129  0.35315850  0.84123609  1  0.538503  0  0.018804  -0.003569  0  3.834463  0
C  C83  1  0.45006608  0.35315687  0.65876560  1  0.501202  0  0.018856  -0.003508  0  3.834292  0
C  C84  1  0.80322712  0.64684288  0.15876376  1  0.538856  0  0.018871  -0.003446  0  3.834336  0
C  C85  1  0.54993277  0.64684363  0.34123344  1  0.501203  0  0.018844  -0.003529  0  3.8343  0
C  C86  1  0.39752097  0.20495285  0.75000174  1  0.529797  0  0.010339  -0.019883  0  3.862143  0
C  C87  1  0.60247872  0.79504764  0.24999712  1  0.529642  0  0.010368  -0.019863  0  3.862064  0
C  C88  1  0.29135721  0.95743975  0.06704737  1  1.512337  0  0.185917  0.603588  0  4.211922  0
C  C89  1  0.75119830  0.95744828  0.43295698  1  1.517848  0  0.186014  0.60377  0  4.211803  0
C  C90  1  0.70864385  0.04255632  0.93295329  1  1.512608  0  0.185963  0.6036  0  4.212071  0
C  C91  1  0.24880479  0.04255045  0.56704455  1  1.517813  0  0.185946  0.603656  0  4.211872  0
C  C92  1  0.18425759  0.92944483  0.08844884  1  -0.042525  0  -0.118398  -0.249279  0  3.979331  0
C  C93  1  0.88629149  0.92945598  0.41155603  1  -0.03344  0  -0.118349  -0.249116  0  3.979149  0
C  C94  1  0.81574731  0.07054860  0.91155126  1  -0.042482  0  -0.118377  -0.249123  0  3.979338  0
C  C95  1  0.11371204  0.07054186  0.58844549  1  -0.033572  0  -0.11833  -0.249148  0  3.979103  0
C  C96  1  0.18839746  0.82513082  0.12319872  1  -0.089591  0  -0.074929  -0.138231  0  3.891427  0
C  C97  1  0.98646808  0.82514169  0.37680460  1  -0.087458  0  -0.074961  -0.1384  0  3.89162  0
C  C98  1  0.81160449  0.17486349  0.87680194  1  -0.089674  0  -0.074881  -0.138245  0  3.891585  0
C  C99  1  0.01353461  0.17485615  0.62319872  1  -0.087361  0  -0.074937  -0.138297  0  3.891507  0
C  C100  1  0.29743222  0.71369149  0.15220675  1  1.605213  0  0.181375  0.613713  0  4.240406  0
C  C101  1  0.98887768  0.71370196  0.34779679  1  1.602611  0  0.1815  0.613969  0  4.240444  0
C  C102  1  0.70257175  0.28630547  0.84779639  1  1.605179  0  0.181447  0.613917  0  4.24038  0
C  C103  1  0.01112412  0.28629766  0.65220491  1  1.602569  0  0.18148  0.613903  0  4.24049  0
N  N104  1  0.39725294  0.21821994  0.15116828  1  -0.99701  0  -0.350509  -0.168202  0  3.483533  0
N  N105  1  0.38452323  0.21822186  0.34883261  1  -0.977084  0  -0.350551  -0.168301  0  3.483723  0
N  N106  1  0.60274503  0.78178233  0.84883076  1  -0.996769  0  -0.350468  -0.16815  0  3.483477  0
N  N107  1  0.61547306  0.78178041  0.65116761  1  -0.977135  0  -0.350493  -0.168205  0  3.483554  0
N  N108  1  0.41724497  0.37005694  0.23360534  1  -0.974309  0  -0.363977  -0.144931  0  3.520817  0
N  N109  1  0.21269798  0.37005518  0.26639666  1  -0.956201  0  -0.363985  -0.144903  0  3.520863  0
N  N110  1  0.58275345  0.62994444  0.76639531  1  -0.974661  0  -0.363981  -0.144904  0  3.520767  0
N  N111  1  0.78730126  0.62994621  0.73360301  1  -0.956185  0  -0.36399  -0.144945  0  3.520854  0
N  N112  1  0.38154916  0.43164540  0.75814572  1  -0.970427  0  -0.361706  -0.151794  0  3.497664  0
N  N113  1  0.18680198  0.43164604  0.74185637  1  -0.981625  0  -0.361631  -0.151737  0  3.497571  0
N  N114  1  0.61845097  0.56835421  0.24185394  1  -0.970422  0  -0.36166  -0.151739  0  3.497583  0
N  N115  1  0.81319731  0.56835358  0.25814268  1  -0.981602  0  -0.361636  -0.151748  0  3.497459  0
N  N116  1  0.32927608  0.27899941  0.85009754  1  -1.033234  0  -0.354208  -0.151573  0  3.465263  0
N  N117  1  0.39172121  0.27899752  0.64990406  1  -1.016054  0  -0.354244  -0.151694  0  3.464993  0
N  N118  1  0.67072277  0.72100109  0.14990231  1  -1.033383  0  -0.354247  -0.151602  0  3.465332  0
N  N119  1  0.60827936  0.72100121  0.35009561  1  -1.01581  0  -0.354189  -0.151503  0  3.464742  0
O  O120  1  0.26712882  0.06083102  0.02780270  1  -1.126326  0  -0.352636  -0.531882  0  2.274667  0
O  O121  1  0.67203028  0.06084433  0.47218944  1  -1.133175  0  -0.352738  -0.532058  0  2.274668  0
O  O122  1  0.73287057  0.93916506  0.97219672  1  -1.126383  0  -0.352639  -0.53188  0  2.274719  0
O  O123  1  0.32797270  0.93915794  0.52780528  1  -1.133205  0  -0.352688  -0.531993  0  2.274743  0
O  O124  1  0.60149056  0.12093898  0.91282309  1  -1.150735  0  -0.331916  -0.527104  0  2.338878  0
O  O125  1  0.27757182  0.12094228  0.58717692  1  -1.149629  0  -0.331855  -0.52702  0  2.338674  0
O  O126  1  0.39851041  0.87906063  0.08717960  1  -1.150683  0  -0.331889  -0.527047  0  2.338766  0
O  O127  1  0.72243128  0.87905645  0.41282942  1  -1.149613  0  -0.331888  -0.527091  0  2.338764  0
O  O128  1  0.36731354  0.63658501  0.07697882  1  -1.177045  0  -0.359431  -0.588691  0  2.112397  0
O  O129  1  0.99610911  0.63659269  0.42302286  1  -1.179166  0  -0.359486  -0.588828  0  2.112333  0
O  O130  1  0.63269667  0.36341284  0.92302444  1  -1.177011  0  -0.359462  -0.588825  0  2.112368  0
O  O131  1  0.00389191  0.36340516  0.57697761  1  -1.179121  0  -0.359461  -0.588799  0  2.112346  0
O  O132  1  0.30707248  0.69988332  0.25314796  1  -1.173803  0  -0.347893  -0.57038  0  2.116624  0
O  O133  1  0.99304412  0.69988829  0.24685395  1  -1.170166  0  -0.347895  -0.570433  0  2.116675  0
O  O134  1  0.69292976  0.30011541  0.74685294  1  -1.173716  0  -0.347896  -0.570424  0  2.116649  0
O  O135  1  0.00695508  0.30011486  0.75314714  1  -1.170168  0  -0.347925  -0.570437  0  2.116683  0
