# generated using pymatgen
data_ZnH7C17NO5
_symmetry_space_group_name_H-M   'P 1'
_cell_length_a   11.01004689
_cell_length_b   14.84932250
_cell_length_c   16.19250002
_cell_angle_alpha   89.49482959
_cell_angle_beta   90.08038649
_cell_angle_gamma   90.16408102
_symmetry_Int_Tables_number   1
_chemical_formula_structural   ZnH7C17NO5
_chemical_formula_sum   'Zn2 H14 C34 N2 O10'
_cell_volume   2647.22368975
_cell_formula_units_Z   2
loop_
 _symmetry_equiv_pos_site_id
 _symmetry_equiv_pos_as_xyz
  1  'x, y, z'
loop_
 _atom_site_type_symbol
 _atom_site_label
 _atom_site_symmetry_multiplicity
 _atom_site_fract_x
 _atom_site_fract_y
 _atom_site_fract_z
 _atom_site_occupancy
 _atom_site_pbe_bader_charge
 _atom_site_pbe_bader_spin_density
 _atom_site_pbe_cm5_charge
 _atom_site_pbe_ddec_charge
 _atom_site_pbe_ddec_spin_density
 _atom_site_pbe_ddec_sum_bond_order
 _atom_site_pbe_magmom
Zn  Zn0  1  0.49842254  0.40506114  0.50252110  1  1.299207  0  0.680585  0.887831  0  2.424679  0
Zn  Zn1  1  0.50056229  0.59438759  0.49764003  1  1.289273  0  0.679463  0.889468  0  2.41908  0
H  H2  1  0.11285257  0.55977957  0.38712366  1  0.091341  0  0.111204  0.115825  0  0.976401  0
H  H3  1  0.88609241  0.55906960  0.38685305  1  0.107397  0  0.11159  0.116777  0  0.976876  0
H  H4  1  0.22512468  0.43939071  0.65243686  1  0.116417  0  0.106711  0.113513  0  1.018359  0
H  H5  1  0.77359008  0.43771389  0.65168765  1  0.098473  0  0.10624  0.112607  0  1.02109  0
H  H6  1  0.39528503  0.37731861  0.07728147  1  0.07041  0  0.11266  0.116366  0  0.979474  0
H  H7  1  0.39524133  0.37832713  0.92382091  1  0.092955  0  0.112597  0.11817  0  0.983596  0
H  H8  1  0.62214816  0.61590962  0.92346765  1  0.068761  0  0.111566  0.114605  0  0.980063  0
H  H9  1  0.62126319  0.61522691  0.07721723  1  0.080999  0  0.110633  0.113335  0  0.982168  0
H  H10  1  0.34217165  0.91584345  0.42105829  1  0.156965  0  0.1331  0.137836  0  0.954465  0
H  H11  1  0.65883118  0.91552594  0.57933626  1  0.147469  0  0.133625  0.138569  0  0.953239  0
H  H12  1  0.23702072  0.39901497  0.78767984  1  0.055699  0  0.093477  0.02405  0  0.982436  0
H  H13  1  0.76084859  0.38414554  0.78305851  1  0.047603  0  0.093982  0.026775  0  0.974113  0
H  H14  1  0.34103819  0.08421586  0.42159455  1  0.112953  0  0.133733  0.139046  0  0.953335  0
H  H15  1  0.65776666  0.08390267  0.57983791  1  0.142026  0  0.133974  0.138832  0  0.953001  0
C  C16  1  0.50056106  0.49985545  0.33915302  1  1.706237  0  0.216228  0.671354  0  4.242223  0
C  C17  1  0.50213215  0.49978035  0.66187484  1  1.605752  0  0.212316  0.659672  0  4.263088  0
C  C18  1  0.57241286  0.56417807  0.95762075  1  -0.095713  0  -0.074298  -0.11139  0  3.952455  0
C  C19  1  0.57205626  0.56367038  0.04321157  1  0.024295  0  -0.076322  -0.116302  0  3.955067  0
C  C20  1  0.50699321  0.49901330  0.82618677  1  -0.341568  0  -0.024956  -0.037614  0  4.100258  0
C  C21  1  0.50595046  0.49671695  0.17482850  1  -0.556463  0  -0.028458  -0.044131  0  4.099285  0
C  C22  1  0.50352432  0.49734680  0.25007605  1  0.190945  0  -0.050129  -0.190315  0  3.968517  0
C  C23  1  0.50486196  0.50094513  0.75091682  1  0.093956  0  -0.053102  -0.204233  0  3.989125  0
C  C24  1  0.40982991  0.04667024  0.45573940  1  -0.071555  0  -0.049218  -0.087321  0  3.915892  0
C  C25  1  0.58941503  0.04654339  0.54545969  1  -0.0945  0  -0.04892  -0.085575  0  3.91191  0
C  C26  1  0.49927081  0.09311451  0.50076333  1  0.094778  0  0.028587  0.064478  0  4.078875  0
C  C27  1  0.59007205  0.95306438  0.54516054  1  0.072672  0  -0.049392  -0.085934  0  3.913914  0
C  C28  1  0.41051238  0.95320882  0.45543093  1  0.059078  0  -0.049589  -0.086047  0  3.916777  0
C  C29  1  0.50065197  0.90660476  0.50011750  1  0.081603  0  0.028081  0.062115  0  4.079796  0
C  C30  1  0.49842227  0.18883799  0.50124345  1  0.862093  0  0.250132  0.293856  0  3.905685  0
C  C31  1  0.50126408  0.81084651  0.49955788  1  0.862482  0  0.249046  0.293477  0  3.905804  0
C  C32  1  0.26358271  0.50059242  0.50442653  1  1.557856  0  0.218643  0.606271  0  4.178403  0
C  C33  1  0.73548169  0.49874318  0.50349727  1  1.54369  0  0.218001  0.606257  0  4.180438  0
C  C34  1  0.12596624  0.44081471  0.65217740  1  -0.134439  0  -0.068998  -0.137599  0  3.914797  0
C  C35  1  0.87277385  0.43791359  0.65109409  1  -0.002952  0  -0.070222  -0.13813  0  3.918913  0
C  C36  1  0.06447185  0.41239599  0.72214635  1  -0.040861  0  -0.014057  -0.001618  0  3.973975  0
C  C37  1  0.93414223  0.41317811  0.72228916  1  -0.010112  0  -0.014184  -0.005351  0  3.978383  0
C  C38  1  0.93427924  0.46723599  0.57848619  1  0.048541  0  0.003605  0.062719  0  3.961062  0
C  C39  1  0.06460783  0.46904876  0.57916752  1  -0.029326  0  0.003047  0.064121  0  3.957448  0
C  C40  1  0.12747082  0.50134492  0.50808390  1  -0.047111  0  -0.003871  -0.050584  0  3.92377  0
C  C41  1  0.87155744  0.49918973  0.50721115  1  0.09385  0  -0.004495  -0.05161  0  3.928244  0
C  C42  1  0.06329774  0.53382349  0.44056273  1  -0.047864  0  -0.08077  -0.097414  0  3.99603  0
C  C43  1  0.93571336  0.53308537  0.44026488  1  -0.014919  0  -0.079636  -0.096027  0  3.996258  0
C  C44  1  0.44477933  0.42991212  0.95764112  1  -0.10067  0  -0.073629  -0.113274  0  3.942954  0
C  C45  1  0.44465619  0.42936674  0.04326902  1  0.08456  0  -0.074775  -0.114303  0  3.949361  0
C  C46  1  0.50832297  0.49756631  0.91353242  1  0.11541  0  0.004167  0.128282  0  4.106641  0
C  C47  1  0.50780435  0.49643633  0.08742492  1  0.129292  0  0.005193  0.130736  0  4.107178  0
C  C48  1  0.14158386  0.37262839  0.78833009  1  0.940706  0  0.096062  0.2735  0  3.993929  0
C  C49  1  0.85749243  0.40211601  0.79718754  1  0.947327  0  0.094359  0.268673  0  3.995898  0
N  N50  1  0.50149586  0.73274480  0.49875901  1  -1.110145  0  -0.257792  -0.260715  0  3.086713  0
N  N51  1  0.49775130  0.26693229  0.50186213  1  -1.094721  0  -0.258363  -0.259741  0  3.087922  0
O  O52  1  0.49889772  0.42408074  0.37694775  1  -1.142514  0  -0.319765  -0.553545  0  2.256145  0
O  O53  1  0.49843702  0.42194250  0.62911284  1  -1.145935  0  -0.320126  -0.554548  0  2.259429  0
O  O54  1  0.49989128  0.57772678  0.37162717  1  -1.139532  0  -0.319543  -0.549444  0  2.248816  0
O  O55  1  0.50372304  0.57564567  0.62443438  1  -1.147754  0  -0.319035  -0.551225  0  2.250538  0
O  O56  1  0.31397956  0.42366271  0.50650152  1  -1.151941  0  -0.315607  -0.549501  0  2.303484  0
O  O57  1  0.68322575  0.42232727  0.50722153  1  -1.156041  0  -0.316352  -0.550723  0  2.304237  0
O  O58  1  0.31601386  0.57672894  0.49848957  1  -1.149615  0  -0.31768  -0.550014  0  2.295911  0
O  O59  1  0.68485565  0.57520877  0.49620074  1  -1.152435  0  -0.316583  -0.549289  0  2.299057  0
O  O60  1  0.11112173  0.31276385  0.83636409  1  -1.05852  0  -0.274823  -0.358056  0  2.108641  0
O  O61  1  0.89016022  0.41699762  0.86792070  1  -1.055865  0  -0.267915  -0.347546  0  2.11083  0
