# generated using pymatgen
data_FeH28C22(SN5)2
_symmetry_space_group_name_H-M   'P 1'
_cell_length_a   10.61931563
_cell_length_b   14.61169280
_cell_length_c   14.61353747
_cell_angle_alpha   114.32569144
_cell_angle_beta   104.02865807
_cell_angle_gamma   104.02223820
_symmetry_Int_Tables_number   1
_chemical_formula_structural   FeH28C22(SN5)2
_chemical_formula_sum   'Fe3 H84 C66 S6 N30'
_cell_volume   1848.36278637
_cell_formula_units_Z   3
loop_
 _symmetry_equiv_pos_site_id
 _symmetry_equiv_pos_as_xyz
  1  'x, y, z'
loop_
 _atom_site_type_symbol
 _atom_site_label
 _atom_site_symmetry_multiplicity
 _atom_site_fract_x
 _atom_site_fract_y
 _atom_site_fract_z
 _atom_site_occupancy
 _atom_site_pbe_bader_charge
 _atom_site_pbe_bader_spin_density
 _atom_site_pbe_cm5_charge
 _atom_site_pbe_ddec_charge
 _atom_site_pbe_ddec_spin_density
 _atom_site_pbe_ddec_sum_bond_order
 _atom_site_pbe_magmom
Fe  Fe0  1  0.00000414  0.99999688  0.49999981  1  1.174637  0  0.712339  0.431551  0  3.549008  0
Fe  Fe1  1  0.00000088  0.49999985  0.99999974  1  1.172329  0  0.710409  0.428591  0  3.546588  0
Fe  Fe2  1  0.49999427  0.49999873  0.50000156  1  1.168804  0  0.712582  0.432463  0  3.547561  0
H  H3  1  0.78614543  0.88684506  0.55716498  1  0.486089  0  0.314349  0.242939  0  1.006645  0
H  H4  1  0.89923262  0.67020265  0.11335509  1  0.50709  0  0.314494  0.242557  0  1.006852  0
H  H5  1  0.22890562  0.44281319  0.32984146  1  0.48026  0  0.314543  0.24374  0  1.006588  0
H  H6  1  0.10077251  0.32979889  0.88664716  1  0.507149  0  0.31449  0.242543  0  1.006894  0
H  H7  1  0.77110043  0.55719405  0.67016467  1  0.480183  0  0.31456  0.243836  0  1.006463  0
H  H8  1  0.21385169  0.11315404  0.44283964  1  0.48614  0  0.31437  0.242983  0  1.006599  0
H  H9  1  0.77502132  0.95153115  0.25537156  1  0.067955  0  0.095024  0.140002  0  1.047861  0
H  H10  1  0.82325880  0.30355652  0.04834327  1  0.083025  0  0.095238  0.140582  0  1.047782  0
H  H11  1  0.51988723  0.74481395  0.69630993  1  0.063296  0  0.094602  0.140034  0  1.047913  0
H  H12  1  0.17673403  0.69644176  0.95164794  1  0.082926  0  0.095255  0.140595  0  1.047814  0
H  H13  1  0.48011193  0.25518921  0.30369672  1  0.063218  0  0.094617  0.140009  0  1.04788  0
H  H14  1  0.22498300  0.04846876  0.74463192  1  0.067992  0  0.095037  0.140011  0  1.047884  0
H  H15  1  0.68082044  0.03035453  0.30890487  1  0.064632  0  0.092602  0.128433  0  1.021475  0
H  H16  1  0.65019418  0.27817496  0.96941170  1  0.06085  0  0.092671  0.128624  0  1.021212  0
H  H17  1  0.37217905  0.69124318  0.72165078  1  0.041403  0  0.092881  0.128376  0  1.020987  0
H  H18  1  0.34980100  0.72182414  0.03058163  1  0.060964  0  0.092725  0.128694  0  1.021154  0
H  H19  1  0.62781338  0.30875429  0.27835097  1  0.041422  0  0.09291  0.12841  0  1.021036  0
H  H20  1  0.31918072  0.96964293  0.69109842  1  0.064584  0  0.092624  0.128423  0  1.021488  0
H  H21  1  0.58775618  0.89534079  0.19751218  1  0.041108  0  0.091556  0.12871  0  1.006745  0
H  H22  1  0.69210616  0.30186566  0.10441634  1  0.034813  0  0.09179  0.128572  0  1.006709  0
H  H23  1  0.39037088  0.80257013  0.69793235  1  0.034092  0  0.091537  0.128071  0  1.006272  0
H  H24  1  0.30788698  0.69812936  0.89557290  1  0.034378  0  0.091764  0.12857  0  1.006721  0
H  H25  1  0.60962260  0.19743141  0.30207264  1  0.034303  0  0.091574  0.12811  0  1.00625  0
H  H26  1  0.41225105  0.10465912  0.80249182  1  0.04103  0  0.091579  0.128796  0  1.006666  0
H  H27  1  0.52725806  0.80383508  0.55394215  1  0.074491  0  0.097076  0.143731  0  1.00684  0
H  H28  1  0.72291755  0.74973487  0.19596500  1  0.030648  0  0.097053  0.143359  0  1.008071  0
H  H29  1  0.97290094  0.44594661  0.25017741  1  0.038843  0  0.096874  0.143598  0  1.007171  0
H  H30  1  0.27708386  0.25026503  0.80403661  1  0.030626  0  0.097053  0.143373  0  1.008012  0
H  H31  1  0.02710420  0.55405493  0.74982415  1  0.038841  0  0.096871  0.14363  0  1.007035  0
H  H32  1  0.47274012  0.19616809  0.44605955  1  0.074505  0  0.097086  0.143777  0  1.006758  0
H  H33  1  0.52355761  0.68153671  0.45425603  1  0.101831  0  0.100863  0.14362  0  1.043417  0
H  H34  1  0.84184020  0.77247201  0.31819481  1  0.1035  0  0.101521  0.145001  0  1.042257  0
H  H35  1  0.06896904  0.54545932  0.22740848  1  0.093947  0  0.101263  0.145002  0  1.042852  0
H  H36  1  0.15816300  0.22752953  0.68180778  1  0.103542  0  0.101528  0.145001  0  1.042242  0
H  H37  1  0.93103181  0.45454141  0.77259336  1  0.093895  0  0.101252  0.144988  0  1.042861  0
H  H38  1  0.47644324  0.31846402  0.54574923  1  0.10184  0  0.100855  0.143626  0  1.043344  0
H  H39  1  0.39045135  0.72939074  0.42150471  1  0.068882  0  0.094444  0.130747  0  1.053384  0
H  H40  1  0.66092042  0.69194935  0.27062098  1  0.058081  0  0.094655  0.130528  0  1.054136  0
H  H41  1  0.96879856  0.57843638  0.30808127  1  0.078281  0  0.094871  0.131623  0  1.052121  0
H  H42  1  0.33908212  0.30804893  0.72937947  1  0.058077  0  0.094659  0.130541  0  1.054072  0
H  H43  1  0.03120244  0.42156272  0.69191856  1  0.078248  0  0.094886  0.131625  0  1.052134  0
H  H44  1  0.60954633  0.27060754  0.57849489  1  0.06891  0  0.094449  0.130762  0  1.053411  0
H  H45  1  0.24994779  0.96502835  0.25787779  1  0.083536  0  0.081385  0.126814  0  1.083066  0
H  H46  1  0.28427354  0.29264510  0.03481395  1  0.096872  0  0.081492  0.126285  0  1.082215  0
H  H47  1  0.99198188  0.74226383  0.70726186  1  0.076306  0  0.081782  0.127359  0  1.080928  0
H  H48  1  0.71572840  0.70734422  0.96517860  1  0.096839  0  0.081494  0.12632  0  1.082249  0
H  H49  1  0.00801289  0.25773445  0.29273654  1  0.076257  0  0.081804  0.127357  0  1.080927  0
H  H50  1  0.75004688  0.03496585  0.74211891  1  0.083531  0  0.081407  0.126823  0  1.083033  0
H  H51  1  0.40624699  0.98163562  0.23298006  1  0.042044  0  0.096814  0.141606  0  0.985061  0
H  H52  1  0.42387604  0.25116525  0.01790561  1  0.058536  0  0.097402  0.1425  0  0.985748  0
H  H53  1  0.17312068  0.76683087  0.74860618  1  0.036965  0  0.097173  0.14227  0  0.98421  0
H  H54  1  0.57613013  0.74883059  0.98209242  1  0.058933  0  0.097445  0.142513  0  0.985703  0
H  H55  1  0.82687215  0.23316741  0.25139119  1  0.036877  0  0.097129  0.142196  0  0.984278  0
H  H56  1  0.59375136  0.01836592  0.76702167  1  0.042223  0  0.096799  0.141592  0  0.985051  0
H  H57  1  0.41056190  0.99515774  0.36004755  1  0.081279  0  0.096366  0.143502  0  0.988457  0
H  H58  1  0.41459347  0.36487807  0.00477536  1  0.044532  0  0.096415  0.143307  0  0.989058  0
H  H59  1  0.04997967  0.63986609  0.63506512  1  0.044049  0  0.096654  0.143733  0  0.987882  0
H  H60  1  0.58540718  0.63511451  0.99522036  1  0.044694  0  0.096409  0.143263  0  0.989058  0
H  H61  1  0.95001592  0.36013382  0.36493272  1  0.044356  0  0.096628  0.14369  0  0.987857  0
H  H62  1  0.58943190  0.00484054  0.63995272  1  0.081237  0  0.096374  0.143523  0  0.98846  0
H  H63  1  0.27906649  0.49829472  0.12299038  1  0.090916  0  0.099064  0.149266  0  1.046961  0
H  H64  1  0.78018996  0.62471334  0.50143036  1  0.061908  0  0.099223  0.149497  0  1.047764  0
H  H65  1  0.15563155  0.87661038  0.37506059  1  0.094933  0  0.099313  0.149396  0  1.0475  0
H  H66  1  0.21979934  0.37529146  0.49856428  1  0.061913  0  0.099267  0.149544  0  1.047653  0
H  H67  1  0.84437879  0.12339768  0.62494800  1  0.094695  0  0.09929  0.149356  0  1.047529  0
H  H68  1  0.72093921  0.50170601  0.87701095  1  0.090902  0  0.099082  0.149277  0  1.046947  0
H  H69  1  0.39018766  0.57710852  0.26347220  1  0.05247  0  0.093648  0.134175  0  1.035722  0
H  H70  1  0.81295340  0.68598390  0.42239171  1  0.052454  0  0.093824  0.13411  0  1.036138  0
H  H71  1  0.12705533  0.73627365  0.31378932  1  0.048239  0  0.093575  0.134226  0  1.03616  0
H  H72  1  0.18704147  0.31401845  0.57760428  1  0.052382  0  0.093777  0.134047  0  1.036024  0
H  H73  1  0.87292983  0.26372870  0.68620632  1  0.048378  0  0.09358  0.134215  0  1.036178  0
H  H74  1  0.60982597  0.42289058  0.73652301  1  0.052406  0  0.093654  0.134174  0  1.035718  0
H  H75  1  0.45516024  0.58609988  0.16587920  1  0.041814  0  0.094081  0.138084  0  1.014102  0
H  H76  1  0.86867896  0.57936968  0.41394984  1  0.029827  0  0.093531  0.13719  0  1.015094  0
H  H77  1  0.28936180  0.83440391  0.42049987  1  0.025859  0  0.093767  0.13705  0  1.014122  0
H  H78  1  0.13131462  0.42063593  0.58605136  1  0.029687  0  0.09357  0.13721  0  1.014977  0
H  H79  1  0.71063861  0.16558623  0.57949206  1  0.025859  0  0.093769  0.137042  0  1.014165  0
H  H80  1  0.54483576  0.41390084  0.83411220  1  0.041916  0  0.094075  0.138077  0  1.014038  0
H  H81  1  0.10126749  0.76396309  0.12548031  1  0.497186  0  0.300766  0.233919  0  1.036566  0
H  H82  1  0.33681063  0.36136392  0.23583175  1  0.495904  0  0.300879  0.234671  0  1.035699  0
H  H83  1  0.97566431  0.87444662  0.63843010  1  0.492246  0  0.30121  0.23503  0  1.035477  0
H  H84  1  0.66318665  0.63863355  0.76416402  1  0.495915  0  0.300894  0.23466  0  1.035781  0
H  H85  1  0.02433638  0.12555573  0.36156760  1  0.492234  0  0.301204  0.235043  0  1.035465  0
H  H86  1  0.89873448  0.23603600  0.87451764  1  0.49732  0  0.300747  0.233854  0  1.036637  0
C  C87  1  0.01668137  0.08615294  0.73455417  1  0.487288  0  0.135678  0.218597  0  4.301825  0
C  C88  1  0.93074198  0.64854103  0.91392289  1  0.498015  0  0.136584  0.220499  0  4.300061  0
C  C89  1  0.28201355  0.26541608  0.35152348  1  0.503352  0  0.136961  0.221485  0  4.300664  0
C  C90  1  0.06926235  0.35145888  0.08607923  1  0.497796  0  0.136577  0.220494  0  4.300059  0
C  C91  1  0.71799575  0.73459768  0.64848728  1  0.503482  0  0.136827  0.221367  0  4.300382  0
C  C92  1  0.98332280  0.91384860  0.26545201  1  0.487067  0  0.135736  0.218645  0  4.301825  0
C  C93  1  0.67280372  0.90428210  0.34918290  1  0.467469  0  0.107379  0.214288  0  3.921847  0
C  C94  1  0.76813921  0.44461671  0.09553318  1  0.44413  0  0.107048  0.213406  0  3.917242  0
C  C95  1  0.32361476  0.65085849  0.55522945  1  0.470651  0  0.107068  0.212165  0  3.923137  0
C  C96  1  0.23185597  0.55538239  0.90446152  1  0.444225  0  0.107009  0.213365  0  3.917285  0
C  C97  1  0.67637889  0.34914142  0.44477147  1  0.4708  0  0.107046  0.212173  0  3.923206  0
C  C98  1  0.32719679  0.09571211  0.65081551  1  0.464728  0  0.107429  0.214331  0  3.921623  0
C  C99  1  0.54617628  0.83289780  0.34041364  1  -0.010651  0  -0.03396  -0.142508  0  4.020767  0
C  C100  1  0.71283461  0.50719301  0.16687306  1  -0.010807  0  -0.034225  -0.142599  0  4.020135  0
C  C101  1  0.20565965  0.65953090  0.49259804  1  0.03297  0  -0.033464  -0.140957  0  4.022415  0
C  C102  1  0.28716308  0.49280527  0.83312448  1  -0.0108  0  -0.034204  -0.142495  0  4.020015  0
C  C103  1  0.79433569  0.34046656  0.50739738  1  0.032612  0  -0.033529  -0.141058  0  4.022532  0
C  C104  1  0.45382569  0.16710130  0.65958910  1  -0.010005  0  -0.033858  -0.142401  0  4.020769  0
C  C105  1  0.58633203  0.81688735  0.42922594  1  0.388801  0  0.100134  0.20987  0  4.004689  0
C  C106  1  0.76905209  0.61202387  0.18293380  1  0.388093  0  0.100888  0.210084  0  4.008043  0
C  C107  1  0.15695133  0.57066179  0.38781661  1  0.378508  0  0.100726  0.21083  0  4.006448  0
C  C108  1  0.23094851  0.38797441  0.81706426  1  0.388048  0  0.100889  0.210056  0  4.008034  0
C  C109  1  0.84305121  0.42933649  0.61218179  1  0.378456  0  0.100754  0.210871  0  4.006386  0
C  C110  1  0.41367067  0.18310930  0.57077661  1  0.388235  0  0.100065  0.209887  0  4.004592  0
C  C111  1  0.68097327  0.94773133  0.27394341  1  -0.060422  0  -0.238366  -0.422958  0  3.955291  0
C  C112  1  0.73295756  0.32591848  0.05205909  1  -0.060277  0  -0.239027  -0.423511  0  3.952926  0
C  C113  1  0.40721504  0.72617101  0.67393425  1  -0.02557  0  -0.238574  -0.422027  0  3.9524  0
C  C114  1  0.26703706  0.67408142  0.94793379  1  -0.059889  0  -0.239087  -0.423594  0  3.952965  0
C  C115  1  0.59278233  0.27383053  0.32607005  1  -0.025448  0  -0.238599  -0.422038  0  3.952581  0
C  C116  1  0.31903065  0.05226777  0.72605830  1  -0.057651  0  -0.238445  -0.423073  0  3.955332  0
C  C117  1  0.50255545  0.75473238  0.46660391  1  -0.091618  0  -0.244918  -0.449731  0  3.980795  0
C  C118  1  0.74752051  0.71158982  0.24511900  1  -0.029063  0  -0.245446  -0.450409  0  3.983078  0
C  C119  1  0.03567969  0.53324918  0.28831968  1  -0.058638  0  -0.245411  -0.451964  0  3.981078  0
C  C120  1  0.25248243  0.28840927  0.75488254  1  -0.029143  0  -0.245436  -0.450435  0  3.983046  0
C  C121  1  0.96432172  0.46675073  0.71167988  1  -0.058574  0  -0.245423  -0.451967  0  3.980964  0
C  C122  1  0.49744223  0.24526590  0.53339773  1  -0.091593  0  -0.244989  -0.449905  0  3.980635  0
C  C123  1  0.31591279  0.83145544  0.23011301  1  0.403155  0  0.105041  0.209668  0  3.987717  0
C  C124  1  0.48397979  0.39833760  0.16830164  1  0.365255  0  0.105494  0.210448  0  3.989551  0
C  C125  1  0.08569976  0.76983756  0.60137942  1  0.395963  0  0.104811  0.209087  0  3.992987  0
C  C126  1  0.51602218  0.60166149  0.83169562  1  0.365174  0  0.105557  0.210541  0  3.989502  0
C  C127  1  0.91429404  0.23016072  0.39862086  1  0.396373  0  0.104831  0.20918  0  3.992969  0
C  C128  1  0.68409072  0.16854284  0.76988624  1  0.403354  0  0.105057  0.209711  0  3.987758  0
C  C129  1  0.40226405  0.78029452  0.25688499  1  -0.000526  0  -0.035155  -0.151316  0  4.035386  0
C  C130  1  0.62156104  0.47621958  0.21945171  1  0.029841  0  -0.035529  -0.1522  0  4.038093  0
C  C131  1  0.14531794  0.74306194  0.52349357  1  0.007074  0  -0.035755  -0.151673  0  4.041495  0
C  C132  1  0.37843786  0.52378114  0.78054637  1  0.029923  0  -0.035551  -0.152178  0  4.038026  0
C  C133  1  0.85468260  0.25694204  0.47651025  1  0.006953  0  -0.035771  -0.151764  0  4.041605  0
C  C134  1  0.59773517  0.21970294  0.74311454  1  -0.001092  0  -0.035222  -0.151461  0  4.035387  0
C  C135  1  0.31562099  0.66673375  0.19364611  1  0.476335  0  0.103559  0.209963  0  3.956277  0
C  C136  1  0.64854501  0.52658653  0.33299753  1  0.436409  0  0.103651  0.209691  0  3.958126  0
C  C137  1  0.12193961  0.80625957  0.47311795  1  0.431966  0  0.104316  0.209099  0  3.958477  0
C  C138  1  0.35145017  0.47341256  0.66699648  1  0.43646  0  0.103693  0.209621  0  3.958046  0
C  C139  1  0.87805874  0.19374197  0.52688173  1  0.432129  0  0.104389  0.209243  0  3.958342  0
C  C140  1  0.68438277  0.33326697  0.80635214  1  0.475878  0  0.103588  0.210077  0  3.956197  0
C  C141  1  0.34642656  0.94919060  0.27215205  1  -0.065117  0  -0.237582  -0.430694  0  3.96468  0
C  C142  1  0.39656528  0.32277635  0.05059092  1  -0.03283  0  -0.238579  -0.430751  0  3.965445  0
C  C143  1  0.07405902  0.72780697  0.67706066  1  -0.021228  0  -0.238534  -0.431502  0  3.961548  0
C  C144  1  0.60343951  0.67721868  0.94940790  1  -0.033313  0  -0.238634  -0.430783  0  3.965459  0
C  C145  1  0.92593479  0.27219131  0.32293757  1  -0.021701  0  -0.238485  -0.431395  0  3.961451  0
C  C146  1  0.65357072  0.05080686  0.72784713  1  -0.065037  0  -0.237618  -0.430742  0  3.964621  0
C  C147  1  0.36157062  0.57685247  0.18599523  1  -0.060395  0  -0.247559  -0.437375  0  3.947427  0
C  C148  1  0.78438541  0.60888754  0.42289593  1  -0.012879  0  -0.247766  -0.436986  0  3.948844  0
C  C149  1  0.17554412  0.81386490  0.39090130  1  -0.039284  0  -0.248048  -0.436559  0  3.946729  0
C  C150  1  0.21560502  0.39111563  0.57710029  1  -0.01273  0  -0.247765  -0.436928  0  3.948481  0
C  C151  1  0.82445617  0.18613664  0.60909941  1  -0.039179  0  -0.248038  -0.436543  0  3.946751  0
C  C152  1  0.63843273  0.42314744  0.81400192  1  -0.060368  0  -0.247574  -0.437392  0  3.947458  0
S  S153  1  0.04366816  0.13715636  0.86288887  1  0.06924  0  -0.145966  -0.319601  0  2.444845  0
S  S154  1  0.90697737  0.72600512  0.86299670  1  0.055187  0  -0.146593  -0.321139  0  2.444731  0
S  S155  1  0.18070950  0.13701076  0.27415064  1  0.064231  0  -0.146641  -0.321398  0  2.443844  0
S  S156  1  0.09302664  0.27399805  0.13700670  1  0.055468  0  -0.146574  -0.321095  0  2.44483  0
S  S157  1  0.81929420  0.86299567  0.72585200  1  0.064915  0  -0.146559  -0.321294  0  2.444213  0
S  S158  1  0.95633335  0.86284762  0.13711922  1  0.069438  0  -0.145985  -0.319617  0  2.444937  0
N  N159  1  0.00042419  0.04868740  0.64133592  1  -1.308218  0  -0.435133  -0.433013  0  3.598846  0
N  N160  1  0.95172047  0.59270781  0.95135220  1  -1.305038  0  -0.435374  -0.433375  0  3.597166  0
N  N161  1  0.35893768  0.35864495  0.40733362  1  -1.320859  0  -0.436147  -0.435542  0  3.600356  0
N  N162  1  0.04828192  0.40729210  0.04864753  1  -1.304981  0  -0.435385  -0.433404  0  3.597113  0
N  N163  1  0.64106082  0.64135495  0.59267089  1  -1.321572  0  -0.436025  -0.435503  0  3.599596  0
N  N164  1  0.99958110  0.95131251  0.35867047  1  -1.3081  0  -0.435206  -0.433063  0  3.598921  0
N  N165  1  0.78326521  0.92639914  0.43594909  1  -0.698492  0  -0.23973  -0.151054  0  3.442509  0
N  N166  1  0.85659757  0.50931853  0.07354015  1  -0.678825  0  -0.238546  -0.150241  0  3.44004  0
N  N167  1  0.34734548  0.56411915  0.49061358  1  -0.689164  0  -0.23937  -0.149486  0  3.441061  0
N  N168  1  0.14340165  0.49067894  0.92645801  1  -0.678848  0  -0.238515  -0.150242  0  3.44004  0
N  N169  1  0.65266169  0.43588646  0.50939276  1  -0.689161  0  -0.239292  -0.149396  0  3.44085  0
N  N170  1  0.21673385  0.07359996  0.56404971  1  -0.698177  0  -0.23971  -0.151008  0  3.442672  0
N  N171  1  0.72691029  0.87254099  0.48243195  1  -0.821311  0  -0.290549  -0.148717  0  3.69885  0
N  N172  1  0.85408503  0.60964771  0.12741382  1  -0.846467  0  -0.291023  -0.14744  0  3.700853  0
N  N173  1  0.24438639  0.51752897  0.39027241  1  -0.831526  0  -0.291063  -0.150807  0  3.699426  0
N  N174  1  0.14591986  0.39035138  0.87258738  1  -0.846466  0  -0.291052  -0.147459  0  3.701011  0
N  N175  1  0.75561941  0.48247583  0.60973472  1  -0.831472  0  -0.291101  -0.150979  0  3.699185  0
N  N176  1  0.27309225  0.12745729  0.51757055  1  -0.821445  0  -0.2906  -0.14881  0  3.698913  0
N  N177  1  0.18407351  0.65019298  0.13443239  1  -0.707523  0  -0.217572  -0.164833  0  3.325822  0
N  N178  1  0.53353109  0.48401372  0.34957964  1  -0.708354  0  -0.217954  -0.164824  0  3.32583  0
N  N179  1  0.04953429  0.86543169  0.51571386  1  -0.69194  0  -0.217562  -0.16469  0  3.327255  0
N  N180  1  0.46646450  0.51598619  0.65041341  1  -0.707852  0  -0.217989  -0.16475  0  3.325694  0
N  N181  1  0.95046747  0.13457474  0.48429117  1  -0.691956  0  -0.217604  -0.164666  0  3.327121  0
N  N182  1  0.81592765  0.34980449  0.86556885  1  -0.706983  0  -0.21758  -0.164869  0  3.325737  0
N  N183  1  0.18873881  0.75164612  0.15760339  1  -0.853046  0  -0.289715  -0.151473  0  3.719707  0
N  N184  1  0.43666721  0.40568266  0.24812081  1  -0.835591  0  -0.289075  -0.152157  0  3.718294  0
N  N185  1  0.03102645  0.84230980  0.59401712  1  -0.837359  0  -0.289405  -0.151851  0  3.717547  0
N  N186  1  0.56333411  0.59431318  0.75187499  1  -0.83612  0  -0.289123  -0.152257  0  3.718452  0
N  N187  1  0.96897164  0.15768930  0.40598083  1  -0.837568  0  -0.289413  -0.151971  0  3.717563  0
N  N188  1  0.81126292  0.24835053  0.84239419  1  -0.853295  0  -0.289668  -0.151363  0  3.719779  0
