# generated using pymatgen
data_TbH18(C2O)7
_symmetry_space_group_name_H-M   'P 1'
_cell_length_a   12.89064280
_cell_length_b   14.12046608
_cell_length_c   18.85179320
_cell_angle_alpha   89.99998315
_cell_angle_beta   90.00011362
_cell_angle_gamma   89.99993894
_symmetry_Int_Tables_number   1
_chemical_formula_structural   TbH18(C2O)7
_chemical_formula_sum   'Tb8 H144 C112 O56'
_cell_volume   3431.43892288
_cell_formula_units_Z   8
loop_
 _symmetry_equiv_pos_site_id
 _symmetry_equiv_pos_as_xyz
  1  'x, y, z'
loop_
 _atom_site_type_symbol
 _atom_site_label
 _atom_site_symmetry_multiplicity
 _atom_site_fract_x
 _atom_site_fract_y
 _atom_site_fract_z
 _atom_site_occupancy
 _atom_site_pbe_bader_charge
 _atom_site_pbe_bader_spin_density
 _atom_site_pbe_cm5_charge
 _atom_site_pbe_ddec_charge
 _atom_site_pbe_ddec_spin_density
 _atom_site_pbe_ddec_sum_bond_order
 _atom_site_pbe_magmom
Tb  Tb0  1  0.71650086  0.00417993  0.88971319  1  2.19402  0  1.537165  2.151864  0  2.176517  0
Tb  Tb1  1  0.78349931  0.99582078  0.38971295  1  2.194045  0  1.537185  2.15187  0  2.17651  0
Tb  Tb2  1  0.28349925  0.50417857  0.61028691  1  2.194118  0  1.537194  2.151891  0  2.176479  0
Tb  Tb3  1  0.21650187  0.49582133  0.11028668  1  2.194027  0  1.537172  2.15188  0  2.176512  0
Tb  Tb4  1  0.77252567  0.02134652  0.67274077  1  2.188172  0  1.53505  2.082065  0  2.204879  0
Tb  Tb5  1  0.72747465  0.97865286  0.17274045  1  2.188129  0  1.535049  2.082083  0  2.204855  0
Tb  Tb6  1  0.22747365  0.52134654  0.82725880  1  2.188135  0  1.535025  2.082003  0  2.204974  0
Tb  Tb7  1  0.27252578  0.47865327  0.32725919  1  2.188156  0  1.53505  2.082065  0  2.20489  0
H  H8  1  0.99248006  0.06916207  0.88191836  1  0.055231  0  0.103844  0.092231  0  1.024566  0
H  H9  1  0.50752009  0.93083864  0.38191776  1  0.055245  0  0.103856  0.092234  0  1.024542  0
H  H10  1  0.00751997  0.56916168  0.61808173  1  0.055232  0  0.103823  0.092171  0  1.024582  0
H  H11  1  0.49247963  0.43083962  0.11808189  1  0.055221  0  0.10386  0.092245  0  1.024525  0
H  H12  1  0.15232644  0.01370327  0.84334163  1  0.025846  0  0.090671  0.087386  0  0.999101  0
H  H13  1  0.34767304  0.98629653  0.34334041  1  0.025866  0  0.090686  0.087372  0  0.999094  0
H  H14  1  0.84767366  0.51370346  0.65665901  1  0.025849  0  0.090699  0.087425  0  0.999098  0
H  H15  1  0.65232661  0.48629734  0.15665870  1  0.02584  0  0.090699  0.08743  0  0.99908  0
H  H16  1  0.12402980  0.03945670  0.75365358  1  0.045687  0  0.094248  0.100297  0  1.000413  0
H  H17  1  0.37597020  0.96054384  0.25365241  1  0.045651  0  0.094262  0.100314  0  1.000436  0
H  H18  1  0.87596950  0.53945612  0.74634651  1  0.045679  0  0.094262  0.100328  0  1.000405  0
H  H19  1  0.62403181  0.46054394  0.24634670  1  0.045672  0  0.09426  0.10032  0  1.000417  0
H  H20  1  0.19828047  0.19107135  0.75930401  1  0.003803  0  0.090137  0.086836  0  1.017039  0
H  H21  1  0.30172031  0.80892848  0.25930224  1  0.003987  0  0.090127  0.086823  0  1.017031  0
H  H22  1  0.80172019  0.69107085  0.74069658  1  0.003796  0  0.090157  0.086864  0  1.016998  0
H  H23  1  0.69828032  0.30892851  0.24069691  1  0.003783  0  0.090148  0.086838  0  1.017015  0
H  H24  1  0.26659683  0.14766693  0.83349170  1  0.05823  0  0.092306  0.093331  0  0.988455  0
H  H25  1  0.23340262  0.85233358  0.33349089  1  0.058117  0  0.092311  0.09335  0  0.988441  0
H  H26  1  0.73340312  0.64766581  0.66650837  1  0.058112  0  0.092308  0.093344  0  0.988434  0
H  H27  1  0.76659796  0.35233357  0.16650825  1  0.058218  0  0.092299  0.093323  0  0.988443  0
H  H28  1  0.22255028  0.21641182  0.95411361  1  0.047737  0  0.095033  0.131591  0  0.985645  0
H  H29  1  0.27745029  0.78358935  0.45411234  1  0.047754  0  0.09504  0.131581  0  0.985684  0
H  H30  1  0.77745035  0.71641142  0.54588645  1  0.047748  0  0.095045  0.131602  0  0.985644  0
H  H31  1  0.72254959  0.28358943  0.04588681  1  0.047757  0  0.095039  0.131601  0  0.985653  0
H  H32  1  0.13155874  0.12282077  0.94529795  1  0.033397  0  0.094789  0.133739  0  0.996525  0
H  H33  1  0.36844181  0.87717970  0.44529678  1  0.033391  0  0.094797  0.133737  0  0.996494  0
H  H34  1  0.86844278  0.62282027  0.55470213  1  0.033385  0  0.094802  0.133759  0  0.996477  0
H  H35  1  0.63155874  0.37717987  0.05470181  1  0.033383  0  0.094797  0.133757  0  0.996461  0
H  H36  1  0.08899606  0.23568108  0.97360344  1  -0.006221  0  0.090349  0.115319  0  1.050933  0
H  H37  1  0.41100379  0.76431938  0.47360236  1  -0.006198  0  0.090347  0.115318  0  1.050964  0
H  H38  1  0.91100378  0.73568126  0.52639661  1  -0.006227  0  0.090361  0.115393  0  1.050846  0
H  H39  1  0.58899611  0.26431960  0.02639627  1  -0.006218  0  0.09036  0.115391  0  1.050845  0
H  H40  1  0.99084988  0.33221007  0.76807505  1  0.006901  0  0.091306  0.130898  0  1.000771  0
H  H41  1  0.50915071  0.66778998  0.26807504  1  0.006895  0  0.091324  0.130929  0  1.000798  0
H  H42  1  0.00915062  0.83220963  0.73192498  1  0.006902  0  0.091312  0.130893  0  1.000771  0
H  H43  1  0.49084931  0.16779092  0.23192467  1  0.006915  0  0.091315  0.13092  0  1.00077  0
H  H44  1  0.90918601  0.23613751  0.74498436  1  0.028185  0  0.09361  0.126714  0  1.032875  0
H  H45  1  0.59081374  0.76386255  0.24498497  1  0.028186  0  0.09363  0.126748  0  1.032818  0
H  H46  1  0.09081382  0.73613769  0.75501516  1  0.028183  0  0.093615  0.126713  0  1.032865  0
H  H47  1  0.40918617  0.26386285  0.25501472  1  0.028193  0  0.093623  0.126749  0  1.032818  0
H  H48  1  0.04164430  0.23279739  0.72151068  1  0.056466  0  0.092544  0.135167  0  1.00231  0
H  H49  1  0.45835638  0.76720245  0.22151072  1  0.056472  0  0.09254  0.135167  0  1.002339  0
H  H50  1  0.95835710  0.73279814  0.77848938  1  0.056478  0  0.092543  0.135147  0  1.002376  0
H  H51  1  0.54164430  0.26720262  0.27848896  1  0.05647  0  0.092547  0.135183  0  1.002298  0
H  H52  1  0.93704671  0.31774596  0.89896972  1  0.028812  0  0.090623  0.133076  0  0.994376  0
H  H53  1  0.56295271  0.68225121  0.39897031  1  0.028765  0  0.090611  0.13303  0  0.994381  0
H  H54  1  0.06295303  0.81774552  0.60102978  1  0.028819  0  0.09063  0.133089  0  0.994372  0
H  H55  1  0.43704652  0.18225508  0.10102992  1  0.028832  0  0.090641  0.1331  0  0.994369  0
H  H56  1  0.93326269  0.20331843  0.93932451  1  0.067902  0  0.090329  0.130287  0  1.016092  0
H  H57  1  0.56673762  0.79668226  0.43932508  1  0.067885  0  0.090317  0.13029  0  1.016088  0
H  H58  1  0.06673796  0.70331800  0.56067554  1  0.067896  0  0.090322  0.130279  0  1.01618  0
H  H59  1  0.43326225  0.29668262  0.06067460  1  0.067871  0  0.090329  0.130272  0  1.016122  0
H  H60  1  0.85009139  0.22949963  0.86790579  1  0.037736  0  0.090556  0.120948  0  1.047064  0
H  H61  1  0.64990716  0.77050038  0.36790594  1  0.037753  0  0.090547  0.120954  0  1.047092  0
H  H62  1  0.14990845  0.72949909  0.63209427  1  0.037728  0  0.090548  0.120933  0  1.047093  0
H  H63  1  0.35009119  0.27050150  0.13209374  1  0.037729  0  0.090553  0.120948  0  1.047054  0
H  H64  1  0.39461019  0.90069017  0.84690263  1  0.05718  0  0.092675  0.099171  0  1.005012  0
H  H65  1  0.10539007  0.09931034  0.34690287  1  0.057163  0  0.09269  0.099234  0  1.00497  0
H  H66  1  0.60539023  0.40068961  0.65309686  1  0.057163  0  0.092692  0.099234  0  1.004974  0
H  H67  1  0.89461081  0.59930978  0.15309791  1  0.057187  0  0.092682  0.099184  0  1.004992  0
H  H68  1  0.33264556  0.00004925  0.81056715  1  0.028703  0  0.089109  0.088898  0  1.011446  0
H  H69  1  0.16735304  0.99995198  0.31056675  1  0.028734  0  0.089133  0.088922  0  1.011445  0
H  H70  1  0.66735455  0.50004961  0.68943349  1  0.028704  0  0.089111  0.088905  0  1.011429  0
H  H71  1  0.83264659  0.49994977  0.18943342  1  0.028691  0  0.089106  0.08888  0  1.011464  0
H  H72  1  0.21037253  0.90268950  0.74736078  1  0.004244  0  0.085812  0.076646  0  1.022624  0
H  H73  1  0.28962667  0.09731105  0.24736074  1  0.004272  0  0.085832  0.076685  0  1.022586  0
H  H74  1  0.78962711  0.40268943  0.75263924  1  0.00425  0  0.085818  0.076668  0  1.022612  0
H  H75  1  0.71037344  0.59730921  0.25263898  1  0.004246  0  0.085816  0.076654  0  1.022615  0
H  H76  1  0.24539032  0.81726665  0.81146134  1  0.036786  0  0.092248  0.094317  0  1.015846  0
H  H77  1  0.25461061  0.18273387  0.31146177  1  0.036752  0  0.09225  0.094312  0  1.015809  0
H  H78  1  0.75461020  0.31726594  0.68853922  1  0.036788  0  0.092278  0.094353  0  1.015794  0
H  H79  1  0.74539017  0.68273344  0.18853846  1  0.03678  0  0.092254  0.094325  0  1.015796  0
H  H80  1  0.29471813  0.82292370  0.65846002  1  0.050067  0  0.101547  0.087904  0  0.986983  0
H  H81  1  0.20528159  0.17707689  0.15845985  1  0.050066  0  0.101553  0.087917  0  0.986995  0
H  H82  1  0.70528083  0.32292438  0.84154055  1  0.050051  0  0.101526  0.0879  0  0.986978  0
H  H83  1  0.79471842  0.67707493  0.34154039  1  0.05005  0  0.101553  0.087899  0  0.987007  0
H  H84  1  0.40546718  0.07593058  0.70687626  1  0.019037  0  0.085904  0.117438  0  1.022441  0
H  H85  1  0.09453035  0.92407139  0.20687736  1  0.019047  0  0.085922  0.117433  0  1.02241  0
H  H86  1  0.59453051  0.57592955  0.79312277  1  0.019044  0  0.085915  0.11744  0  1.022469  0
H  H87  1  0.90546860  0.42406907  0.29312335  1  0.019042  0  0.085898  0.117422  0  1.022436  0
H  H88  1  0.34175060  0.98676175  0.65716519  1  0.028377  0  0.089125  0.123931  0  0.998607  0
H  H89  1  0.15824834  0.01323954  0.15716553  1  0.028405  0  0.089131  0.123935  0  0.99862  0
H  H90  1  0.65824817  0.48676107  0.84283427  1  0.028414  0  0.089137  0.123959  0  0.998591  0
H  H91  1  0.84175108  0.51323966  0.34283527  1  0.028382  0  0.089129  0.123933  0  0.998585  0
H  H92  1  0.47574834  0.01159204  0.64193130  1  0.068824  0  0.091502  0.130974  0  1.040927  0
H  H93  1  0.02424978  0.98840926  0.14193176  1  0.0688  0  0.091501  0.130933  0  1.040988  0
H  H94  1  0.52424943  0.51159175  0.85806774  1  0.068822  0  0.091535  0.130997  0  1.040897  0
H  H95  1  0.97574987  0.48840826  0.35806946  1  0.068795  0  0.09152  0.130956  0  1.040952  0
H  H96  1  0.50165913  0.68883240  0.73789028  1  0.035074  0  0.091647  0.129818  0  1.012649  0
H  H97  1  0.99834060  0.31116908  0.23789048  1  0.035041  0  0.09163  0.129787  0  1.012656  0
H  H98  1  0.49834077  0.18883119  0.76210978  1  0.03504  0  0.091637  0.129796  0  1.012667  0
H  H99  1  0.00166003  0.81116722  0.26210973  1  0.035081  0  0.091642  0.129821  0  1.012672  0
H  H100  1  0.48146702  0.76438868  0.81159465  1  0.025498  0  0.090812  0.127787  0  1.045253  0
H  H101  1  0.01853314  0.23561255  0.31159422  1  0.025514  0  0.090774  0.127732  0  1.045212  0
H  H102  1  0.51853278  0.26438749  0.68840592  1  0.02551  0  0.090768  0.127723  0  1.045227  0
H  H103  1  0.98146680  0.73561189  0.18840547  1  0.025494  0  0.090796  0.127794  0  1.045272  0
H  H104  1  0.59111546  0.78097308  0.75544887  1  0.018457  0  0.089952  0.124877  0  1.020622  0
H  H105  1  0.90888432  0.21902840  0.25544897  1  0.018468  0  0.089965  0.124903  0  1.020619  0
H  H106  1  0.40888510  0.28097126  0.74455064  1  0.018471  0  0.089955  0.124889  0  1.02062  0
H  H107  1  0.09111486  0.71902787  0.24455125  1  0.018486  0  0.089972  0.124891  0  1.020636  0
H  H108  1  0.49611381  0.74645517  0.61808151  1  0.042938  0  0.086453  0.117877  0  1.020897  0
H  H109  1  0.00388579  0.25354543  0.11808052  1  0.042914  0  0.086452  0.117848  0  1.020885  0
H  H110  1  0.50388679  0.24645533  0.88191907  1  0.042934  0  0.086466  0.117863  0  1.020889  0
H  H111  1  0.99611413  0.75354468  0.38191917  1  0.04293  0  0.08646  0.11787  0  1.020886  0
H  H112  1  0.56921641  0.85144458  0.63143571  1  0.050748  0  0.094672  0.137494  0  1.014333  0
H  H113  1  0.93078379  0.14855623  0.13143533  1  0.050763  0  0.094658  0.137474  0  1.014304  0
H  H114  1  0.43078330  0.35144411  0.86856431  1  0.050748  0  0.094675  0.137477  0  1.014356  0
H  H115  1  0.06921703  0.64855568  0.36856491  1  0.050742  0  0.09467  0.137497  0  1.014327  0
H  H116  1  0.44293017  0.85835023  0.59407632  1  0.024696  0  0.085842  0.118909  0  1.016048  0
H  H117  1  0.05706936  0.14165109  0.09407702  1  0.024723  0  0.085863  0.118923  0  1.016042  0
H  H118  1  0.55706952  0.35835033  0.90592265  1  0.024717  0  0.085836  0.118907  0  1.016044  0
H  H119  1  0.94293069  0.64165038  0.40592376  1  0.024706  0  0.08585  0.118927  0  1.016039  0
H  H120  1  0.53161825  0.81037225  0.90985218  1  0.109238  0  0.106007  0.102062  0  1.06264  0
H  H121  1  0.96838043  0.18962704  0.40985236  1  0.109206  0  0.105989  0.102046  0  1.062651  0
H  H122  1  0.46838151  0.31037185  0.59014733  1  0.10924  0  0.105997  0.102057  0  1.062632  0
H  H123  1  0.03161956  0.68962805  0.09014681  1  0.109237  0  0.105999  0.102062  0  1.062614  0
H  H124  1  0.41892337  0.66788622  0.88799213  1  0.101289  0  0.11063  0.101113  0  1.040537  0
H  H125  1  0.08107546  0.33211286  0.38799229  1  0.101289  0  0.110616  0.101082  0  1.040554  0
H  H126  1  0.58107654  0.16788641  0.61200741  1  0.101282  0  0.110635  0.10109  0  1.040564  0
H  H127  1  0.91892437  0.83211300  0.11200738  1  0.101296  0  0.11064  0.101093  0  1.040572  0
H  H128  1  0.47603969  0.57401621  0.10125111  1  0.092584  0  0.107344  0.10211  0  1.039789  0
H  H129  1  0.02396219  0.42598439  0.60125259  1  0.092571  0  0.107357  0.102161  0  1.039661  0
H  H130  1  0.52396044  0.07401564  0.39874968  1  0.092576  0  0.107334  0.102096  0  1.039821  0
H  H131  1  0.97603898  0.92598295  0.89874901  1  0.092596  0  0.107338  0.102104  0  1.039779  0
H  H132  1  0.58942188  0.71498317  0.12227410  1  0.099637  0  0.109077  0.111358  0  1.022738  0
H  H133  1  0.91057829  0.28501623  0.62227455  1  0.099516  0  0.109072  0.111356  0  1.022709  0
H  H134  1  0.41057731  0.21498201  0.37772666  1  0.099695  0  0.109054  0.111305  0  1.022698  0
H  H135  1  0.08942149  0.78501707  0.87772549  1  0.099682  0  0.109076  0.111382  0  1.022693  0
H  H136  1  0.73044536  0.79784354  0.86454522  1  0.619906  0  0.33496  0.421886  0  0.864619  0
H  H137  1  0.76955474  0.20215719  0.36454460  1  0.619905  0  0.334958  0.421897  0  0.8646  0
H  H138  1  0.26955519  0.29784331  0.63545482  1  0.619899  0  0.334968  0.421908  0  0.864586  0
H  H139  1  0.23044601  0.70215728  0.13545510  1  0.619906  0  0.334964  0.421903  0  0.864593  0
H  H140  1  0.78343948  0.84166715  0.79476780  1  0.651891  0  0.307919  0.416904  0  0.914202  0
H  H141  1  0.71655964  0.15833219  0.29476765  1  0.651884  0  0.307916  0.416888  0  0.914223  0
H  H142  1  0.21656023  0.34166766  0.70523222  1  0.65189  0  0.307921  0.416909  0  0.914192  0
H  H143  1  0.28344039  0.65833220  0.20523206  1  0.651891  0  0.307923  0.41691  0  0.914188  0
H  H144  1  0.61904279  0.10647493  0.01831803  1  0.673853  0  0.304306  0.421068  0  0.907475  0
H  H145  1  0.88095785  0.89352522  0.51831724  1  0.673866  0  0.304314  0.42108  0  0.907452  0
H  H146  1  0.38095730  0.60647545  0.48168222  1  0.673853  0  0.304304  0.421067  0  0.907478  0
H  H147  1  0.11904336  0.39352500  0.98168225  1  0.673853  0  0.304304  0.421062  0  0.907482  0
H  H148  1  0.60908106  0.15881156  0.94236751  1  0.619799  0  0.311978  0.394958  0  0.925982  0
H  H149  1  0.89091926  0.84118843  0.44236798  1  0.619802  0  0.311994  0.394982  0  0.925946  0
H  H150  1  0.39091887  0.65881223  0.55763203  1  0.619796  0  0.311975  0.394947  0  0.925997  0
H  H151  1  0.10908133  0.34118839  0.05763222  1  0.619804  0  0.311986  0.394981  0  0.92595  0
C  C152  1  0.01137063  0.09618079  0.82889568  1  -0.006673  0  -0.083987  -0.179098  0  3.76204  0
C  C153  1  0.48862958  0.90381972  0.32889467  1  -0.00666  0  -0.083973  -0.178995  0  3.761814  0
C  C154  1  0.98862937  0.59618013  0.67110493  1  -0.006675  0  -0.08397  -0.178996  0  3.761936  0
C  C155  1  0.51137094  0.40382067  0.17110445  1  -0.006683  0  -0.084002  -0.179081  0  3.761953  0
C  C156  1  0.12305163  0.06880275  0.80747392  1  -0.01628  0  -0.165257  -0.1627  0  3.893363  0
C  C157  1  0.37694852  0.93119777  0.30747276  1  -0.016266  0  -0.165308  -0.162754  0  3.893367  0
C  C158  1  0.87694841  0.56880219  0.69252616  1  -0.016277  0  -0.16531  -0.162809  0  3.893398  0
C  C159  1  0.62305197  0.43119789  0.19252636  1  -0.016272  0  -0.165306  -0.162826  0  3.893417  0
C  C160  1  0.18840596  0.15983300  0.81207617  1  -0.035468  0  -0.16486  -0.188915  0  3.901108  0
C  C161  1  0.31159342  0.84016681  0.31207494  1  -0.035565  0  -0.164838  -0.18893  0  3.901144  0
C  C162  1  0.81159396  0.65983321  0.68792389  1  -0.035338  0  -0.164878  -0.188937  0  3.901109  0
C  C163  1  0.68840640  0.34016687  0.18792420  1  -0.035448  0  -0.164856  -0.188888  0  3.901112  0
C  C164  1  0.12548904  0.22691154  0.85987476  1  0.050256  0  -0.008937  0.014559  0  3.734301  0
C  C165  1  0.37451126  0.77308896  0.35987363  1  0.050236  0  -0.008952  0.01456  0  3.734357  0
C  C166  1  0.87451081  0.72691171  0.64012529  1  0.050154  0  -0.008953  0.014495  0  3.734405  0
C  C167  1  0.62548863  0.27308910  0.14012553  1  0.050233  0  -0.008961  0.014555  0  3.734324  0
C  C168  1  0.00939550  0.20751848  0.83505423  1  0.025851  0  0.00359  0.211594  0  3.667229  0
C  C169  1  0.49060473  0.79248062  0.33505378  1  0.025869  0  0.003548  0.211545  0  3.667179  0
C  C170  1  0.99060437  0.70751853  0.66494583  1  0.025874  0  0.00359  0.211573  0  3.667159  0
C  C171  1  0.50939592  0.29248157  0.16494590  1  0.02586  0  0.003573  0.211549  0  3.667169  0
C  C172  1  0.93049853  0.05568240  0.77920077  1  1.525463  0  0.220255  0.656264  0  4.091529  0
C  C173  1  0.56950210  0.94431765  0.27920025  1  1.525463  0  0.220268  0.656273  0  4.091552  0
C  C174  1  0.06950230  0.55568191  0.72079879  1  1.525463  0  0.220272  0.656262  0  4.091538  0
C  C175  1  0.43049915  0.44431865  0.22079940  1  1.525464  0  0.220314  0.656406  0  4.091363  0
C  C176  1  0.15418807  0.33070272  0.84913255  1  1.514433  0  0.222418  0.598311  0  4.085143  0
C  C177  1  0.34581142  0.66929778  0.34913353  1  1.514521  0  0.222469  0.598407  0  4.085107  0
C  C178  1  0.84581243  0.83070292  0.65086695  1  1.514425  0  0.222407  0.598307  0  4.08521  0
C  C179  1  0.65418860  0.16929718  0.15086671  1  1.514462  0  0.222432  0.598328  0  4.085158  0
C  C180  1  0.14280405  0.19928283  0.93794109  1  -0.054318  0  -0.239886  -0.400773  0  3.911119  0
C  C181  1  0.35719570  0.80071764  0.43794046  1  -0.05432  0  -0.239893  -0.400752  0  3.911119  0
C  C182  1  0.85719661  0.69928234  0.56205844  1  -0.054208  0  -0.239905  -0.400843  0  3.911022  0
C  C183  1  0.64280339  0.30071779  0.06205922  1  -0.054319  0  -0.239913  -0.400866  0  3.910976  0
C  C184  1  0.98742185  0.25472396  0.76318480  1  -0.060939  0  -0.246745  -0.428532  0  3.87696  0
C  C185  1  0.51257873  0.74527538  0.26318478  1  -0.060959  0  -0.24679  -0.428609  0  3.877044  0
C  C186  1  0.01257874  0.75472423  0.73681524  1  -0.060957  0  -0.246752  -0.428489  0  3.876981  0
C  C187  1  0.48742198  0.24527632  0.23681491  1  -0.060952  0  -0.246765  -0.428594  0  3.876945  0
C  C188  1  0.92842731  0.24147582  0.88875637  1  -0.106453  0  -0.245238  -0.427537  0  3.896328  0
C  C189  1  0.57157286  0.75852277  0.38875696  1  -0.106424  0  -0.245184  -0.427502  0  3.896384  0
C  C190  1  0.07157330  0.74147537  0.61124315  1  -0.106455  0  -0.245241  -0.427548  0  3.896453  0
C  C191  1  0.42842706  0.25852523  0.11124326  1  -0.106441  0  -0.245251  -0.427545  0  3.896346  0
C  C192  1  0.44469053  0.93286545  0.73983380  1  0.010894  0  -0.010253  0.011981  0  3.72184  0
C  C193  1  0.05530787  0.06713581  0.23983345  1  0.010882  0  -0.010304  0.011885  0  3.72183  0
C  C194  1  0.55530753  0.43286490  0.76016568  1  0.010915  0  -0.010209  0.012058  0  3.721707  0
C  C195  1  0.94469072  0.56713445  0.26016734  1  0.010899  0  -0.010262  0.012068  0  3.721622  0
C  C196  1  0.36100201  0.92874805  0.79783141  1  -0.031457  0  -0.168621  -0.188854  0  3.893878  0
C  C197  1  0.13899656  0.07125319  0.29783170  1  -0.031435  0  -0.168648  -0.188913  0  3.893901  0
C  C198  1  0.63899761  0.42874744  0.70216807  1  -0.031439  0  -0.168635  -0.188902  0  3.893875  0
C  C199  1  0.86100280  0.57125122  0.20216856  1  -0.03144  0  -0.168642  -0.188874  0  3.893854  0
C  C200  1  0.27605512  0.86301443  0.76938154  1  -0.007182  0  -0.171446  -0.165217  0  3.917043  0
C  C201  1  0.22394415  0.13698682  0.26938247  1  -0.007186  0  -0.171463  -0.165237  0  3.917038  0
C  C202  1  0.72394458  0.36301443  0.73061848  1  -0.007183  0  -0.171463  -0.16527  0  3.91705  0
C  C203  1  0.77605513  0.63698563  0.23061831  1  -0.007172  0  -0.171449  -0.16522  0  3.916975  0
C  C204  1  0.32672283  0.80324727  0.71050443  1  -0.033822  0  -0.086098  -0.180999  0  3.776386  0
C  C205  1  0.17327782  0.19675329  0.21050421  1  -0.033826  0  -0.086114  -0.181081  0  3.776499  0
C  C206  1  0.67327771  0.30324801  0.78949614  1  -0.033826  0  -0.086092  -0.181036  0  3.776458  0
C  C207  1  0.82672217  0.69675204  0.28949602  1  -0.033845  0  -0.086116  -0.18103  0  3.776515  0
C  C208  1  0.44578281  0.82867201  0.70855615  1  0.036429  0  0.001228  0.20987  0  3.665406  0
C  C209  1  0.05421705  0.17132926  0.20855524  1  0.036435  0  0.001184  0.209864  0  3.665353  0
C  C210  1  0.55421692  0.32867144  0.79144388  1  0.036438  0  0.001191  0.209848  0  3.665442  0
C  C211  1  0.94578297  0.67132860  0.29144446  1  0.036436  0  0.001198  0.209864  0  3.665412  0
C  C212  1  0.55078535  0.95728880  0.77113222  1  1.551565  0  0.237981  0.65331  0  4.077363  0
C  C213  1  0.94921448  0.04271337  0.27113188  1  1.551543  0  0.237997  0.653203  0  4.077501  0
C  C214  1  0.44921268  0.45728766  0.72886620  1  1.551582  0  0.23794  0.653242  0  4.077217  0
C  C215  1  0.05078569  0.54271148  0.22886892  1  1.551557  0  0.237951  0.653186  0  4.077462  0
C  C216  1  0.30976098  0.69728760  0.71731439  1  1.560565  0  0.238475  0.682703  0  4.090264  0
C  C217  1  0.19023968  0.30271225  0.21731470  1  1.560099  0  0.238619  0.682989  0  4.090089  0
C  C218  1  0.69023968  0.19728832  0.78268567  1  1.560554  0  0.238571  0.68284  0  4.090122  0
C  C219  1  0.80976018  0.80271101  0.28268551  1  1.560515  0  0.238528  0.682738  0  4.090231  0
C  C220  1  0.41555125  0.00579551  0.68267857  1  -0.087617  0  -0.242145  -0.393974  0  3.898197  0
C  C221  1  0.08444699  0.99420507  0.18267806  1  -0.0876  0  -0.242128  -0.393876  0  3.898188  0
C  C222  1  0.58444731  0.50579518  0.81732047  1  -0.087625  0  -0.24222  -0.394082  0  3.898299  0
C  C223  1  0.91555188  0.49420414  0.31732210  1  -0.087616  0  -0.242141  -0.393944  0  3.898112  0
C  C224  1  0.50839733  0.76217558  0.75664605  1  -0.063529  0  -0.247819  -0.432716  0  3.884061  0
C  C225  1  0.99160245  0.23782519  0.25664520  1  -0.063527  0  -0.247747  -0.432647  0  3.883953  0
C  C226  1  0.49160325  0.26217439  0.74335452  1  -0.063528  0  -0.247737  -0.432637  0  3.883979  0
C  C227  1  0.00839594  0.73782404  0.24335396  1  -0.063536  0  -0.247802  -0.432743  0  3.884151  0
C  C228  1  0.49073392  0.82139816  0.63354740  1  -0.092635  0  -0.245393  -0.419286  0  3.894234  0
C  C229  1  0.00926573  0.17860314  0.13354749  1  -0.092664  0  -0.24538  -0.419219  0  3.894136  0
C  C230  1  0.50926582  0.32139761  0.86645210  1  -0.092647  0  -0.245419  -0.419258  0  3.894238  0
C  C231  1  0.99073428  0.67860240  0.36645274  1  -0.092647  0  -0.24541  -0.419317  0  3.894243  0
C  C232  1  0.56902550  0.76924841  0.01657326  1  -0.063938  0  -0.010479  -0.034084  0  3.950507  0
C  C233  1  0.93097514  0.23075104  0.51657268  1  -0.063953  0  -0.01041  -0.033988  0  3.950564  0
C  C234  1  0.43097362  0.26924789  0.48342695  1  -0.063783  0  -0.010446  -0.034065  0  3.950594  0
C  C235  1  0.06902471  0.73075115  0.98342631  1  -0.063981  0  -0.01044  -0.033987  0  3.950552  0
C  C236  1  0.52049166  0.75659073  0.95068914  1  -0.086932  0  -0.085468  -0.108255  0  3.97127  0
C  C237  1  0.97950714  0.24340854  0.45068880  1  -0.086943  0  -0.085464  -0.108291  0  3.971254  0
C  C238  1  0.47950815  0.25659034  0.54931144  1  -0.086936  0  -0.085468  -0.108264  0  3.971236  0
C  C239  1  0.02049280  0.74340958  0.04931036  1  -0.086922  0  -0.085464  -0.108276  0  3.971173  0
C  C240  1  0.45776712  0.67795738  0.93879899  1  -0.035039  0  -0.076978  -0.083794  0  3.959438  0
C  C241  1  0.04223263  0.32204167  0.43879857  1  -0.035027  0  -0.076956  -0.083748  0  3.959395  0
C  C242  1  0.54223201  0.17795692  0.56120160  1  -0.03521  0  -0.07697  -0.083675  0  3.959463  0
C  C243  1  0.95776643  0.82204179  0.06120110  1  -0.035038  0  -0.076988  -0.083755  0  3.959425  0
C  C244  1  0.44287659  0.61087036  0.99273550  1  -0.039316  0  -0.011494  -0.047373  0  3.951912  0
C  C245  1  0.05712177  0.38912867  0.49273668  1  -0.039304  0  -0.011449  -0.047259  0  3.951856  0
C  C246  1  0.55712262  0.11086920  0.50726511  1  -0.039155  0  -0.011519  -0.047607  0  3.95215  0
C  C247  1  0.94287644  0.88912954  0.00726404  1  -0.039313  0  -0.011498  -0.047421  0  3.951929  0
C  C248  1  0.49011104  0.62482473  0.05900049  1  -0.068694  0  -0.079536  -0.089445  0  3.971378  0
C  C249  1  0.00988761  0.37517518  0.55900090  1  -0.068708  0  -0.079555  -0.089514  0  3.971262  0
C  C250  1  0.50988980  0.12482486  0.44099976  1  -0.068685  0  -0.079513  -0.089345  0  3.971343  0
C  C251  1  0.99011207  0.87517583  0.94099965  1  -0.068714  0  -0.079528  -0.089386  0  3.971345  0
C  C252  1  0.55273861  0.70333769  0.07097073  1  0.026976  0  -0.078617  -0.086959  0  3.951446  0
C  C253  1  0.94726141  0.29666173  0.57097123  1  0.02709  0  -0.078619  -0.086978  0  3.951381  0
C  C254  1  0.44725981  0.20333647  0.42903002  1  0.026767  0  -0.078589  -0.086897  0  3.951275  0
C  C255  1  0.05273914  0.79666259  0.92902934  1  0.026941  0  -0.078621  -0.087047  0  3.95141  0
C  C256  1  0.63748366  0.85342973  0.02876895  1  1.584349  0  0.249367  0.681052  0  4.12013  0
C  C257  1  0.86251857  0.14656971  0.52876830  1  1.584345  0  0.249288  0.680973  0  4.12021  0
C  C258  1  0.36251692  0.35342928  0.47123124  1  1.584372  0  0.249308  0.680984  0  4.120222  0
C  C259  1  0.13748215  0.64657118  0.97123071  1  1.584344  0  0.249294  0.680994  0  4.120161  0
C  C260  1  0.37502663  0.52626696  0.98023586  1  1.59124  0  0.238448  0.656951  0  4.160983  0
C  C261  1  0.12497247  0.47373137  0.48023605  1  1.591422  0  0.238385  0.656888  0  4.161094  0
C  C262  1  0.62497268  0.02626572  0.51976477  1  1.591209  0  0.238385  0.656902  0  4.161168  0
C  C263  1  0.87502797  0.97373301  0.01976465  1  1.591382  0  0.238432  0.656892  0  4.161075  0
O  O264  1  0.84088939  0.03092688  0.80414741  1  -1.222812  0  -0.448144  -0.777032  0  2.419919  0
O  O265  1  0.65911131  0.96907316  0.30414753  1  -1.222823  0  -0.448128  -0.777002  0  2.419848  0
O  O266  1  0.15911146  0.53092631  0.69585216  1  -1.222842  0  -0.448146  -0.777009  0  2.419883  0
O  O267  1  0.34088914  0.46907426  0.19585264  1  -1.2228  0  -0.448153  -0.777076  0  2.419842  0
O  O268  1  0.94797778  0.04680734  0.71353488  1  -1.172349  0  -0.366013  -0.607968  0  2.175464  0
O  O269  1  0.55202265  0.95319273  0.21353486  1  -1.172358  0  -0.366026  -0.607995  0  2.175451  0
O  O270  1  0.05202228  0.54680684  0.78646521  1  -1.172336  0  -0.36601  -0.607965  0  2.175448  0
O  O271  1  0.44797936  0.45319298  0.28646531  1  -1.172365  0  -0.366034  -0.608018  0  2.175392  0
O  O272  1  0.13617892  0.39289472  0.89684471  1  -1.19355  0  -0.339642  -0.61558  0  2.244803  0
O  O273  1  0.36382226  0.60710577  0.39684519  1  -1.193563  0  -0.339659  -0.615646  0  2.244834  0
O  O274  1  0.86382151  0.89289421  0.60315584  1  -1.193551  0  -0.339639  -0.615596  0  2.244871  0
O  O275  1  0.63617860  0.10710591  0.10315506  1  -1.193561  0  -0.33965  -0.615618  0  2.244842  0
O  O276  1  0.19763034  0.35854174  0.79150729  1  -1.198936  0  -0.368797  -0.647912  0  2.332007  0
O  O277  1  0.30236744  0.64145879  0.29150874  1  -1.19898  0  -0.368835  -0.647962  0  2.331991  0
O  O278  1  0.80237013  0.85854195  0.70849273  1  -1.198921  0  -0.368785  -0.647892  0  2.331979  0
O  O279  1  0.69763029  0.14145883  0.20849256  1  -1.198917  0  -0.368783  -0.647908  0  2.332018  0
O  O280  1  0.62579240  0.97499357  0.72934473  1  -1.223234  0  -0.420858  -0.71802  0  2.413822  0
O  O281  1  0.87420653  0.02500791  0.22934482  1  -1.223258  0  -0.420856  -0.717978  0  2.413877  0
O  O282  1  0.37420483  0.47499390  0.77065474  1  -1.223284  0  -0.420834  -0.717998  0  2.413731  0
O  O283  1  0.12579366  0.52500664  0.27065598  1  -1.223273  0  -0.42086  -0.717958  0  2.413815  0
O  O284  1  0.56166931  0.95720663  0.83828180  1  -1.17432  0  -0.402128  -0.672269  0  2.291195  0
O  O285  1  0.93832993  0.04279481  0.33828198  1  -1.174309  0  -0.402171  -0.672228  0  2.291248  0
O  O286  1  0.43832717  0.45720199  0.66171767  1  -1.174454  0  -0.402174  -0.672271  0  2.291205  0
O  O287  1  0.06166868  0.54279364  0.16171882  1  -1.174272  0  -0.402104  -0.672236  0  2.291261  0
O  O288  1  0.32595950  0.64842377  0.66122531  1  -1.214269  0  -0.410853  -0.707685  0  2.33442  0
O  O289  1  0.17404255  0.35157610  0.16122453  1  -1.213815  0  -0.410972  -0.707895  0  2.334415  0
O  O290  1  0.67404277  0.14842379  0.83877529  1  -1.214269  0  -0.410914  -0.70777  0  2.334383  0
O  O291  1  0.82595803  0.85157482  0.33877567  1  -1.214208  0  -0.410869  -0.707692  0  2.334385  0
O  O292  1  0.28214028  0.66290559  0.77661695  1  -1.201137  0  -0.394965  -0.66431  0  2.299794  0
O  O293  1  0.21786056  0.33709424  0.27661571  1  -1.201119  0  -0.394962  -0.664371  0  2.299815  0
O  O294  1  0.71786120  0.16290631  0.72338417  1  -1.201127  0  -0.394959  -0.664319  0  2.299789  0
O  O295  1  0.78214004  0.83709305  0.22338343  1  -1.201133  0  -0.394979  -0.664362  0  2.299852  0
O  O296  1  0.65912967  0.87487659  0.09231040  1  -1.180375  0  -0.404242  -0.662366  0  2.304131  0
O  O297  1  0.84086964  0.12512282  0.59230920  1  -1.180345  0  -0.404219  -0.662345  0  2.304134  0
O  O298  1  0.34087166  0.37487690  0.40768926  1  -1.180365  0  -0.404234  -0.662347  0  2.304143  0
O  O299  1  0.15912956  0.62512217  0.90768876  1  -1.180381  0  -0.404249  -0.662392  0  2.304102  0
O  O300  1  0.67046939  0.89771702  0.97442755  1  -1.206523  0  -0.417025  -0.688796  0  2.319492  0
O  O301  1  0.82953025  0.10228295  0.47442704  1  -1.206571  0  -0.41704  -0.688821  0  2.319494  0
O  O302  1  0.32953103  0.39771749  0.52557193  1  -1.206553  0  -0.417023  -0.688802  0  2.319513  0
O  O303  1  0.17046830  0.60228315  0.02557162  1  -1.2065  0  -0.417004  -0.688781  0  2.31946  0
O  O304  1  0.35196360  0.47426391  0.03358903  1  -1.208879  0  -0.421814  -0.703379  0  2.294175  0
O  O305  1  0.14803343  0.52573389  0.53359013  1  -1.20885  0  -0.42178  -0.703344  0  2.294167  0
O  O306  1  0.64803761  0.97426418  0.46641060  1  -1.208853  0  -0.421793  -0.703333  0  2.294061  0
O  O307  1  0.85196356  0.02573580  0.96641103  1  -1.20886  0  -0.421823  -0.703367  0  2.294105  0
O  O308  1  0.34404982  0.50972291  0.91765665  1  -1.20247  0  -0.406775  -0.676937  0  2.374872  0
O  O309  1  0.15595143  0.49027544  0.41765793  1  -1.202632  0  -0.406769  -0.676965  0  2.374926  0
O  O310  1  0.65595184  0.00972446  0.58234292  1  -1.202453  0  -0.406728  -0.676849  0  2.375039  0
O  O311  1  0.84404899  0.99027567  0.08234276  1  -1.202599  0  -0.406738  -0.676861  0  2.374947  0
O  O312  1  0.77058915  0.85093100  0.84664456  1  -1.24589  0  -0.625176  -0.854  0  2.057377  0
O  O313  1  0.72941090  0.14906902  0.34664389  1  -1.245884  0  -0.625162  -0.853984  0  2.05736  0
O  O314  1  0.22941056  0.35093010  0.65335547  1  -1.245887  0  -0.625181  -0.854028  0  2.057358  0
O  O315  1  0.27058914  0.64906906  0.15335582  1  -1.245891  0  -0.625176  -0.854007  0  2.057346  0
O  O316  1  0.61226949  0.09721443  0.96562313  1  -1.273684  0  -0.648156  -0.861051  0  2.047275  0
O  O317  1  0.88773478  0.90278625  0.46562305  1  -1.273712  0  -0.648177  -0.861082  0  2.047233  0
O  O318  1  0.38773051  0.59721441  0.53437695  1  -1.273679  0  -0.648151  -0.861044  0  2.047261  0
O  O319  1  0.11226962  0.40278622  0.03437660  1  -1.273686  0  -0.648163  -0.861062  0  2.047243  0
