# generated using pymatgen
data_ZnH4(CN2)4
_symmetry_space_group_name_H-M   'P 1'
_cell_length_a   7.54616676
_cell_length_b   10.08636826
_cell_length_c   10.81247228
_cell_angle_alpha   111.93637748
_cell_angle_beta   90.00002362
_cell_angle_gamma   89.99997584
_symmetry_Int_Tables_number   1
_chemical_formula_structural   ZnH4(CN2)4
_chemical_formula_sum   'Zn4 H16 C16 N32'
_cell_volume   763.39026376
_cell_formula_units_Z   4
loop_
 _symmetry_equiv_pos_site_id
 _symmetry_equiv_pos_as_xyz
  1  'x, y, z'
loop_
 _atom_site_type_symbol
 _atom_site_label
 _atom_site_symmetry_multiplicity
 _atom_site_fract_x
 _atom_site_fract_y
 _atom_site_fract_z
 _atom_site_occupancy
 _atom_site_hle17_bader_spin_density
 _atom_site_hle17_ddec_charge
 _atom_site_hle17_ddec_spin_density
 _atom_site_hle17_ddec_sum_bond_order
 _atom_site_hle17_magmom
 _atom_site_hse06_10hf_bader_spin_density
 _atom_site_hse06_10hf_ddec_charge
 _atom_site_hse06_10hf_ddec_spin_density
 _atom_site_hse06_10hf_ddec_sum_bond_order
 _atom_site_hse06_10hf_magmom
 _atom_site_hse06_bader_spin_density
 _atom_site_hse06_ddec_charge
 _atom_site_hse06_ddec_spin_density
 _atom_site_hse06_ddec_sum_bond_order
 _atom_site_hse06_magmom
 _atom_site_pbe_bader_spin_density
 _atom_site_pbe_cm5_charge
 _atom_site_pbe_ddec_charge
 _atom_site_pbe_ddec_spin_density
 _atom_site_pbe_ddec_sum_bond_order
 _atom_site_pbe_magmom
Zn  Zn0  1  0.81312412  0.08151874  0.16429508  1  0  0.89451  0  1.93882  0  0  0.678899  0  2.423083  0  0  0.718344  0  2.378862  0  0  0.77283  0.651406  0  2.453883  0
Zn  Zn1  1  0.18687622  0.58151808  0.16429437  1  0  0.894528  0  1.93882  0  0  0.678907  0  2.423087  0  0  0.718349  0  2.378868  0  0  0.772836  0.651414  0  2.453886  0
Zn  Zn2  1  0.76555687  0.71444601  0.58405364  1  0  0.896156  0  1.982765  0  0  0.688797  0  2.465808  0  0  0.727719  0  2.421695  0  0  0.762843  0.662045  0  2.49565  0
Zn  Zn3  1  0.23444365  0.21444573  0.58405385  1  0  0.896141  0  1.982805  0  0  0.688795  0  2.465848  0  0  0.727716  0  2.421745  0  0  0.762816  0.662039  0  2.495685  0
H  H4  1  0.57893353  0.54795748  0.06418394  1  0  0.100354  0  0.947894  0  0  0.113229  0  1.007814  0  0  0.114866  0  1.007569  0  0  0.100563  0.112056  0  1.007979  0
H  H5  1  0.42106677  0.04795715  0.06418419  1  0  0.100354  0  0.947886  0  0  0.11323  0  1.007806  0  0  0.114868  0  1.007563  0  0  0.100564  0.112058  0  1.007971  0
H  H6  1  0.77515499  0.64844726  0.07989058  1  0  0.096484  0  0.985535  0  0  0.098499  0  1.068319  0  0  0.100781  0  1.066379  0  0  0.099936  0.096835  0  1.069825  0
H  H7  1  0.22484659  0.14844698  0.07989080  1  0  0.096497  0  0.985545  0  0  0.098521  0  1.068317  0  0  0.1008  0  1.066381  0  0  0.099941  0.096857  0  1.069824  0
H  H8  1  0.74304866  0.76555106  0.31939563  1  0  0.101546  0  0.968737  0  0  0.104683  0  1.050103  0  0  0.106821  0  1.048932  0  0  0.099625  0.103144  0  1.050958  0
H  H9  1  0.25695299  0.26555077  0.31939584  1  0  0.101539  0  0.968702  0  0  0.104671  0  1.050086  0  0  0.106807  0  1.048916  0  0  0.099627  0.103132  0  1.05094  0
H  H10  1  0.55336292  0.78774221  0.23310250  1  0  0.116689  0  0.944301  0  0  0.122488  0  1.018519  0  0  0.124958  0  1.017165  0  0  0.10443  0.120663  0  1.01965  0
H  H11  1  0.44663735  0.28774188  0.23310275  1  0  0.116672  0  0.944298  0  0  0.122505  0  1.0185  0  0  0.124969  0  1.01715  0  0  0.104427  0.12068  0  1.019631  0
H  H12  1  0.68776000  0.16249952  0.89453048  1  0  0.112846  0  0.935529  0  0  0.123626  0  0.998411  0  0  0.125456  0  0.998228  0  0  0.106506  0.122377  0  0.998387  0
H  H13  1  0.31223940  0.66249883  0.89453072  1  0  0.112851  0  0.935546  0  0  0.123644  0  0.998421  0  0  0.125473  0  0.998236  0  0  0.10652  0.122394  0  0.998398  0
H  H14  1  0.63914192  0.05042834  0.72904525  1  0  0.109668  0  0.939948  0  0  0.114397  0  1.016276  0  0  0.117432  0  1.013132  0  0  0.10433  0.112122  0  1.018692  0
H  H15  1  0.36085877  0.55042764  0.72904550  1  0  0.109668  0  0.939961  0  0  0.114405  0  1.016287  0  0  0.117438  0  1.013143  0  0  0.104325  0.11213  0  1.018703  0
H  H16  1  0.92302509  0.20255034  0.77173902  1  0  0.10546  0  0.903809  0  0  0.125648  0  0.952534  0  0  0.127064  0  0.952775  0  0  0.110152  0.124627  0  0.952409  0
H  H17  1  0.07697553  0.70255078  0.77173866  1  0  0.10545  0  0.90378  0  0  0.125662  0  0.952486  0  0  0.127078  0  0.952727  0  0  0.110165  0.124642  0  0.952362  0
H  H18  1  0.01746737  0.09059277  0.84458169  1  0  0.102379  0  0.922275  0  0  0.114961  0  0.985282  0  0  0.116429  0  0.984996  0  0  0.104227  0.113829  0  0.985678  0
H  H19  1  0.98253336  0.59059300  0.84458152  1  0  0.102375  0  0.922269  0  0  0.114963  0  0.985279  0  0  0.11643  0  0.984993  0  0  0.104232  0.113831  0  0.985674  0
C  C20  1  0.79153291  0.47300858  0.14384764  1  0  0.337849  0  3.70793  0  0  0.320064  0  3.978526  0  0  0.330363  0  3.995269  0  0  0.223861  0.313142  0  3.967164  0
C  C21  1  0.20846720  0.97300899  0.14384824  1  0  0.337867  0  3.707962  0  0  0.320081  0  3.978555  0  0  0.330382  0  3.995295  0  0  0.223862  0.313159  0  3.967194  0
C  C22  1  0.69271449  0.59348700  0.12914012  1  0  -0.190683  0  3.699512  0  0  -0.227522  0  3.94241  0  0  -0.229712  0  3.952423  0  0  -0.155051  -0.225773  0  3.935319  0
C  C23  1  0.30728583  0.09348670  0.12914035  1  0  -0.19071  0  3.699528  0  0  -0.227543  0  3.942424  0  0  -0.229732  0  3.952436  0  0  -0.155056  -0.225793  0  3.935331  0
C  C24  1  0.62864355  0.70952714  0.26062085  1  0  -0.202456  0  3.677831  0  0  -0.239152  0  3.922751  0  0  -0.242485  0  3.93239  0  0  -0.153238  -0.236724  0  3.916135  0
C  C25  1  0.37135677  0.20952683  0.26062016  1  0  -0.202389  0  3.677691  0  0  -0.239154  0  3.922732  0  0  -0.242481  0  3.932372  0  0  -0.153234  -0.236725  0  3.916116  0
C  C26  1  0.51467579  0.65552580  0.34371130  1  0  0.375539  0  3.698909  0  0  0.347757  0  3.96016  0  0  0.362248  0  3.976563  0  0  0.235068  0.338131  0  3.948896  0
C  C27  1  0.48532461  0.15552760  0.34371231  1  0  0.375535  0  3.698865  0  0  0.347747  0  3.960157  0  0  0.362239  0  3.976556  0  0  0.235102  0.33812  0  3.948893  0
C  C28  1  0.71531150  0.94359716  0.85669552  1  0  0.359656  0  3.708118  0  0  0.333029  0  3.97156  0  0  0.346408  0  3.988046  0  0  0.227643  0.324074  0  3.960057  0
C  C29  1  0.28468771  0.44359687  0.85669574  1  0  0.359767  0  3.708065  0  0  0.333163  0  3.971468  0  0  0.346539  0  3.987949  0  0  0.227679  0.324207  0  3.959965  0
C  C30  1  0.73158358  0.06610816  0.81194807  1  0  -0.199082  0  3.68705  0  0  -0.237217  0  3.935626  0  0  -0.239548  0  3.944659  0  0  -0.150762  -0.235458  0  3.929249  0
C  C31  1  0.26841583  0.56610855  0.81194775  1  0  -0.199096  0  3.687041  0  0  -0.237291  0  3.935698  0  0  -0.239613  0  3.944719  0  0  -0.150758  -0.235533  0  3.929321  0
C  C32  1  0.91905622  0.09296961  0.77018552  1  0  -0.171856  0  3.674083  0  0  -0.213761  0  3.928065  0  0  -0.216103  0  3.938172  0  0  -0.142121  -0.21197  0  3.920859  0
C  C33  1  0.08094314  0.59297005  0.77018516  1  0  -0.17183  0  3.673949  0  0  -0.213789  0  3.927962  0  0  -0.216133  0  3.938067  0  0  -0.142155  -0.211998  0  3.920757  0
C  C34  1  0.98055735  0.99626623  0.63509880  1  0  0.360861  0  3.701953  0  0  0.332236  0  3.9699  0  0  0.346266  0  3.986143  0  0  0.231993  0.323106  0  3.958533  0
C  C35  1  0.01944038  0.49626707  0.63509750  1  0  0.360898  0  3.701952  0  0  0.332342  0  3.969808  0  0  0.346371  0  3.98605  0  0  0.232041  0.323211  0  3.95844  0
N  N36  1  0.85163235  0.27058842  0.15028043  1  0  -0.129015  0  3.344998  0  0  -0.060094  0  3.668  0  0  -0.069078  0  3.677891  0  0  -0.126079  -0.053683  0  3.661089  0
N  N37  1  0.14836920  0.77058885  0.15028009  1  0  -0.129046  0  3.345  0  0  -0.06012  0  3.667997  0  0  -0.069105  0  3.677888  0  0  -0.126097  -0.053709  0  3.661086  0
N  N38  1  0.00361106  0.33789152  0.16626265  1  0  -0.038363  0  2.971023  0  0  -0.040308  0  3.257298  0  0  -0.036504  0  3.269569  0  0  -0.078254  -0.042541  0  3.248961  0
N  N39  1  0.99638914  0.83789175  0.16626249  1  0  -0.038348  0  2.970996  0  0  -0.040298  0  3.257267  0  0  -0.036494  0  3.26954  0  0  -0.078247  -0.04253  0  3.24893  0
N  N40  1  0.96911977  0.46637512  0.16255817  1  0  -0.331909  0  3.201392  0  0  -0.259593  0  3.509278  0  0  -0.277031  0  3.519518  0  0  -0.235719  -0.247805  0  3.502398  0
N  N41  1  0.03088035  0.96637450  0.16255743  1  0  -0.33191  0  3.201399  0  0  -0.259595  0  3.509292  0  0  -0.277032  0  3.519531  0  0  -0.235708  -0.247807  0  3.502412  0
N  N42  1  0.71611452  0.35015838  0.13589686  1  0  -0.290237  0  2.909914  0  0  -0.280948  0  3.191204  0  0  -0.289728  0  3.204453  0  0  -0.216875  -0.275065  0  3.182193  0
N  N43  1  0.28388565  0.85015876  0.13589747  1  0  -0.290241  0  2.909942  0  0  -0.280947  0  3.191216  0  0  -0.289729  0  3.204464  0  0  -0.216878  -0.275065  0  3.182204  0
N  N44  1  0.35241196  0.59734154  0.31225938  1  0  -0.343441  0  3.18968  0  0  -0.2641  0  3.496754  0  0  -0.284132  0  3.507328  0  0  -0.245775  -0.250773  0  3.489717  0
N  N45  1  0.64758846  0.09734223  0.31226005  1  0  -0.343497  0  3.189714  0  0  -0.264166  0  3.496825  0  0  -0.284199  0  3.507398  0  0  -0.245806  -0.250839  0  3.48979  0
N  N46  1  0.29585083  0.56236971  0.41564873  1  0  -0.047455  0  2.948735  0  0  -0.050405  0  3.252232  0  0  -0.048583  0  3.264927  0  0  -0.083745  -0.051375  0  3.243651  0
N  N47  1  0.70414966  0.06236932  0.41564904  1  0  -0.047384  0  2.948684  0  0  -0.050316  0  3.252164  0  0  -0.048495  0  3.26486  0  0  -0.083725  -0.051287  0  3.243585  0
N  N48  1  0.41785054  0.59730727  0.50667634  1  0  -0.083885  0  2.933756  0  0  -0.077627  0  3.225265  0  0  -0.076553  0  3.235974  0  0  -0.09528  -0.078339  0  3.218292  0
N  N49  1  0.58214999  0.09730690  0.50667663  1  0  -0.083882  0  2.93373  0  0  -0.077624  0  3.225248  0  0  -0.076549  0  3.235956  0  0  -0.095268  -0.078336  0  3.218274  0
N  N50  1  0.55676077  0.65612717  0.46448674  1  0  -0.349721  0  3.224042  0  0  -0.274912  0  3.533889  0  0  -0.293824  0  3.542976  0  0  -0.25209  -0.262533  0  3.527772  0
N  N51  1  0.44323970  0.15612684  0.46448699  1  0  -0.349746  0  3.224039  0  0  -0.274943  0  3.533918  0  0  -0.293856  0  3.543005  0  0  -0.252128  -0.262563  0  3.527799  0
N  N52  1  0.71108953  0.94999743  0.98336397  1  0  -0.363556  0  3.175821  0  0  -0.290675  0  3.475929  0  0  -0.309112  0  3.486696  0  0  -0.245479  -0.278269  0  3.46843  0
N  N53  1  0.28891241  0.44999713  0.98336420  1  0  -0.363635  0  3.175881  0  0  -0.290756  0  3.47598  0  0  -0.309193  0  3.486745  0  0  -0.24552  -0.278352  0  3.468482  0
N  N54  1  0.68502998  0.81415142  0.97726221  1  0  -0.053877  0  2.972667  0  0  -0.049332  0  3.275118  0  0  -0.047994  0  3.286065  0  0  -0.081574  -0.049948  0  3.267598  0
N  N55  1  0.31497071  0.31415219  0.97726282  1  0  -0.053889  0  2.97261  0  0  -0.04934  0  3.275062  0  0  -0.048003  0  3.286007  0  0  -0.08157  -0.049958  0  3.267544  0
N  N56  1  0.67581204  0.72825930  0.85329508  1  0  -0.07552  0  2.94409  0  0  -0.073635  0  3.241004  0  0  -0.072303  0  3.251666  0  0  -0.092218  -0.074557  0  3.23369  0
N  N57  1  0.32418862  0.22825900  0.85329531  1  0  -0.075501  0  2.944026  0  0  -0.073631  0  3.240951  0  0  -0.072298  0  3.251611  0  0  -0.092235  -0.074552  0  3.233637  0
N  N58  1  0.69428362  0.80647286  0.77533124  1  0  -0.358229  0  3.224539  0  0  -0.285696  0  3.53249  0  0  -0.303669  0  3.541941  0  0  -0.25733  -0.273648  0  3.52588  0
N  N59  1  0.30571827  0.30647364  0.77533185  1  0  -0.358271  0  3.224592  0  0  -0.285721  0  3.532512  0  0  -0.303695  0  3.541965  0  0  -0.257312  -0.273672  0  3.525898  0
N  N60  1  0.93194196  0.86071700  0.56407329  1  0  -0.360716  0  3.202146  0  0  -0.28467  0  3.507201  0  0  -0.303567  0  3.517558  0  0  -0.250746  -0.271862  0  3.499953  0
N  N61  1  0.06805713  0.36071676  0.56407347  1  0  -0.360794  0  3.202307  0  0  -0.284784  0  3.507368  0  0  -0.303683  0  3.517722  0  0  -0.250811  -0.271976  0  3.500116  0
N  N62  1  0.02699241  0.81696234  0.44843408  1  0  -0.077359  0  2.980991  0  0  -0.072785  0  3.290374  0  0  -0.072495  0  3.3018  0  0  -0.087837  -0.073068  0  3.282782  0
N  N63  1  0.97300796  0.31696189  0.44843353  1  0  -0.077372  0  2.98099  0  0  -0.072797  0  3.290382  0  0  -0.072503  0  3.301806  0  0  -0.087837  -0.073079  0  3.282788  0
N  N64  1  0.12915684  0.92036319  0.44913505  1  0  -0.051444  0  2.967287  0  0  -0.056444  0  3.273598  0  0  -0.054515  0  3.286244  0  0  -0.08823  -0.057541  0  3.264966  0
N  N65  1  0.87084215  0.42036384  0.44913392  1  0  -0.051396  0  2.967218  0  0  -0.056399  0  3.273511  0  0  -0.054472  0  3.286158  0  0  -0.088209  -0.057497  0  3.264882  0
N  N66  1  0.10318235  0.03415359  0.56421265  1  0  -0.351195  0  3.215272  0  0  -0.279429  0  3.529715  0  0  -0.298208  0  3.539414  0  0  -0.2456  -0.266615  0  3.522539  0
N  N67  1  0.89681561  0.53415277  0.56421209  1  0  -0.351204  0  3.215369  0  0  -0.279428  0  3.529758  0  0  -0.298205  0  3.539458  0  0  -0.245587  -0.266614  0  3.522587  0
