# generated using pymatgen
data_AgH7C9N2
_symmetry_space_group_name_H-M   'P 1'
_cell_length_a   6.81089310
_cell_length_b   9.90687401
_cell_length_c   12.39650129
_cell_angle_alpha   101.87223599
_cell_angle_beta   89.99973485
_cell_angle_gamma   90.00077918
_symmetry_Int_Tables_number   1
_chemical_formula_structural   AgH7C9N2
_chemical_formula_sum   'Ag4 H28 C36 N8'
_cell_volume   818.55703663
_cell_formula_units_Z   4
loop_
 _symmetry_equiv_pos_site_id
 _symmetry_equiv_pos_as_xyz
  1  'x, y, z'
loop_
 _atom_site_type_symbol
 _atom_site_label
 _atom_site_symmetry_multiplicity
 _atom_site_fract_x
 _atom_site_fract_y
 _atom_site_fract_z
 _atom_site_occupancy
 _atom_site_pbe_bader_spin_density
 _atom_site_pbe_cm5_charge
 _atom_site_pbe_ddec_charge
 _atom_site_pbe_ddec_spin_density
 _atom_site_pbe_ddec_sum_bond_order
 _atom_site_pbe_magmom
Ag  Ag0  1  0.38972151  0.99379044  0.62335476  1  0  0.495553  0.364634  0  1.974533  0
Ag  Ag1  1  0.88971603  0.00621144  0.37664562  1  0  0.495539  0.364656  0  1.974509  0
Ag  Ag2  1  0.36945553  0.95872819  0.11878394  1  0  0.492775  0.359859  0  1.955117  0
Ag  Ag3  1  0.86946603  0.04127145  0.88121612  1  0  0.492785  0.359841  0  1.955162  0
H  H4  1  0.41092264  0.70813446  0.69989763  1  0  0.107579  0.100688  0  1.024713  0
H  H5  1  0.91092197  0.29186761  0.30010352  1  0  0.107568  0.100645  0  1.02465  0
H  H6  1  0.42452334  0.68763486  0.92037680  1  0  0.106788  0.100575  0  1.040252  0
H  H7  1  0.92453502  0.31236011  0.07961670  1  0  0.106788  0.100591  0  1.040245  0
H  H8  1  0.50345520  0.16389036  0.06300867  1  0  0.085124  0.082759  0  1.088357  0
H  H9  1  0.00345076  0.83611016  0.93700063  1  0  0.085138  0.082719  0  1.088209  0
H  H10  1  0.42649540  0.40994357  0.12833646  1  0  0.095489  0.089476  0  1.031322  0
H  H11  1  0.92649490  0.59005246  0.87166366  1  0  0.095493  0.089474  0  1.031272  0
H  H12  1  0.23442539  0.53795621  0.01075859  1  0  0.096542  0.093829  0  1.030263  0
H  H13  1  0.73441118  0.46203914  0.98924196  1  0  0.096528  0.093807  0  1.030226  0
H  H14  1  0.11844656  0.41248618  0.82496647  1  0  0.09645  0.094918  0  1.021056  0
H  H15  1  0.61842630  0.58750710  0.17503407  1  0  0.09643  0.094924  0  1.021115  0
H  H16  1  0.18003242  0.16433139  0.76390122  1  0  0.083816  0.075356  0  1.101321  0
H  H17  1  0.68000784  0.83566760  0.23610250  1  0  0.083834  0.075343  0  1.1014  0
H  H18  1  0.46404560  0.26678885  0.51321498  1  0  0.107471  0.105226  0  1.027794  0
H  H19  1  0.96404939  0.73321576  0.48678321  1  0  0.10745  0.105195  0  1.027805  0
H  H20  1  0.42572380  0.24448344  0.28630798  1  0  0.109676  0.105727  0  1.024645  0
H  H21  1  0.92574101  0.75552289  0.71369382  1  0  0.109665  0.105656  0  1.024635  0
H  H22  1  0.55461318  0.78698849  0.48316614  1  0  0.08867  0.085367  0  1.076758  0
H  H23  1  0.05462297  0.21301660  0.51683569  1  0  0.088681  0.085388  0  1.076699  0
H  H24  1  0.47788220  0.54009134  0.47247736  1  0  0.097002  0.09619  0  1.011361  0
H  H25  1  0.97788904  0.45991340  0.52752242  1  0  0.097007  0.096204  0  1.011283  0
H  H26  1  0.22295314  0.42311414  0.34108287  1  0  0.094809  0.086363  0  1.049468  0
H  H27  1  0.72295251  0.57688626  0.65891531  1  0  0.094805  0.086384  0  1.049441  0
H  H28  1  0.05144144  0.55544614  0.21759403  1  0  0.098654  0.101635  0  1.011355  0
H  H29  1  0.55143431  0.44454756  0.78240030  1  0  0.098646  0.101629  0  1.011397  0
H  H30  1  0.12517134  0.80233291  0.23034299  1  0  0.086317  0.077353  0  1.097315  0
H  H31  1  0.62517553  0.19766454  0.76965336  1  0  0.086277  0.077303  0  1.097379  0
C  C32  1  0.40036947  0.78750045  0.77433804  1  0  -0.024463  -0.06256  0  4.03656  0
C  C33  1  0.90036924  0.21249844  0.22566101  1  0  -0.024425  -0.062437  0  4.036569  0
C  C34  1  0.40642836  0.77722827  0.88374389  1  0  -0.019969  -0.049346  0  4.027027  0
C  C35  1  0.90643504  0.22276861  0.11625562  1  0  -0.019968  -0.049425  0  4.027243  0
C  C36  1  0.36955875  0.99462373  0.87615040  1  0  0.17719  0.217902  0  4.083815  0
C  C37  1  0.86954928  0.00537592  0.12385128  1  0  0.17719  0.217931  0  4.083739  0
C  C38  1  0.34119408  0.14380242  0.91030765  1  0  -0.017189  0.013222  0  4.049147  0
C  C39  1  0.84117542  0.85619594  0.08969148  1  0  -0.017105  0.013435  0  4.048904  0
C  C40  1  0.41273507  0.21678728  0.01215156  1  0  -0.099747  -0.129876  0  3.988259  0
C  C41  1  0.91272140  0.78321172  0.98785150  1  0  -0.099873  -0.130004  0  3.987847  0
C  C42  1  0.37303962  0.35663669  0.04801304  1  0  -0.09391  -0.074657  0  4.021744  0
C  C43  1  0.87302343  0.64335886  0.95198796  1  0  -0.093856  -0.074612  0  4.021203  0
C  C44  1  0.26643113  0.42870866  0.98187854  1  0  -0.098331  -0.100351  0  4.017316  0
C  C45  1  0.76641173  0.57128491  0.01812163  1  0  -0.098335  -0.100342  0  4.017157  0
C  C46  1  0.20086967  0.35874371  0.87867166  1  0  -0.095559  -0.07568  0  4.007624  0
C  C47  1  0.70084795  0.64124824  0.12132681  1  0  -0.095476  -0.0756  0  4.007909  0
C  C48  1  0.23610900  0.21789216  0.84365710  1  0  -0.103708  -0.138543  0  4.012152  0
C  C49  1  0.73608689  0.78210320  0.15634183  1  0  -0.103759  -0.138708  0  4.012375  0
C  C50  1  0.43246172  0.17781040  0.44832057  1  0  -0.024063  -0.062259  0  4.042554  0
C  C51  1  0.93246827  0.82219496  0.55167703  1  0  -0.024018  -0.062331  0  4.04256  0
C  C52  1  0.41142221  0.16687432  0.33596973  1  0  -0.024529  -0.063764  0  4.045306  0
C  C53  1  0.91143254  0.83312982  0.66402853  1  0  -0.024521  -0.063501  0  4.044985  0
C  C54  1  0.37493112  0.96165195  0.37233599  1  0  0.176481  0.218416  0  4.085753  0
C  C55  1  0.87494495  0.03835290  0.62766572  1  0  0.176459  0.218394  0  4.085794  0
C  C56  1  0.34070657  0.81326342  0.35997496  1  0  -0.011807  0.025509  0  4.028674  0
C  C57  1  0.84071592  0.18674216  0.64002616  1  0  -0.011833  0.025496  0  4.02883  0
C  C58  1  0.44065574  0.73697245  0.42692303  1  0  -0.099199  -0.130244  0  3.982422  0
C  C59  1  0.94066124  0.26302989  0.57307808  1  0  -0.099181  -0.130246  0  3.982521  0
C  C60  1  0.39860996  0.59760682  0.42001668  1  0  -0.097484  -0.080667  0  4.01678  0
C  C61  1  0.89861085  0.40239721  0.57998321  1  0  -0.097457  -0.080612  0  4.016562  0
C  C62  1  0.25704225  0.53168738  0.34570276  1  0  -0.100977  -0.106001  0  4.029999  0
C  C63  1  0.75704243  0.46831435  0.65429877  1  0  -0.101023  -0.106134  0  4.03006  0
C  C64  1  0.16112043  0.60557130  0.27651946  1  0  -0.09409  -0.073495  0  3.998274  0
C  C65  1  0.66112449  0.39443267  0.72348109  1  0  -0.094075  -0.073474  0  3.99833  0
C  C66  1  0.20318677  0.74484584  0.28319069  1  0  -0.098769  -0.135236  0  3.991742  0
C  C67  1  0.70319544  0.25515851  0.71681142  1  0  -0.098707  -0.135154  0  3.991554  0
N  N68  1  0.37685264  0.92413402  0.77002213  1  0  -0.398215  -0.298667  0  3.675625  0
N  N69  1  0.87684084  0.07586672  0.22997809  1  0  -0.398256  -0.298776  0  3.675712  0
N  N70  1  0.38623237  0.90742441  0.94742558  1  0  -0.396036  -0.299305  0  3.65443  0
N  N71  1  0.88623399  0.09257229  0.05257477  1  0  -0.396068  -0.299341  0  3.654699  0
N  N72  1  0.40883496  0.04835478  0.47070530  1  0  -0.400126  -0.310913  0  3.684697  0
N  N73  1  0.90883985  0.95164728  0.52929505  1  0  -0.400172  -0.310948  0  3.68466  0
N  N74  1  0.37456097  0.03108825  0.28870725  1  0  -0.39821  -0.303384  0  3.676732  0
N  N75  1  0.87457511  0.96891866  0.71129399  1  0  -0.398184  -0.303421  0  3.676708  0
