# generated using pymatgen
data_ZnNiH12(C3N2)4
_symmetry_space_group_name_H-M   'P 1'
_cell_length_a   6.99176900
_cell_length_b   7.28435713
_cell_length_c   9.07080547
_cell_angle_alpha   113.70291516
_cell_angle_beta   113.53636745
_cell_angle_gamma   89.94432167
_symmetry_Int_Tables_number   1
_chemical_formula_structural   ZnNiH12(C3N2)4
_chemical_formula_sum   'Zn1 Ni1 H12 C12 N8'
_cell_volume   380.74813655
_cell_formula_units_Z   1
loop_
 _symmetry_equiv_pos_site_id
 _symmetry_equiv_pos_as_xyz
  1  'x, y, z'
loop_
 _atom_site_type_symbol
 _atom_site_label
 _atom_site_symmetry_multiplicity
 _atom_site_fract_x
 _atom_site_fract_y
 _atom_site_fract_z
 _atom_site_occupancy
 _atom_site_hle17_bader_spin_density
 _atom_site_hle17_ddec_charge
 _atom_site_hle17_ddec_spin_density
 _atom_site_hle17_ddec_sum_bond_order
 _atom_site_hle17_magmom
 _atom_site_hse06_10hf_bader_spin_density
 _atom_site_hse06_10hf_ddec_charge
 _atom_site_hse06_10hf_ddec_spin_density
 _atom_site_hse06_10hf_ddec_sum_bond_order
 _atom_site_hse06_10hf_magmom
 _atom_site_hse06_bader_spin_density
 _atom_site_hse06_ddec_charge
 _atom_site_hse06_ddec_spin_density
 _atom_site_hse06_ddec_sum_bond_order
 _atom_site_hse06_magmom
 _atom_site_pbe_bader_spin_density
 _atom_site_pbe_cm5_charge
 _atom_site_pbe_ddec_charge
 _atom_site_pbe_ddec_spin_density
 _atom_site_pbe_ddec_sum_bond_order
 _atom_site_pbe_magmom
Zn  Zn0  1  0.00000454  0.50001650  0.00000369  1  0  0.989053  0  2.04401  0  0  0.810615  0  2.508448  0  0  0.850225  0  2.464001  0  0  0.733935  0.783738  0  2.538318  0
Ni  Ni1  1  0.50000449  0.00001391  0.00000013  1  0  0.112604  0  3.455161  0  0  0.144914  0  3.891155  0  0  0.153986  0  3.840934  0  0  0.402034  0.147932  0  3.919332  0
H  H2  1  0.31148162  0.39254363  0.78279566  1  0  0.104653  0  0.930417  0  0  0.113987  0  0.993067  0  0  0.11542  0  0.992317  0  0  0.138012  0.11307  0  0.993358  0
H  H3  1  0.68851467  0.60748791  0.21720246  1  0  0.104685  0  0.930345  0  0  0.114043  0  0.992955  0  0  0.115471  0  0.992222  0  0  0.137987  0.113119  0  0.993239  0
H  H4  1  0.74528000  0.14879153  0.29978119  1  0  0.095714  0  1.02347  0  0  0.093224  0  1.110475  0  0  0.098992  0  1.102896  0  0  0.103245  0.088712  0  1.116062  0
H  H5  1  0.25470817  0.85115448  0.70021835  1  0  0.095808  0  1.023444  0  0  0.093364  0  1.110374  0  0  0.099105  0  1.102823  0  0  0.103253  0.088848  0  1.115963  0
H  H6  1  0.64554044  0.29461182  0.59173931  1  0  0.09847  0  0.969758  0  0  0.107686  0  1.033642  0  0  0.110138  0  1.032101  0  0  0.115246  0.10595  0  1.034784  0
H  H7  1  0.35445554  0.70536330  0.40826652  1  0  0.098562  0  0.969811  0  0  0.107772  0  1.033682  0  0  0.110227  0  1.032134  0  0  0.115247  0.106038  0  1.034825  0
H  H8  1  0.07563104  0.13340030  0.26482543  1  0  0.126438  0  0.918626  0  0  0.149013  0  0.973961  0  0  0.149263  0  0.975138  0  0  0.118187  0.148826  0  0.973088  0
H  H9  1  0.92435595  0.86660053  0.73517099  1  0  0.126549  0  0.918573  0  0  0.149026  0  0.973989  0  0  0.149276  0  0.97517  0  0  0.118213  0.148839  0  0.973116  0
H  H10  1  0.28377848  0.09436684  0.43574181  1  0  0.100758  0  0.949152  0  0  0.119337  0  1.015308  0  0  0.119513  0  1.016254  0  0  0.104575  0.119164  0  1.014644  0
H  H11  1  0.71597070  0.65750385  0.56340396  1  0  0.101348  0  0.946741  0  0  0.119382  0  1.013593  0  0  0.119523  0  1.014604  0  0  0.104539  0.119223  0  1.012898  0
H  H12  1  0.71619248  0.90560474  0.56423937  1  0  0.100765  0  0.949171  0  0  0.119344  0  1.01529  0  0  0.119523  0  1.016232  0  0  0.104592  0.11917  0  1.014627  0
H  H13  1  0.28403831  0.34247771  0.43659879  1  0  0.101267  0  0.94675  0  0  0.119289  0  1.013656  0  0  0.119429  0  1.014667  0  0  0.104461  0.119132  0  1.012961  0
C  C14  1  0.14291165  0.34712590  0.69322187  1  0  0.158332  0  3.630976  0  0  0.098994  0  3.890381  0  0  0.11171  0  3.904727  0  0  0.144305  0.090897  0  3.880152  0
C  C15  1  0.85708449  0.65288431  0.30677577  1  0  0.158296  0  3.630868  0  0  0.098985  0  3.890246  0  0  0.111699  0  3.904588  0  0  0.144313  0.090902  0  3.880002  0
C  C16  1  0.84497479  0.22087495  0.44311456  1  0  -0.068974  0  3.681545  0  0  -0.106235  0  3.942081  0  0  -0.107281  0  3.961386  0  0  0.000603  -0.10525  0  3.92928  0
C  C17  1  0.15502701  0.77910329  0.55690385  1  0  -0.069038  0  3.680798  0  0  -0.106303  0  3.941289  0  0  -0.107334  0  3.960629  0  0  0.000599  -0.105314  0  3.928498  0
C  C18  1  0.79805970  0.29288744  0.58744268  1  0  -0.009291  0  3.777782  0  0  -0.042186  0  4.042064  0  0  -0.039514  0  4.061472  0  0  -0.005994  -0.043925  0  4.028783  0
C  C19  1  0.20194755  0.70709411  0.41255627  1  0  -0.009431  0  3.777244  0  0  -0.042334  0  4.041542  0  0  -0.039661  0  4.060946  0  0  -0.005983  -0.044075  0  4.028268  0
C  C20  1  0.18545881  0.20400941  0.40710829  1  0  -0.16343  0  3.613497  0  0  -0.265902  0  3.855023  0  0  -0.262662  0  3.865168  0  0  -0.124991  -0.267801  0  3.847943  0
C  C21  1  0.81453411  0.79597938  0.59288908  1  0  -0.163627  0  3.613713  0  0  -0.265988  0  3.855159  0  0  -0.262747  0  3.865292  0  0  -0.125079  -0.267885  0  3.848083  0
C  C22  1  0.65259181  0.15096099  0.94890568  1  0  0.06468  0  3.498076  0  0  0.032658  0  3.828357  0  0  0.039722  0  3.832853  0  0  0.014594  0.024673  0  3.826224  0
C  C23  1  0.35062265  0.20502836  0.05227427  1  0  0.063975  0  3.500578  0  0  0.031414  0  3.831482  0  0  0.038844  0  3.835453  0  0  0.014608  0.023389  0  3.829408  0
C  C24  1  0.34742237  0.84907091  0.05110855  1  0  0.064635  0  3.497899  0  0  0.032602  0  3.828202  0  0  0.03968  0  3.832679  0  0  0.014577  0.024622  0  3.826066  0
C  C25  1  0.64939705  0.79500530  0.94772552  1  0  0.063885  0  3.500944  0  0  0.031332  0  3.831832  0  0  0.038769  0  3.835794  0  0  0.014662  0.023305  0  3.829755  0
N  N26  1  0.98514932  0.37103363  0.74221115  1  0  -0.366518  0  3.312812  0  0  -0.291821  0  3.594648  0  0  -0.311194  0  3.611174  0  0  -0.347573  -0.2785  0  3.582889  0
N  N27  1  0.01484858  0.62897660  0.25779029  1  0  -0.36644  0  3.312739  0  0  -0.29177  0  3.594583  0  0  -0.31114  0  3.611107  0  0  -0.347527  -0.278449  0  3.582822  0
N  N28  1  0.06376876  0.25616350  0.51197968  1  0  -0.018788  0  3.58474  0  0  0.081529  0  3.80051  0  0  0.067325  0  3.828607  0  0  -0.243046  0.090854  0  3.781371  0
N  N29  1  0.93622056  0.74382216  0.48801677  1  0  -0.018841  0  3.584729  0  0  0.081405  0  3.800534  0  0  0.067205  0  3.828629  0  0  -0.243093  0.090728  0  3.781396  0
N  N30  1  0.75433687  0.25022034  0.92179303  1  0  -0.41945  0  2.991713  0  0  -0.359937  0  3.285466  0  0  -0.376416  0  3.297458  0  0  -0.352276  -0.348069  0  3.277513  0
N  N31  1  0.25048919  0.33298473  0.07989779  1  0  -0.418622  0  2.991668  0  0  -0.358795  0  3.284983  0  0  -0.37538  0  3.296901  0  0  -0.351937  -0.346939  0  3.27707  0
N  N32  1  0.24566566  0.74980377  0.07819995  1  0  -0.419419  0  2.99176  0  0  -0.359868  0  3.285456  0  0  -0.376354  0  3.297449  0  0  -0.352239  -0.348  0  3.277503  0
N  N33  1  0.74952197  0.66704106  0.92010697  1  0  -0.418609  0  2.991885  0  0  -0.358778  0  3.2852  0  0  -0.375363  0  3.297114  0  0  -0.352049  -0.346925  0  3.277288  0
