# generated using pymatgen
data_NaH7C7SO6
_symmetry_space_group_name_H-M   'P 1'
_cell_length_a   6.05221748
_cell_length_b   6.68266571
_cell_length_c   22.32294524
_cell_angle_alpha   89.98927911
_cell_angle_beta   90.00274974
_cell_angle_gamma   98.00962532
_symmetry_Int_Tables_number   1
_chemical_formula_structural   NaH7C7SO6
_chemical_formula_sum   'Na4 H28 C28 S4 O24'
_cell_volume   894.04270475
_cell_formula_units_Z   4
loop_
 _symmetry_equiv_pos_site_id
 _symmetry_equiv_pos_as_xyz
  1  'x, y, z'
loop_
 _atom_site_type_symbol
 _atom_site_label
 _atom_site_symmetry_multiplicity
 _atom_site_fract_x
 _atom_site_fract_y
 _atom_site_fract_z
 _atom_site_occupancy
 _atom_site_hle17_bader_spin_density
 _atom_site_hle17_ddec_charge
 _atom_site_hle17_ddec_spin_density
 _atom_site_hle17_ddec_sum_bond_order
 _atom_site_hle17_magmom
 _atom_site_hse06_10hf_bader_spin_density
 _atom_site_hse06_10hf_ddec_charge
 _atom_site_hse06_10hf_ddec_spin_density
 _atom_site_hse06_10hf_ddec_sum_bond_order
 _atom_site_hse06_10hf_magmom
 _atom_site_hse06_bader_spin_density
 _atom_site_hse06_ddec_charge
 _atom_site_hse06_ddec_spin_density
 _atom_site_hse06_ddec_sum_bond_order
 _atom_site_hse06_magmom
 _atom_site_pbe_bader_spin_density
 _atom_site_pbe_cm5_charge
 _atom_site_pbe_ddec_charge
 _atom_site_pbe_ddec_spin_density
 _atom_site_pbe_ddec_sum_bond_order
 _atom_site_pbe_magmom
Na  Na0  1  0.69779496  0.41508287  0.21028200  1  0  0.907296  0  0.362903  0  0  0.866363  0  0.510503  0  0  0.875953  0  0.489469  0  0  0.659414  0.859306  0  0.5256  0
Na  Na1  1  0.80236673  0.58498783  0.71029316  1  0  0.907231  0  0.362977  0  0  0.866285  0  0.510609  0  0  0.875844  0  0.489635  0  0  0.659372  0.85927  0  0.525592  0
Na  Na2  1  0.30220512  0.58492556  0.78971761  1  0  0.907282  0  0.362896  0  0  0.866394  0  0.510463  0  0  0.875975  0  0.489422  0  0  0.659414  0.859322  0  0.525567  0
Na  Na3  1  0.19762587  0.41499187  0.28970466  1  0  0.907188  0  0.363101  0  0  0.86626  0  0.510709  0  0  0.875843  0  0.489693  0  0  0.659384  0.859257  0  0.525681  0
H  H4  1  0.61897664  0.62672704  0.46102546  1  0  0.100443  0  0.956042  0  0  0.108619  0  1.027267  0  0  0.111444  0  1.024475  0  0  0.107878  0.106251  0  1.029878  0
H  H5  1  0.88093781  0.37324877  0.96099787  1  0  0.100361  0  0.956166  0  0  0.108613  0  1.027334  0  0  0.111463  0  1.024471  0  0  0.107924  0.1063  0  1.02991  0
H  H6  1  0.38102401  0.37325120  0.53898088  1  0  0.100447  0  0.955872  0  0  0.108551  0  1.027171  0  0  0.111378  0  1.024376  0  0  0.10788  0.106251  0  1.029707  0
H  H7  1  0.11905255  0.62678375  0.03900084  1  0  0.100241  0  0.95599  0  0  0.108509  0  1.02718  0  0  0.111358  0  1.024323  0  0  0.107876  0.106194  0  1.029749  0
H  H8  1  0.18768688  0.85600700  0.35306629  1  0  0.113726  0  0.921271  0  0  0.123092  0  0.980921  0  0  0.126991  0  0.977036  0  0  0.123826  0.120221  0  0.983831  0
H  H9  1  0.31223601  0.14373165  0.85308165  1  0  0.113723  0  0.92144  0  0  0.122918  0  0.98129  0  0  0.126811  0  0.97742  0  0  0.123607  0.120049  0  0.984191  0
H  H10  1  0.81228367  0.14395745  0.64692974  1  0  0.113811  0  0.921165  0  0  0.123164  0  0.980831  0  0  0.127065  0  0.976937  0  0  0.123781  0.120294  0  0.983745  0
H  H11  1  0.68778105  0.85627992  0.14691706  1  0  0.113722  0  0.921373  0  0  0.122849  0  0.981299  0  0  0.126743  0  0.977415  0  0  0.123584  0.119982  0  0.9842  0
H  H12  1  0.64932523  0.61703340  0.56995265  1  0  0.058871  0  0.934317  0  0  0.064812  0  1.005667  0  0  0.067599  0  1.000147  0  0  0.113117  0.062522  0  1.010013  0
H  H13  1  0.85064020  0.38301188  0.06991582  1  0  0.058867  0  0.934178  0  0  0.064685  0  1.005723  0  0  0.067546  0  1.000167  0  0  0.113085  0.062413  0  1.010019  0
H  H14  1  0.35062237  0.38295504  0.43004741  1  0  0.05891  0  0.934432  0  0  0.064703  0  1.006014  0  0  0.067587  0  1.000407  0  0  0.113066  0.06243  0  1.010301  0
H  H15  1  0.14945206  0.61699417  0.93007887  1  0  0.058504  0  0.934895  0  0  0.064563  0  1.006213  0  0  0.067323  0  1.000714  0  0  0.113095  0.062375  0  1.010418  0
H  H16  1  0.42340375  0.91254079  0.44375616  1  0  0.130932  0  0.96181  0  0  0.138789  0  1.022889  0  0  0.142879  0  1.021315  0  0  0.109399  0.135718  0  1.024561  0
H  H17  1  0.07652118  0.08733735  0.94377779  1  0  0.130756  0  0.962191  0  0  0.138726  0  1.023194  0  0  0.142808  0  1.021624  0  0  0.109456  0.135651  0  1.024869  0
H  H18  1  0.57659183  0.08742534  0.55623583  1  0  0.130896  0  0.961781  0  0  0.138757  0  1.022866  0  0  0.142855  0  1.021284  0  0  0.109388  0.135683  0  1.024544  0
H  H19  1  0.92346279  0.91269663  0.05622227  1  0  0.13074  0  0.96228  0  0  0.138704  0  1.023267  0  0  0.142785  0  1.021686  0  0  0.109505  0.135638  0  1.024948  0
H  H20  1  0.18743491  0.78899586  0.58873967  1  0  0.390961  0  0.873096  0  0  0.363165  0  0.94583  0  0  0.375422  0  0.932773  0  0  0.313467  0.35454  0  0.954856  0
H  H21  1  0.31247409  0.21111870  0.08874012  1  0  0.390746  0  0.8735  0  0  0.363088  0  0.94606  0  0  0.375337  0  0.933024  0  0  0.313474  0.354464  0  0.955083  0
H  H22  1  0.81254135  0.21100788  0.41125099  1  0  0.390771  0  0.873327  0  0  0.36287  0  0.946238  0  0  0.375122  0  0.933207  0  0  0.313349  0.354244  0  0.955255  0
H  H23  1  0.68756503  0.78888547  0.91126532  1  0  0.390773  0  0.87341  0  0  0.363052  0  0.946047  0  0  0.375301  0  0.933013  0  0  0.31343  0.354427  0  0.955065  0
H  H24  1  0.85998370  0.07303465  0.26559496  1  0  0.422621  0  0.880654  0  0  0.394448  0  0.94069  0  0  0.404203  0  0.926165  0  0  0.293361  0.387524  0  0.951009  0
H  H25  1  0.63984067  0.92662476  0.76557134  1  0  0.422548  0  0.880762  0  0  0.394245  0  0.940993  0  0  0.404009  0  0.926464  0  0  0.293413  0.387313  0  0.951313  0
H  H26  1  0.13999986  0.92692838  0.73440510  1  0  0.422527  0  0.880857  0  0  0.394353  0  0.940875  0  0  0.404099  0  0.926365  0  0  0.293381  0.387428  0  0.951194  0
H  H27  1  0.36017374  0.07341396  0.23442872  1  0  0.422463  0  0.880893  0  0  0.394231  0  0.941007  0  0  0.403984  0  0.926492  0  0  0.293411  0.387306  0  0.951318  0
H  H28  1  0.01361445  0.08330794  0.21011052  1  0  0.433987  0  0.859441  0  0  0.41062  0  0.909635  0  0  0.419538  0  0.896519  0  0  0.299907  0.404309  0  0.918928  0
H  H29  1  0.48638342  0.91637034  0.71006305  1  0  0.434615  0  0.858508  0  0  0.410985  0  0.909118  0  0  0.419911  0  0.895979  0  0  0.30013  0.404671  0  0.918419  0
H  H30  1  0.98639379  0.91668847  0.78988819  1  0  0.434064  0  0.859333  0  0  0.410715  0  0.909479  0  0  0.419635  0  0.896359  0  0  0.299992  0.404401  0  0.918776  0
H  H31  1  0.51360288  0.08362289  0.28993701  1  0  0.434622  0  0.858536  0  0  0.411045  0  0.909058  0  0  0.419965  0  0.89593  0  0  0.300146  0.404734  0  0.918353  0
C  C32  1  0.15683561  0.79820548  0.50420845  1  0  0.343263  0  3.774236  0  0  0.324469  0  4.03436  0  0  0.340564  0  4.050947  0  0  0.102453  0.313666  0  4.023028  0
C  C33  1  0.34310522  0.20179280  0.00421165  1  0  0.342774  0  3.77419  0  0  0.324259  0  4.034187  0  0  0.340358  0  4.050777  0  0  0.102407  0.313469  0  4.022844  0
C  C34  1  0.84317627  0.20180454  0.49578758  1  0  0.343005  0  3.773873  0  0  0.324216  0  4.03393  0  0  0.340306  0  4.050512  0  0  0.102306  0.313413  0  4.022589  0
C  C35  1  0.65691195  0.79820820  0.99579871  1  0  0.34278  0  3.774356  0  0  0.324242  0  4.034331  0  0  0.340337  0  4.050926  0  0  0.102312  0.313443  0  4.022995  0
C  C36  1  0.92640410  0.72054226  0.50931034  1  0  -0.171141  0  3.84597  0  0  -0.149516  0  4.084322  0  0  -0.166466  0  4.11327  0  0  -0.041854  -0.138257  0  4.064761  0
C  C37  1  0.57350733  0.27946819  0.00929680  1  0  -0.171219  0  3.847609  0  0  -0.149562  0  4.085883  0  0  -0.166561  0  4.114933  0  0  -0.041866  -0.138312  0  4.066342  0
C  C38  1  0.07357745  0.27947510  0.49069062  1  0  -0.171266  0  3.846831  0  0  -0.149473  0  4.085016  0  0  -0.166421  0  4.113994  0  0  -0.041828  -0.138218  0  4.065473  0
C  C39  1  0.42651536  0.72052530  0.99070237  1  0  -0.171495  0  3.84775  0  0  -0.149855  0  4.086192  0  0  -0.166849  0  4.115216  0  0  -0.041987  -0.138612  0  4.066676  0
C  C40  1  0.79493496  0.68828513  0.45718721  1  0  -0.03782  0  3.726792  0  0  -0.078248  0  3.987013  0  0  -0.071022  0  4.004903  0  0  -0.071509  -0.082704  0  3.975136  0
C  C41  1  0.70498147  0.31165498  0.95717360  1  0  -0.038121  0  3.727351  0  0  -0.078593  0  3.987608  0  0  -0.071374  0  4.00555  0  0  -0.071671  -0.083091  0  3.975695  0
C  C42  1  0.20505454  0.31169606  0.54281374  1  0  -0.037826  0  3.726702  0  0  -0.078204  0  3.986931  0  0  -0.070992  0  4.004833  0  0  -0.071574  -0.082714  0  3.975036  0
C  C43  1  0.29504396  0.68839136  0.04282109  1  0  -0.037524  0  3.726901  0  0  -0.078033  0  3.987137  0  0  -0.070795  0  4.005066  0  0  -0.07144  -0.082533  0  3.975217  0
C  C44  1  0.88863165  0.73502679  0.40152794  1  0  -0.155235  0  3.75113  0  0  -0.135398  0  4.013394  0  0  -0.146424  0  4.034924  0  0  -0.027524  -0.128281  0  3.998859  0
C  C45  1  0.61125630  0.26480915  0.90153125  1  0  -0.154501  0  3.750663  0  0  -0.134817  0  4.013077  0  0  -0.145799  0  4.034611  0  0  -0.02756  -0.127731  0  3.998542  0
C  C46  1  0.11133327  0.26493310  0.59846540  1  0  -0.155026  0  3.75072  0  0  -0.135278  0  4.013051  0  0  -0.146281  0  4.034591  0  0  -0.027556  -0.128177  0  3.998535  0
C  C47  1  0.38872613  0.73523689  0.09847732  1  0  -0.155308  0  3.751499  0  0  -0.135505  0  4.013802  0  0  -0.146532  0  4.035355  0  0  -0.027647  -0.128395  0  3.999272  0
C  C48  1  0.11548817  0.81653110  0.39695946  1  0  0.019621  0  3.686547  0  0  -0.013222  0  3.946666  0  0  -0.005765  0  3.961561  0  0  -0.056441  -0.017797  0  3.936413  0
C  C49  1  0.38443136  0.18327409  0.89696453  1  0  0.018903  0  3.688215  0  0  -0.013687  0  3.948373  0  0  -0.006259  0  3.963296  0  0  -0.056587  -0.018236  0  3.938086  0
C  C50  1  0.88448757  0.18341225  0.60304418  1  0  0.019359  0  3.687204  0  0  -0.013424  0  3.947292  0  0  -0.00598  0  3.962201  0  0  -0.056503  -0.01799  0  3.937034  0
C  C51  1  0.61556629  0.81676300  0.10304001  1  0  0.019233  0  3.687676  0  0  -0.013379  0  3.947822  0  0  -0.005926  0  3.962725  0  0  -0.056519  -0.017944  0  3.937549  0
C  C52  1  0.82901837  0.67572432  0.56747321  1  0  0.34233  0  3.670731  0  0  0.295182  0  3.940517  0  0  0.319076  0  3.941262  0  0  0.09427  0.279068  0  3.940075  0
C  C53  1  0.67090662  0.32434712  0.06745236  1  0  0.342427  0  3.670709  0  0  0.295269  0  3.940656  0  0  0.319092  0  3.941398  0  0  0.094241  0.279164  0  3.940215  0
C  C54  1  0.17090773  0.32426398  0.43252729  1  0  0.34237  0  3.671238  0  0  0.29512  0  3.941168  0  0  0.318931  0  3.941899  0  0  0.094203  0.279022  0  3.940725  0
C  C55  1  0.32914275  0.67564807  0.93254098  1  0  0.342994  0  3.67096  0  0  0.295577  0  3.941  0  0  0.319503  0  3.941767  0  0  0.094405  0.279414  0  3.940539  0
C  C56  1  0.24898520  0.84673636  0.44749371  1  0  -0.200176  0  3.690075  0  0  -0.217338  0  3.949242  0  0  -0.227965  0  3.968838  0  0  -0.100461  -0.21063  0  3.936744  0
C  C57  1  0.25095201  0.15315049  0.94749983  1  0  -0.19933  0  3.690432  0  0  -0.216679  0  3.949573  0  0  -0.227283  0  3.96918  0  0  -0.100247  -0.209988  0  3.937072  0
C  C58  1  0.75101886  0.15323134  0.55251083  1  0  -0.200092  0  3.690113  0  0  -0.217273  0  3.949263  0  0  -0.227898  0  3.968867  0  0  -0.100424  -0.210564  0  3.936765  0
C  C59  1  0.74905049  0.84687456  0.05250381  1  0  -0.199201  0  3.69037  0  0  -0.21651  0  3.949457  0  0  -0.227106  0  3.969038  0  0  -0.100176  -0.209819  0  3.936968  0
S  S60  1  0.72669874  0.70631707  0.33486984  1  0  1.339252  0  5.658643  0  0  1.244363  0  6.180114  0  0  1.292763  0  6.154982  0  0  0.520412  1.210918  0  6.196419  0
S  S61  1  0.77325365  0.29357650  0.83484628  1  0  1.33873  0  5.66123  0  0  1.243783  0  6.182822  0  0  1.292167  0  6.157729  0  0  0.520339  1.210369  0  6.199087  0
S  S62  1  0.27331480  0.29367031  0.66514411  1  0  1.338993  0  5.661117  0  0  1.244028  0  6.182649  0  0  1.292407  0  6.157532  0  0  0.52023  1.210587  0  6.198951  0
S  S63  1  0.22678723  0.70643977  0.16513899  1  0  1.338856  0  5.659485  0  0  1.243869  0  6.181102  0  0  1.292265  0  6.155996  0  0  0.520361  1.210432  0  6.197381  0
O  O64  1  0.69923325  0.91608957  0.31835919  1  0  -0.692006  0  1.98457  0  0  -0.626674  0  2.214238  0  0  -0.649309  0  2.198878  0  0  -0.328729  -0.610564  0  2.224322  0
O  O65  1  0.80051251  0.08384351  0.81833754  1  0  -0.691791  0  1.986075  0  0  -0.626328  0  2.215667  0  0  -0.648998  0  2.200339  0  0  -0.328654  -0.610237  0  2.225745  0
O  O66  1  0.30068027  0.08390317  0.68163101  1  0  -0.691833  0  1.985761  0  0  -0.626387  0  2.215385  0  0  -0.649015  0  2.200037  0  0  -0.328612  -0.610274  0  2.225462  0
O  O67  1  0.19957190  0.91623343  0.18165939  1  0  -0.691781  0  1.984883  0  0  -0.626377  0  2.214486  0  0  -0.649025  0  2.199149  0  0  -0.328685  -0.61027  0  2.224566  0
O  O68  1  0.86343853  0.61321896  0.29111256  1  0  -0.749635  0  1.942165  0  0  -0.708671  0  2.205442  0  0  -0.727486  0  2.187163  0  0  -0.42036  -0.695286  0  2.217599  0
O  O69  1  0.63656781  0.38686491  0.79112675  1  0  -0.749505  0  1.943437  0  0  -0.708467  0  2.20666  0  0  -0.727264  0  2.18837  0  0  -0.420352  -0.695089  0  2.218808  0
O  O70  1  0.13658901  0.38678513  0.70888571  1  0  -0.749654  0  1.943115  0  0  -0.708676  0  2.206419  0  0  -0.72747  0  2.18813  0  0  -0.420348  -0.695287  0  2.218575  0
O  O71  1  0.36340427  0.61311011  0.20888316  1  0  -0.749466  0  1.942443  0  0  -0.708424  0  2.205609  0  0  -0.727238  0  2.187328  0  0  -0.420337  -0.695037  0  2.217761  0
O  O72  1  0.51547734  0.58167656  0.34968953  1  0  -0.699235  0  1.959209  0  0  -0.656388  0  2.220045  0  0  -0.677075  0  2.205434  0  0  -0.370031  -0.641555  0  2.229537  0
O  O73  1  0.98445857  0.41807333  0.84969562  1  0  -0.698999  0  1.960163  0  0  -0.656196  0  2.221011  0  0  -0.676836  0  2.206341  0  0  -0.369956  -0.641418  0  2.230594  0
O  O74  1  0.48446421  0.41828165  0.65030874  1  0  -0.69913  0  1.960647  0  0  -0.656214  0  2.221388  0  0  -0.676917  0  2.206856  0  0  -0.369853  -0.64138  0  2.230882  0
O  O75  1  0.01552309  0.58195610  0.15030579  1  0  -0.699091  0  1.959519  0  0  -0.656186  0  2.220217  0  0  -0.676839  0  2.205572  0  0  -0.370068  -0.641396  0  2.229803  0
O  O76  1  0.28772321  0.82600084  0.55294364  1  0  -0.491864  0  2.115223  0  0  -0.436684  0  2.329264  0  0  -0.458758  0  2.321281  0  0  -0.324524  -0.420783  0  2.334276  0
O  O77  1  0.21220318  0.17408356  0.05295150  1  0  -0.491551  0  2.115043  0  0  -0.436731  0  2.329202  0  0  -0.458798  0  2.321211  0  0  -0.324559  -0.42084  0  2.334223  0
O  O78  1  0.71224997  0.17400439  0.44705149  1  0  -0.491545  0  2.115043  0  0  -0.436294  0  2.329156  0  0  -0.458368  0  2.321188  0  0  -0.324255  -0.420432  0  2.334249  0
O  O79  1  0.78784652  0.82592521  0.94705886  1  0  -0.491653  0  2.114756  0  0  -0.436732  0  2.328898  0  0  -0.458847  0  2.320982  0  0  -0.324524  -0.420827  0  2.3339  0
O  O80  1  0.93329882  0.16925267  0.23559154  1  0  -0.917528  0  1.751633  0  0  -0.877598  0  1.914905  0  0  -0.892867  0  1.883274  0  0  -0.690227  -0.866758  0  1.937119  0
O  O81  1  0.56652927  0.83041340  0.73558402  1  0  -0.917552  0  1.751114  0  0  -0.877354  0  1.914871  0  0  -0.892625  0  1.883222  0  0  -0.690403  -0.866497  0  1.937111  0
O  O82  1  0.06667745  0.83072843  0.76440673  1  0  -0.917426  0  1.751757  0  0  -0.877532  0  1.915161  0  0  -0.89279  0  1.883528  0  0  -0.690282  -0.866688  0  1.937379  0
O  O83  1  0.43348702  0.16960420  0.26441962  1  0  -0.917502  0  1.751256  0  0  -0.877339  0  1.914834  0  0  -0.892612  0  1.883209  0  0  -0.690503  -0.866494  0  1.93705  0
O  O84  1  0.93918912  0.70155640  0.61505947  1  0  -0.488917  0  2.027636  0  0  -0.434452  0  2.252597  0  0  -0.453557  0  2.246819  0  0  -0.305795  -0.42172  0  2.256574  0
O  O85  1  0.56077645  0.29859203  0.11505023  1  0  -0.488812  0  2.027454  0  0  -0.434245  0  2.252239  0  0  -0.453359  0  2.246512  0  0  -0.305629  -0.421507  0  2.25621  0
O  O86  1  0.06076014  0.29840941  0.38493701  1  0  -0.488915  0  2.027663  0  0  -0.434291  0  2.252585  0  0  -0.453402  0  2.246861  0  0  -0.305763  -0.421558  0  2.256544  0
O  O87  1  0.43931438  0.70141551  0.88495387  1  0  -0.488861  0  2.02742  0  0  -0.434318  0  2.252455  0  0  -0.453393  0  2.246593  0  0  -0.305629  -0.421563  0  2.256414  0
