# generated using pymatgen
data_CuSiH21C28IN3
_symmetry_space_group_name_H-M   'P 1'
_cell_length_a   10.08134206
_cell_length_b   11.29894668
_cell_length_c   14.13700000
_cell_angle_alpha   112.52924853
_cell_angle_beta   95.69620540
_cell_angle_gamma   99.37788909
_symmetry_Int_Tables_number   1
_chemical_formula_structural   CuSiH21C28IN3
_chemical_formula_sum   'Cu2 Si2 H42 C56 I2 N6'
_cell_volume   1444.27068122
_cell_formula_units_Z   2
loop_
 _symmetry_equiv_pos_site_id
 _symmetry_equiv_pos_as_xyz
  1  'x, y, z'
loop_
 _atom_site_type_symbol
 _atom_site_label
 _atom_site_symmetry_multiplicity
 _atom_site_fract_x
 _atom_site_fract_y
 _atom_site_fract_z
 _atom_site_occupancy
 _atom_site_hle17_bader_spin_density
 _atom_site_hle17_ddec_charge
 _atom_site_hle17_ddec_spin_density
 _atom_site_hle17_ddec_sum_bond_order
 _atom_site_hle17_magmom
 _atom_site_hse06_10hf_bader_spin_density
 _atom_site_hse06_10hf_ddec_charge
 _atom_site_hse06_10hf_ddec_spin_density
 _atom_site_hse06_10hf_ddec_sum_bond_order
 _atom_site_hse06_10hf_magmom
 _atom_site_hse06_bader_spin_density
 _atom_site_hse06_ddec_charge
 _atom_site_hse06_ddec_spin_density
 _atom_site_hse06_ddec_sum_bond_order
 _atom_site_hse06_magmom
 _atom_site_pbe_bader_charge
 _atom_site_pbe_bader_spin_density
 _atom_site_pbe_cm5_charge
 _atom_site_pbe_ddec_charge
 _atom_site_pbe_ddec_spin_density
 _atom_site_pbe_ddec_sum_bond_order
 _atom_site_pbe_magmom
Cu  Cu0  1  0.45328189  0.58844554  0.46790097  1  0  0.301706  0  2.112572  0  0  0.210325  0  2.584736  0  0  0.21238  0  2.540339  0  0.505581  0  0.344276  0.213982  0  2.610791  0
Cu  Cu1  1  0.54671533  0.41155515  0.53209834  1  0  0.301713  0  2.112574  0  0  0.210304  0  2.584753  0  0  0.212349  0  2.540346  0  0.505512  0  0.344257  0.213978  0  2.610788  0
Si  Si2  1  0.67773732  0.11490163  0.75705735  1  0  0.934388  0  3.48343  0  0  0.79982  0  3.866483  0  0  0.82063  0  3.86606  0  2.699687  0  0.132127  0.786139  0  3.865819  0
Si  Si3  1  0.32226190  0.88509906  0.24294422  1  0  0.934435  0  3.483449  0  0  0.799831  0  3.866537  0  0  0.820645  0  3.866109  0  2.699845  0  0.132134  0.78615  0  3.865879  0
H  H4  1  0.83047817  0.98129801  0.65799101  1  0  0.14988  0  0.987813  0  0  0.167557  0  1.04975  0  0  0.16987  0  1.04973  0  0.025972  0  0.091265  0.165872  0  1.049511  0
H  H5  1  0.16952160  0.01870071  0.34201212  1  0  0.149853  0  0.987844  0  0  0.167526  0  1.049793  0  0  0.16984  0  1.049772  0  0.026009  0  0.091249  0.165843  0  1.049553  0
H  H6  1  0.90754876  0.15185824  0.70973305  1  0  0.149723  0  0.961588  0  0  0.17034  0  1.01464  0  0  0.172433  0  1.014694  0  0.058075  0  0.093371  0.168651  0  1.014835  0
H  H7  1  0.09245101  0.84814048  0.29026866  1  0  0.149755  0  0.961575  0  0  0.170377  0  1.014612  0  0  0.172471  0  1.014667  0  0.057987  0  0.0934  0.168693  0  1.01481  0
H  H8  1  0.77816207  0.08230278  0.59773201  1  0  0.149662  0  0.996804  0  0  0.16672  0  1.056957  0  0  0.167578  0  1.060205  0  0.045465  0  0.090178  0.165903  0  1.054988  0
H  H9  1  0.22183970  0.91769595  0.40226985  1  0  0.149702  0  0.996732  0  0  0.166734  0  1.056915  0  0  0.167591  0  1.060166  0  0.045062  0  0.090178  0.165919  0  1.054948  0
H  H10  1  0.61387163  0.82536872  0.63483081  1  0  0.058405  0  0.998667  0  0  0.068193  0  1.068115  0  0  0.071386  0  1.064998  0  0.105762  0  0.092987  0.06585  0  1.070091  0
H  H11  1  0.38612582  0.17463296  0.36517023  1  0  0.05839  0  0.998706  0  0  0.068214  0  1.068117  0  0  0.071399  0  1.065012  0  0.105755  0  0.092983  0.065871  0  1.070093  0
H  H12  1  0.18696981  0.60038376  0.44859266  1  0  0.107439  0  0.986156  0  0  0.115948  0  1.050968  0  0  0.120927  0  1.047362  0  0.110726  0  0.090044  0.112592  0  1.053561  0
H  H13  1  0.81303218  0.39961595  0.55140881  1  0  0.107444  0  0.986128  0  0  0.115957  0  1.050937  0  0  0.120938  0  1.047324  0  0.110731  0  0.090013  0.112602  0  1.053529  0
H  H14  1  0.96087673  0.65721154  0.42473838  1  0  0.095017  0  0.950851  0  0  0.106669  0  1.005999  0  0  0.110207  0  1.003771  0  0.102278  0  0.094865  0.103678  0  1.008125  0
H  H15  1  0.03912314  0.34278326  0.57526355  1  0  0.095065  0  0.950768  0  0  0.106684  0  1.005947  0  0  0.110223  0  1.003719  0  0.102327  0  0.094874  0.103689  0  1.00807  0
H  H16  1  0.93270205  0.88476521  0.51877703  1  0  0.085015  0  0.969116  0  0  0.094626  0  1.034115  0  0  0.097047  0  1.033818  0  0.081043  0  0.096845  0.09297  0  1.033986  0
H  H17  1  0.06729461  0.11522861  0.48122296  1  0  0.085057  0  0.969057  0  0  0.094684  0  1.034046  0  0  0.097104  0  1.033749  0  0.080941  0  0.096873  0.09303  0  1.033921  0
H  H18  1  0.13092258  0.05932678  0.63702717  1  0  0.090698  0  0.944361  0  0  0.104209  0  1.000142  0  0  0.10714  0  0.998871  0  0.086339  0  0.103155  0.102241  0  1.000897  0
H  H19  1  0.86907198  0.94067097  0.36296893  1  0  0.09071  0  0.944287  0  0  0.104244  0  1.000047  0  0  0.107163  0  0.998789  0  0.086394  0  0.103178  0.102277  0  1.000804  0
H  H20  1  0.37844318  0.12676031  0.71391749  1  0  0.088691  0  0.941638  0  0  0.102012  0  0.999986  0  0  0.105268  0  0.997028  0  0.078055  0  0.104594  0.099848  0  1.001884  0
H  H21  1  0.62155526  0.87324137  0.28607725  1  0  0.088761  0  0.941593  0  0  0.10203  0  0.999995  0  0  0.105288  0  0.997039  0  0.078088  0  0.10461  0.099865  0  1.001893  0
H  H22  1  0.54093336  0.02703527  0.91028838  1  0  0.051791  0  0.972089  0  0  0.053342  0  1.055496  0  0  0.056348  0  1.052022  0  0.083514  0  0.102201  0.051147  0  1.057982  0
H  H23  1  0.45906686  0.97296542  0.08971397  1  0  0.051764  0  0.972131  0  0  0.053315  0  1.055538  0  0  0.056318  0  1.05207  0  0.083495  0  0.10219  0.051119  0  1.058024  0
H  H24  1  0.79575390  0.05761627  0.20735771  1  0  0.094846  0  0.977977  0  0  0.102392  0  1.044964  0  0  0.104883  0  1.044619  0  0.074577  0  0.095535  0.100577  0  1.04546  0
H  H25  1  0.20424664  0.94238148  0.79264376  1  0  0.094812  0  0.977931  0  0  0.10237  0  1.044926  0  0  0.104862  0  1.044578  0  0.074614  0  0.095516  0.100555  0  1.045425  0
H  H26  1  0.04134055  0.13888705  0.29101594  1  0  0.076775  0  0.992575  0  0  0.085632  0  1.060026  0  0  0.087613  0  1.060189  0  0.055235  0  0.088483  0.084371  0  1.059487  0
H  H27  1  0.95866076  0.86110972  0.70898458  1  0  0.076768  0  0.992613  0  0  0.085626  0  1.060046  0  0  0.087606  0  1.060213  0  0.054874  0  0.088488  0.084366  0  1.059504  0
H  H28  1  0.21210448  0.22284535  0.20423195  1  0  0.085273  0  0.972712  0  0  0.092815  0  1.040904  0  0  0.094821  0  1.041874  0  0.091067  0  0.090885  0.091235  0  1.040574  0
H  H29  1  0.78789706  0.77715239  0.79576818  1  0  0.085286  0  0.972725  0  0  0.092823  0  1.04092  0  0  0.094827  0  1.041893  0  0.091067  0  0.090892  0.091245  0  1.04058  0
H  H30  1  0.13896086  0.23022253  0.03369006  1  0  0.084761  0  0.969935  0  0  0.094245  0  1.034813  0  0  0.096421  0  1.034904  0  0.076941  0  0.094566  0.092778  0  1.034613  0
H  H31  1  0.86103958  0.76977914  0.96631261  1  0  0.084814  0  0.969845  0  0  0.094245  0  1.034787  0  0  0.096436  0  1.034862  0  0.076893  0  0.094561  0.092776  0  1.034585  0
H  H32  1  0.95088845  0.19212198  0.89010073  1  0  0.080217  0  0.940504  0  0  0.096494  0  0.995956  0  0  0.099301  0  0.993668  0  0.044269  0  0.104549  0.094384  0  0.997673  0
H  H33  1  0.04911077  0.80787871  0.10990084  1  0  0.080172  0  0.94051  0  0  0.096475  0  0.99594  0  0  0.099282  0  0.99365  0  0.044062  0  0.10454  0.094364  0  0.997657  0
H  H34  1  0.59950320  0.21573525  0.60433483  1  0  0.059661  0  0.965998  0  0  0.068394  0  1.034139  0  0  0.070273  0  1.032745  0  0.064261  0  0.10999  0.067033  0  1.035181  0
H  H35  1  0.40049724  0.78426642  0.39566218  1  0  0.059676  0  0.966007  0  0  0.068397  0  1.034161  0  0  0.070277  0  1.032766  0  0.064548  0  0.109986  0.067036  0  1.035206  0
H  H36  1  0.49283547  0.61829304  0.69082061  1  0  0.099624  0  0.989602  0  0  0.098955  0  1.071888  0  0  0.105186  0  1.065615  0  0.120664  0  0.090883  0.094222  0  1.076638  0
H  H37  1  0.50716552  0.38170667  0.30917866  1  0  0.09963  0  0.989618  0  0  0.098981  0  1.07188  0  0  0.10521  0  1.065609  0  0.120661  0  0.09088  0.094244  0  1.076635  0
H  H38  1  0.48885767  0.80619963  0.85759036  1  0  0.095408  0  0.959701  0  0  0.103487  0  1.023248  0  0  0.106002  0  1.022365  0  0.099399  0  0.102181  0.101802  0  1.023674  0
H  H39  1  0.51114354  0.19380106  0.14240781  1  0  0.095385  0  0.959702  0  0  0.10343  0  1.023292  0  0  0.105948  0  1.022407  0  0.099421  0  0.102144  0.101746  0  1.023718  0
H  H40  1  0.57092851  0.80237798  0.02693154  1  0  0.089238  0  0.962164  0  0  0.097138  0  1.029136  0  0  0.099893  0  1.02793  0  0.087327  0  0.099934  0.095033  0  1.030245  0
H  H41  1  0.42907447  0.19762173  0.97306858  1  0  0.089168  0  0.962175  0  0  0.097032  0  1.029198  0  0  0.099787  0  1.027991  0  0.08729  0  0.099908  0.094931  0  1.030307  0
H  H42  1  0.64035631  0.60268637  0.03341847  1  0  0.091048  0  0.94423  0  0  0.10406  0  0.999512  0  0  0.10698  0  0.998571  0  0.058331  0  0.100825  0.101815  0  1.000529  0
H  H43  1  0.35964667  0.39731334  0.96657953  1  0  0.091057  0  0.944198  0  0  0.104045  0  0.99951  0  0  0.106966  0  0.998568  0  0.058309  0  0.10082  0.101801  0  1.000527  0
H  H44  1  0.67441020  0.37647695  0.93989708  1  0  0.090037  0  0.941875  0  0  0.10173  0  1.003392  0  0  0.104545  0  1.001579  0  0.081106  0  0.104677  0.099753  0  1.004622  0
H  H45  1  0.32559134  0.62352080  0.06010163  1  0  0.09002  0  0.941899  0  0  0.101701  0  1.003428  0  0  0.104515  0  1.001616  0  0.081179  0  0.104659  0.099722  0  1.00466  0
C  C46  1  0.81089393  0.07904771  0.67289434  1  0  -0.677099  0  3.6287  0  0  -0.714281  0  3.849256  0  0  -0.724504  0  3.85618  0  -0.777616  0  -0.292282  -0.706979  0  3.844371  0
C  C47  1  0.18910684  0.92095102  0.32710674  1  0  -0.677167  0  3.628695  0  0  -0.714319  0  3.849242  0  0  -0.724543  0  3.856164  0  -0.777177  0  -0.292288  -0.707018  0  3.844359  0
C  C48  1  0.51350875  0.99118008  0.68556818  1  0  -0.334507  0  3.745488  0  0  -0.284466  0  3.999389  0  0  -0.297099  0  4.021617  0  -0.581552  0  -0.06366  -0.276235  0  3.984027  0
C  C49  1  0.48648793  0.00882257  0.31443169  1  0  -0.334421  0  3.745671  0  0  -0.284344  0  3.99951  0  0  -0.296977  0  4.021739  0  -0.58155  0  -0.06357  -0.276109  0  3.984123  0
C  C50  1  0.51778138  0.85782813  0.63020506  1  0  0.161553  0  3.690671  0  0  0.127745  0  3.929972  0  0  0.137898  0  3.943295  0  0.432417  0  0.049922  0.121749  0  3.920301  0
C  C51  1  0.48221485  0.14217256  0.36979630  1  0  0.16153  0  3.690796  0  0  0.127683  0  3.930075  0  0  0.137842  0  3.943407  0  0.432315  0  0.049899  0.12169  0  3.920389  0
C  C52  1  0.28745710  0.79698330  0.55651845  1  0  0.190665  0  3.735767  0  0  0.189824  0  3.969722  0  0  0.195468  0  3.991329  0  0.390481  0  0.104885  0.1867  0  3.955233  0
C  C53  1  0.71254434  0.20301837  0.44348075  1  0  0.190605  0  3.735967  0  0  0.189796  0  3.969917  0  0  0.195442  0  3.991522  0  0.390859  0  0.1049  0.186674  0  3.955427  0
C  C54  1  0.17358949  0.70029928  0.48879147  1  0  -0.138681  0  3.710614  0  0  -0.156966  0  3.954196  0  0  -0.161748  0  3.972768  0  -0.038284  0  -0.088411  -0.154558  0  3.941997  0
C  C55  1  0.82641050  0.29970043  0.51120773  1  0  -0.138736  0  3.710842  0  0  -0.157045  0  3.954429  0  0  -0.161823  0  3.972995  0  -0.038514  0  -0.088422  -0.154632  0  3.942225  0
C  C56  1  0.04880204  0.73252303  0.47585172  1  0  -0.035133  0  3.744518  0  0  -0.04806  0  3.987004  0  0  -0.047285  0  4.005984  0  -0.035992  0  -0.083708  -0.047611  0  3.973501  0
C  C57  1  0.95119363  0.26747078  0.52414679  1  0  -0.035187  0  3.744546  0  0  -0.048063  0  3.987024  0  0  -0.04729  0  4.006008  0  -0.035706  0  -0.083698  -0.047614  0  3.973511  0
C  C58  1  0.03261000  0.86210637  0.52972216  1  0  -0.066038  0  3.773929  0  0  -0.080971  0  4.02738  0  0  -0.083262  0  4.048402  0  -0.038632  0  -0.088441  -0.079509  0  4.012504  0
C  C59  1  0.96738711  0.13788942  0.47027634  1  0  -0.066026  0  3.773844  0  0  -0.080993  0  4.027322  0  0  -0.083284  0  4.04834  0  -0.038504  0  -0.088441  -0.079529  0  4.01244  0
C  C60  1  0.14209738  0.95870692  0.59553472  1  0  -0.113399  0  3.749731  0  0  -0.131599  0  3.996893  0  0  -0.133576  0  4.017991  0  -0.111647  0  -0.086811  -0.130285  0  3.982615  0
C  C61  1  0.85789796  0.04128984  0.40446113  1  0  -0.113402  0  3.749575  0  0  -0.131597  0  3.996788  0  0  -0.133562  0  4.017886  0  -0.111938  0  -0.086836  -0.130279  0  3.982501  0
C  C62  1  0.27204904  0.92904010  0.61040819  1  0  0.008765  0  3.801309  0  0  0.028999  0  4.029152  0  0  0.024592  0  4.053821  0  0.005194  0  -0.008635  0.031423  0  4.013029  0
C  C63  1  0.72795184  0.07096354  0.38959016  1  0  0.008843  0  3.801332  0  0  0.029007  0  4.02926  0  0  0.0246  0  4.053927  0  0.005521  0  -0.008626  0.031433  0  4.013125  0
C  C64  1  0.38851606  0.02520202  0.67477751  1  0  -0.031712  0  3.736062  0  0  -0.065566  0  3.982724  0  0  -0.05834  0  3.99753  0  -0.098248  0  -0.06507  -0.070513  0  3.972613  0
C  C65  1  0.61148239  0.97479965  0.32521936  1  0  -0.031885  0  3.736149  0  0  -0.065685  0  3.982819  0  0  -0.058463  0  3.997632  0  -0.098773  0  -0.065163  -0.070636  0  3.972693  0
C  C66  1  0.73879090  0.11176537  0.88538962  1  0  -0.352453  0  3.760531  0  0  -0.301874  0  4.012217  0  0  -0.314919  0  4.037528  0  -0.647418  0  -0.067201  -0.293263  0  3.994556  0
C  C67  1  0.26121053  0.88823631  0.11461170  1  0  -0.352479  0  3.760582  0  0  -0.301885  0  4.012248  0  0  -0.314932  0  4.037562  0  -0.64733  0  -0.067219  -0.293277  0  3.994588  0
C  C68  1  0.65059944  0.06328392  0.94145642  1  0  0.15082  0  3.757816  0  0  0.11828  0  4.019829  0  0  0.12569  0  4.037497  0  0.542683  0  0.051435  0.113449  0  4.00755  0
C  C69  1  0.34940123  0.93671873  0.05854727  1  0  0.150842  0  3.75785  0  0  0.118298  0  4.019863  0  0  0.125708  0  4.037531  0  0.542671  0  0.051446  0.113468  0  4.007587  0
C  C70  1  0.82624377  0.10026214  0.07403545  1  0  0.200269  0  3.790182  0  0  0.204178  0  4.023652  0  0  0.210386  0  4.044908  0  0.513447  0  0.108414  0.200097  0  4.009156  0
C  C71  1  0.17375745  0.89973855  0.92596697  1  0  0.200194  0  3.790321  0  0  0.204088  0  4.023776  0  0  0.210295  0  4.045034  0  0.513455  0  0.10838  0.200007  0  4.009277  0
C  C72  1  0.87156970  0.09538494  0.17027645  1  0  -0.153627  0  3.733134  0  0  -0.170838  0  3.976789  0  0  -0.176389  0  3.99815  0  -0.063994  0  -0.093856  -0.167445  0  3.962555  0
C  C73  1  0.12843107  0.90461379  0.82972534  1  0  -0.15351  0  3.733025  0  0  -0.170746  0  3.976691  0  0  -0.176296  0  3.998052  0  -0.064102  0  -0.093826  -0.167355  0  3.962458  0
C  C74  1  0.00780640  0.13965393  0.21566087  1  0  -0.04541  0  3.771502  0  0  -0.059928  0  4.018391  0  0  -0.059884  0  4.040247  0  -0.059546  0  -0.089346  -0.059526  0  4.003211  0
C  C75  1  0.99219414  0.86034382  0.78433990  1  0  -0.045404  0  3.771478  0  0  -0.059914  0  4.018371  0  0  -0.059871  0  4.040224  0  -0.058789  0  -0.089339  -0.059512  0  4.00319  0
C  C76  1  0.10517669  0.18849377  0.16658466  1  0  -0.063128  0  3.765253  0  0  -0.077417  0  4.015481  0  0  -0.080855  0  4.038312  0  -0.076862  0  -0.09242  -0.075275  0  4.000113  0
C  C77  1  0.89482308  0.81150495  0.83341635  1  0  -0.063188  0  3.765204  0  0  -0.077472  0  4.015446  0  0  -0.080912  0  4.038283  0  -0.078045  0  -0.092443  -0.075331  0  4.000077  0
C  C78  1  0.06454764  0.19339160  0.07243031  1  0  -0.101253  0  3.742961  0  0  -0.120169  0  3.986479  0  0  -0.121991  0  4.009107  0  -0.025233  0  -0.089306  -0.118609  0  3.970844  0
C  C79  1  0.93545158  0.80660909  0.92757196  1  0  -0.101225  0  3.742883  0  0  -0.120133  0  3.986392  0  0  -0.121968  0  4.009013  0  -0.024402  0  -0.089298  -0.118577  0  3.970752  0
C  C80  1  0.92482555  0.15079482  0.02466575  1  0  0.00916  0  3.797298  0  0  0.030983  0  4.01868  0  0  0.026692  0  4.044079  0  -0.004421  0  -0.008009  0.033705  0  4.001379  0
C  C81  1  0.07517345  0.84920489  0.97533550  1  0  0.009057  0  3.797497  0  0  0.030975  0  4.018751  0  0  0.026683  0  4.044154  0  -0.004443  0  -0.008011  0.033694  0  4.001445  0
C  C82  1  0.87655761  0.15504851  0.92903993  1  0  -0.020949  0  3.738264  0  0  -0.051472  0  3.977214  0  0  -0.046887  0  3.995603  0  -0.092351  0  -0.060403  -0.053964  0  3.964175  0
C  C83  1  0.12344449  0.84495611  0.07096305  1  0  -0.020896  0  3.738339  0  0  -0.051473  0  3.977271  0  0  -0.046888  0  3.995662  0  -0.092266  0  -0.060415  -0.053962  0  3.96423  0
C  C84  1  0.64046585  0.27818258  0.77220409  1  0  -0.342121  0  3.768525  0  0  -0.292304  0  4.022333  0  0  -0.305555  0  4.04594  0  -0.57884  0  -0.066181  -0.283803  0  4.006716  0
C  C85  1  0.35953691  0.72181615  0.22779289  1  0  -0.342106  0  3.768675  0  0  -0.292283  0  4.022461  0  0  -0.305533  0  4.046059  0  -0.579041  0  -0.066147  -0.283787  0  4.00687  0
C  C86  1  0.60336300  0.29551351  0.67960200  1  0  0.159155  0  3.701851  0  0  0.121809  0  3.954066  0  0  0.131764  0  3.96854  0  0.491324  0  0.052486  0.115298  0  3.944281  0
C  C87  1  0.39663822  0.70448718  0.32039476  1  0  0.159091  0  3.701992  0  0  0.121743  0  3.954191  0  0  0.131697  0  3.968671  0  0.491094  0  0.052457  0.115232  0  3.94442  0
C  C88  1  0.56992516  0.50541319  0.76794461  1  0  0.201412  0  3.722893  0  0  0.200978  0  3.950695  0  0  0.206634  0  3.972783  0  0.410867  0  0.10774  0.197243  0  3.93628  0
C  C89  1  0.43007705  0.49458750  0.23205505  1  0  0.201449  0  3.722888  0  0  0.201012  0  3.950721  0  0  0.206673  0  3.97281  0  0.412238  0  0.107766  0.197277  0  3.936307  0
C  C90  1  0.52609613  0.61739753  0.76636310  1  0  -0.140262  0  3.716363  0  0  -0.156356  0  3.961121  0  0  -0.160704  0  3.979211  0  -0.032119  0  -0.088621  -0.153925  0  3.949884  0
C  C91  1  0.47390553  0.38260513  0.23363783  1  0  -0.140338  0  3.716475  0  0  -0.156439  0  3.961218  0  0  -0.160788  0  3.97931  0  -0.032232  0  -0.088665  -0.154005  0  3.949982  0
C  C92  1  0.52483084  0.72079790  0.85858350  1  0  -0.038652  0  3.732009  0  0  -0.050939  0  3.974266  0  0  -0.051504  0  3.99608  0  -0.038239  0  -0.081443  -0.050323  0  3.959314  0
C  C93  1  0.47517060  0.27920378  0.14141500  1  0  -0.03858  0  3.7319  0  0  -0.050838  0  3.974142  0  0  -0.051405  0  3.995955  0  -0.038673  0  -0.081314  -0.050222  0  3.959202  0
C  C94  1  0.56882040  0.71737295  0.95558067  1  0  -0.066718  0  3.775821  0  0  -0.081278  0  4.028546  0  0  -0.084179  0  4.051161  0  -0.071163  0  -0.088563  -0.079544  0  4.013427  0
C  C95  1  0.43118358  0.28262676  0.04441599  1  0  -0.066539  0  3.775641  0  0  -0.081059  0  4.028356  0  0  -0.083959  0  4.050969  0  -0.070392  0  -0.088531  -0.07933  0  4.013252  0
C  C96  1  0.60908825  0.60803784  0.95921183  1  0  -0.12085  0  3.774103  0  0  -0.140248  0  4.022042  0  0  -0.142648  0  4.044317  0  -0.04995  0  -0.091575  -0.138486  0  4.00709  0
C  C97  1  0.39091574  0.39196187  0.04078695  1  0  -0.120904  0  3.773974  0  0  -0.140276  0  4.021941  0  0  -0.14267  0  4.044211  0  -0.050194  0  -0.091583  -0.138518  0  4.006996  0
C  C98  1  0.60923239  0.49893349  0.86592644  1  0  0.012439  0  3.794903  0  0  0.03349  0  4.020134  0  0  0.028894  0  4.045945  0  -0.045582  0  -0.008663  0.036339  0  4.002975  0
C  C99  1  0.39077227  0.50106917  0.13407258  1  0  0.012446  0  3.794775  0  0  0.033436  0  4.020097  0  0  0.028833  0  4.045912  0  -0.045805  0  -0.008669  0.036292  0  4.002937  0
C  C100  1  0.64513385  0.38270921  0.86565479  1  0  -0.028026  0  3.737384  0  0  -0.061365  0  3.982594  0  0  -0.0552  0  3.999597  0  -0.070997  0  -0.064024  -0.065679  0  3.971312  0
C  C101  1  0.35486415  0.61729050  0.13434357  1  0  -0.028054  0  3.737437  0  0  -0.061361  0  3.982662  0  0  -0.055193  0  3.999663  0  -0.070984  0  -0.064077  -0.065673  0  3.971393  0
I  I102  1  0.28385679  0.38793991  0.47253226  1  0  -0.475703  0  1.417325  0  0  -0.429923  0  1.798375  0  0  -0.448911  0  1.766826  0  -0.489014  0  -0.22523  -0.418586  0  1.818966  0
I  I103  1  0.71613988  0.61206274  0.52746902  1  0  -0.475685  0  1.417279  0  0  -0.429907  0  1.79833  0  0  -0.448894  0  1.766776  0  -0.489029  0  -0.22523  -0.418573  0  1.818918  0
N  N104  1  0.41213683  0.76367256  0.56744054  1  0  -0.307229  0  3.268258  0  0  -0.2386  0  3.547009  0  0  -0.249446  0  3.554103  0  -1.19591  0  -0.343549  -0.232306  0  3.541837  0
N  N105  1  0.58786294  0.23632617  0.43255834  1  0  -0.307186  0  3.268243  0  0  -0.238546  0  3.546985  0  0  -0.249393  0  3.554074  0  -1.195876  0  -0.343539  -0.23226  0  3.541804  0
N  N106  1  0.69033255  0.05722153  0.03133701  1  0  -0.351212  0  3.037878  0  0  -0.314636  0  3.305509  0  0  -0.327081  0  3.320361  0  -1.209862  0  -0.315356  -0.306037  0  3.294925  0
N  N107  1  0.30966866  0.94277916  0.96866471  1  0  -0.351167  0  3.037898  0  0  -0.314595  0  3.305535  0  0  -0.327041  0  3.320389  0  -1.209725  0  -0.315331  -0.305998  0  3.294953  0
N  N108  1  0.57188988  0.40334333  0.67521350  1  0  -0.299402  0  3.285496  0  0  -0.232135  0  3.570995  0  0  -0.243178  0  3.578144  0  -1.188567  0  -0.342524  -0.225428  0  3.565403  0
N  N109  1  0.42811178  0.59665933  0.32478885  1  0  -0.299388  0  3.285468  0  0  -0.232092  0  3.570946  0  0  -0.243136  0  3.578103  0  -1.189769  0  -0.342508  -0.225382  0  3.565366  0
