# generated using pymatgen
data_ZnH30C26N7O8
_symmetry_space_group_name_H-M   'P 1'
_cell_length_a   9.23405424
_cell_length_b   18.32437449
_cell_length_c   19.39179829
_cell_angle_alpha   91.18544558
_cell_angle_beta   90.94383055
_cell_angle_gamma   91.00232525
_symmetry_Int_Tables_number   1
_chemical_formula_structural   ZnH30C26N7O8
_chemical_formula_sum   'Zn2 H60 C52 N14 O16'
_cell_volume   3279.58321391
_cell_formula_units_Z   2
loop_
 _symmetry_equiv_pos_site_id
 _symmetry_equiv_pos_as_xyz
  1  'x, y, z'
loop_
 _atom_site_type_symbol
 _atom_site_label
 _atom_site_symmetry_multiplicity
 _atom_site_fract_x
 _atom_site_fract_y
 _atom_site_fract_z
 _atom_site_occupancy
 _atom_site_pbe_bader_charge
 _atom_site_pbe_bader_spin_density
 _atom_site_pbe_cm5_charge
 _atom_site_pbe_ddec_charge
 _atom_site_pbe_ddec_spin_density
 _atom_site_pbe_ddec_sum_bond_order
 _atom_site_pbe_magmom
Zn  Zn0  1  0.52023959  0.42306039  0.49689765  1  1.286106  0  0.694454  0.857444  0  2.353799  0
Zn  Zn1  1  0.53255589  0.58352032  0.50372556  1  1.289532  0  0.688565  0.860141  0  2.336715  0
H  H2  1  0.31731842  0.48047554  0.07375928  1  0.049004  0  0.100544  0.10418  0  0.99481  0
H  H3  1  0.51189294  0.29157054  0.73337502  1  0.003083  0  0.075223  0.064873  0  1.023955  0
H  H4  1  0.61761734  0.27810026  0.65757751  1  0.011914  0  0.089741  0.094871  0  1.029294  0
H  H5  1  0.45433272  0.32790504  0.65293436  1  0.066098  0  0.096312  0.116797  0  0.999679  0
H  H6  1  0.22634116  0.60445772  0.72497182  1  0.396813  0  0.293074  0.230866  0  0.964303  0
H  H7  1  0.32315265  0.71260158  0.68318115  1  0.030909  0  0.091382  0.098713  0  1.014111  0
H  H8  1  0.49511965  0.67174729  0.67428139  1  0.074213  0  0.096119  0.116195  0  1.002342  0
H  H9  1  0.43483629  0.69833725  0.75790029  1  0.021282  0  0.075643  0.063453  0  1.041905  0
H  H10  1  0.37769262  0.35721160  0.28125336  1  0.396641  0  0.295065  0.232518  0  0.962834  0
H  H11  1  0.63461883  0.30078200  0.26250752  1  -0.00513  0  0.07626  0.065095  0  1.025561  0
H  H12  1  0.52945330  0.27517970  0.33509895  1  0.054165  0  0.096048  0.107473  0  1.006168  0
H  H13  1  0.74920115  0.50766499  0.92681887  1  0.051272  0  0.101743  0.106428  0  0.993196  0
H  H14  1  0.66739023  0.34367537  0.34500913  1  0.087215  0  0.097184  0.118449  0  0.999518  0
H  H15  1  0.69353900  0.66464276  0.18199137  1  0.394245  0  0.292477  0.219054  0  0.999979  0
H  H16  1  0.60068180  0.71273431  0.08484532  1  0.032429  0  0.100636  0.108276  0  0.978306  0
H  H17  1  0.44463811  0.67211603  0.12315248  1  0.024939  0  0.083477  0.077581  0  1.010792  0
H  H18  1  0.53282875  0.62693212  0.05390373  1  0.080133  0  0.094466  0.103214  0  1.055684  0
H  H19  1  0.68418138  0.34762617  0.80322739  1  0.398796  0  0.292359  0.219075  0  1.009603  0
H  H20  1  0.58357273  0.36207808  0.94503640  1  0.034027  0  0.091255  0.097341  0  1.052039  0
H  H21  1  0.63568385  0.28395673  0.89677161  1  0.04387  0  0.099067  0.104674  0  0.981726  0
H  H22  1  0.46161231  0.32254333  0.88217871  1  0.023567  0  0.086813  0.085133  0  0.998742  0
H  H23  1  0.28541491  0.62937675  0.82323804  1  0.393424  0  0.291849  0.221028  0  0.997907  0
H  H24  1  0.28874453  0.47863588  0.94594888  1  0.080071  0  0.101424  0.105663  0  0.995249  0
H  H25  1  0.48538381  0.62364325  0.94296610  1  0.062306  0  0.093345  0.100713  0  1.054999  0
H  H26  1  0.35859624  0.69190688  0.92288267  1  0.040439  0  0.098359  0.106303  0  0.97993  0
H  H27  1  0.51770325  0.68180114  0.87223338  1  -0.007288  0  0.081918  0.07499  0  1.013716  0
H  H28  1  0.44941562  0.33490008  0.19065012  1  0.389056  0  0.292734  0.219182  0  1.008186  0
H  H29  1  0.52749029  0.28079304  0.09242731  1  0.020716  0  0.100738  0.10853  0  0.978047  0
H  H30  1  0.68453374  0.33054310  0.12362212  1  0.007975  0  0.085339  0.081532  0  1.000833  0
H  H31  1  0.57539620  0.36545740  0.05567134  1  0.068817  0  0.092966  0.099878  0  1.056661  0
H  H32  1  0.28591785  0.36218398  0.43557845  1  0.667953  0  0.309324  0.377905  0  0.960966  0
H  H33  1  0.67551890  0.66344121  0.39506036  1  0.647189  0  0.307744  0.351508  0  0.95965  0
H  H34  1  0.75354893  0.35586725  0.53521320  1  0.648178  0  0.30843  0.377464  0  0.95977  0
H  H35  1  0.77719854  0.51232494  0.05469456  1  0.065885  0  0.101294  0.105906  0  0.99254  0
H  H36  1  0.26767404  0.63362353  0.53931485  1  0.663041  0  0.313495  0.380865  0  0.955624  0
H  H37  1  0.22684516  0.21009034  0.39964444  1  0.614255  0  0.327183  0.361832  0  0.903249  0
H  H38  1  0.75765650  0.81461016  0.41241464  1  0.630047  0  0.325241  0.357017  0  0.901425  0
H  H39  1  0.80414178  0.20252182  0.54740116  1  0.634673  0  0.322674  0.355023  0  0.921833  0
H  H40  1  0.18977137  0.78779679  0.57237728  1  0.609643  0  0.332517  0.367143  0  0.891946  0
H  H41  1  0.57396705  0.12423404  0.62580264  1  0.43576  0  0.304161  0.240571  0  0.97433  0
H  H42  1  0.77552862  0.10795781  0.68512950  1  0.041453  0  0.101869  0.107013  0  0.982414  0
H  H43  1  0.83250149  0.05586862  0.61280030  1  0.032324  0  0.095751  0.098188  0  1.008322  0
H  H44  1  0.74942946  0.01204658  0.68475613  1  0.026325  0  0.094401  0.09399  0  1.017479  0
H  H45  1  0.21112377  0.87482753  0.45125837  1  0.430674  0  0.287619  0.231866  0  1.001216  0
H  H46  1  0.74118100  0.65623610  0.27733170  1  0.391573  0  0.296614  0.233103  0  0.951391  0
H  H47  1  0.12365829  0.91371077  0.34222018  1  0.023551  0  0.094371  0.099796  0  0.990042  0
H  H48  1  0.31766365  0.91971267  0.33955267  1  0.02514  0  0.08245  0.081317  0  1.002181  0
H  H49  1  0.21436158  0.99932202  0.35602800  1  0.07086  0  0.10046  0.111664  0  0.991932  0
H  H50  1  0.11537211  0.02185324  0.47365072  1  0.459623  0  0.305209  0.239462  0  0.980347  0
H  H51  1  0.01351267  0.12749418  0.51933223  1  0.021007  0  0.102937  0.113436  0  0.998225  0
H  H52  1  0.18609014  0.16978189  0.53431422  1  0.068017  0  0.095965  0.099343  0  1.040469  0
H  H53  1  0.12601636  0.09961984  0.58977643  1  0.034523  0  0.088796  0.086002  0  0.995241  0
H  H54  1  0.75463998  0.94011709  0.59501295  1  0.393433  0  0.290385  0.229666  0  0.984578  0
H  H55  1  0.68459533  0.84973546  0.67330220  1  0.030876  0  0.094409  0.099027  0  0.989732  0
H  H56  1  0.50469855  0.85129903  0.63985082  1  0.041589  0  0.093988  0.10471  0  1.016364  0
H  H57  1  0.48720877  0.69683750  0.23794050  1  0.006681  0  0.086204  0.085139  0  1.036617  0
H  H58  1  0.57216576  0.92643447  0.69118520  1  0.010503  0  0.076798  0.068551  0  1.022532  0
H  H59  1  0.57043007  0.74201039  0.31134504  1  0.043068  0  0.095861  0.103313  0  1.011978  0
H  H60  1  0.44040441  0.67034816  0.32290067  1  0.058359  0  0.102025  0.12641  0  0.987383  0
H  H61  1  0.73711547  0.37752188  0.71069249  1  0.40382  0  0.29545  0.233296  0  0.960184  0
C  C62  1  0.48912039  0.50089100  0.62862961  1  1.59086  0  0.227829  0.637778  0  4.124906  0
C  C63  1  0.36498913  0.80081346  0.52479480  1  0.500298  0  0.061018  0.082247  0  4.110874  0
C  C64  1  0.47565618  0.15535623  0.50421992  1  0.065373  0  -0.014226  -0.049779  0  3.995573  0
C  C65  1  0.46998716  0.84588293  0.49546692  1  0.078738  0  -0.003206  -0.042192  0  4.005026  0
C  C66  1  0.54550213  0.03694729  0.56333645  1  0.432101  0  0.092481  0.115311  0  4.032658  0
C  C67  1  0.33937228  0.96262049  0.47750570  1  0.411236  0  0.058803  0.038705  0  4.047643  0
C  C68  1  0.32232878  0.03778791  0.49509842  1  0.4529  0  0.114697  0.154859  0  3.981983  0
C  C69  1  0.55872255  0.96166449  0.55039146  1  0.401254  0  0.051335  0.04213  0  4.030241  0
C  C70  1  0.46008601  0.92630140  0.50321925  1  -0.003949  0  -0.013512  -0.030655  0  3.978371  0
C  C71  1  0.44765466  0.07930886  0.52042676  1  0.013109  0  -0.038753  -0.131858  0  3.925896  0
C  C72  1  0.80368522  0.49877733  0.51377655  1  1.71369  0  0.233277  0.668003  0  4.224433  0
C  C73  1  0.55932629  0.50802926  0.37234115  1  1.545238  0  0.221404  0.625418  0  4.138118  0
C  C74  1  0.24083080  0.49778729  0.48686133  1  1.701417  0  0.242995  0.689239  0  4.19716  0
C  C75  1  0.95772546  0.49293616  0.50494982  1  -0.441509  0  -0.013622  -0.092988  0  3.92544  0
C  C76  1  0.08710079  0.49217527  0.49506456  1  0.206971  0  -0.026823  -0.138526  0  3.94753  0
C  C77  1  0.60878279  0.56712897  0.25850143  1  0.415938  0  0.060996  0.081548  0  3.986628  0
C  C78  1  0.56301420  0.43980314  0.73784087  1  0.43752  0  0.065355  0.084308  0  4.030041  0
C  C79  1  0.41196937  0.54801843  0.74479394  1  0.428004  0  0.063212  0.08208  0  4.033646  0
C  C80  1  0.52203173  0.43998433  0.26041511  1  0.33621  0  0.072181  0.095695  0  4.013459  0
C  C81  1  0.60686060  0.56407828  0.18524693  1  0.250982  0  0.08336  0.094524  0  4.048065  0
C  C82  1  0.56892225  0.43753008  0.81099938  1  0.318643  0  0.084295  0.097466  0  4.064541  0
C  C83  1  0.42173396  0.54691779  0.81776767  1  0.330741  0  0.083259  0.099934  0  4.042197  0
C  C84  1  0.39704929  0.27470544  0.46085249  1  1.038626  0  0.171016  0.309514  0  4.173548  0
C  C85  1  0.52173593  0.43702609  0.18723389  1  0.416228  0  0.085998  0.096613  0  4.056166  0
C  C86  1  0.56156519  0.49924244  0.14960526  1  0.070569  0  -0.021066  -0.100383  0  3.963082  0
C  C87  1  0.50171308  0.49219497  0.85108505  1  -0.00749  0  -0.02618  -0.115655  0  3.975514  0
C  C88  1  0.56593426  0.50510124  0.29535228  1  0.052012  0  -0.015996  -0.156276  0  3.950797  0
C  C89  1  0.48590382  0.49549448  0.70580238  1  -0.027809  0  -0.013927  -0.149657  0  3.956652  0
C  C90  1  0.41196216  0.48699836  0.04140216  1  -0.044179  0  -0.090882  -0.132101  0  3.984827  0
C  C91  1  0.65422787  0.50229833  0.95917719  1  -0.059657  0  -0.091507  -0.135189  0  3.985233  0
C  C92  1  0.39600863  0.48533514  0.96982811  1  -0.032205  0  -0.090268  -0.130642  0  3.984588  0
C  C93  1  0.67014669  0.50436281  0.03083979  1  -0.05787  0  -0.092089  -0.136323  0  3.992509  0
C  C94  1  0.51699057  0.49296155  0.92751020  1  0.01727  0  -0.006993  0.099675  0  3.990814  0
C  C95  1  0.59029982  0.73447679  0.46096218  1  1.048365  0  0.174597  0.311014  0  4.119557  0
C  C96  1  0.54905558  0.49684422  0.07306414  1  -0.058176  0  -0.009024  0.093066  0  3.99476  0
C  C97  1  0.52970053  0.68913349  0.29072493  1  0.263237  0  -0.155357  -0.239259  0  3.966044  0
C  C98  1  0.54979873  0.31713685  0.68539120  1  0.281964  0  -0.155542  -0.218783  0  4.001313  0
C  C99  1  0.39956539  0.67509188  0.70704293  1  0.247234  0  -0.156215  -0.217958  0  4.005957  0
C  C100  1  0.58239432  0.32144041  0.30996697  1  0.239672  0  -0.15253  -0.215315  0  3.988514  0
C  C101  1  0.55122174  0.66083788  0.10037881  1  0.243281  0  -0.146228  -0.216029  0  3.984101  0
C  C102  1  0.57684547  0.33538785  0.89401021  1  0.274928  0  -0.146125  -0.2138  0  3.989588  0
C  C103  1  0.43281089  0.65202430  0.90053536  1  0.279145  0  -0.147773  -0.215438  0  3.988293  0
C  C104  1  0.57214930  0.33568559  0.10395529  1  0.282863  0  -0.145574  -0.214765  0  3.983922  0
C  C105  1  0.74774781  0.06032116  0.65195248  1  0.313005  0  -0.139783  -0.217944  0  4.00541  0
C  C106  1  0.61819745  0.27104440  0.51540597  1  0.998724  0  0.167238  0.309243  0  4.179133  0
C  C107  1  0.22050492  0.94052399  0.36554354  1  0.254198  0  -0.147219  -0.216771  0  3.997501  0
C  C108  1  0.12568734  0.11779432  0.53573500  1  0.308061  0  -0.138102  -0.213447  0  3.980796  0
C  C109  1  0.60160216  0.88523319  0.65140965  1  0.267572  0  -0.149947  -0.212595  0  4.010273  0
C  C110  1  0.37752922  0.72463582  0.52242714  1  1.131941  0  0.185316  0.332305  0  4.156174  0
C  C111  1  0.38329337  0.19853507  0.46161133  1  0.534277  0  0.050752  0.076807  0  4.081298  0
C  C112  1  0.58417566  0.81072953  0.46187149  1  0.520095  0  0.066597  0.106413  0  4.122839  0
C  C113  1  0.60754592  0.19539892  0.52099746  1  0.512912  0  0.04267  0.057896  0  4.075086  0
N  N114  1  0.51029739  0.31227861  0.49004747  1  -1.277708  0  -0.370079  -0.436009  0  3.564503  0
N  N115  1  0.47796324  0.37119949  0.15407190  1  -1.121811  0  -0.467872  -0.315164  0  3.531754  0
N  N116  1  0.60508839  0.07167188  0.62161240  1  -1.174178  0  -0.450027  -0.271396  0  3.591463  0
N  N117  1  0.22216061  0.92857524  0.44016043  1  -1.158463  0  -0.475539  -0.344351  0  3.551629  0
N  N118  1  0.18478385  0.06309196  0.48977532  1  -1.191949  0  -0.430159  -0.228865  0  3.611053  0
N  N119  1  0.65543767  0.91633359  0.58770737  1  -1.103267  0  -0.481385  -0.33751  0  3.530934  0
N  N120  1  0.49198606  0.69243341  0.49355041  1  -1.256993  0  -0.352883  -0.408938  0  3.548103  0
N  N121  1  0.64605413  0.63486147  0.29482083  1  -1.084744  0  -0.46482  -0.335021  0  3.47645  0
N  N122  1  0.63197433  0.38548382  0.69673597  1  -1.126597  0  -0.478966  -0.334157  0  3.517648  0
N  N123  1  0.33124072  0.60245540  0.70975667  1  -1.122512  0  -0.48044  -0.344946  0  3.515027  0
N  N124  1  0.47537162  0.37796031  0.29784348  1  -1.110564  0  -0.479364  -0.335992  0  3.534328  0
N  N125  1  0.65122466  0.62615072  0.14867572  1  -1.132335  0  -0.470519  -0.318936  0  3.527821  0
N  N126  1  0.64438773  0.38013598  0.84126785  1  -1.137094  0  -0.468949  -0.317582  0  3.539942  0
N  N127  1  0.34846514  0.60072172  0.85620919  1  -1.122092  0  -0.471456  -0.322306  0  3.513265  0
O  O128  1  0.44478500  0.44597619  0.59220004  1  -1.165558  0  -0.314334  -0.552411  0  2.343971  0
O  O129  1  0.70478810  0.70350992  0.42864188  1  -1.178571  0  -0.362694  -0.488193  0  2.329955  0
O  O130  1  0.74765016  0.30090842  0.53662286  1  -1.181485  0  -0.363234  -0.500074  0  2.327745  0
O  O131  1  0.26941181  0.68726684  0.55249328  1  -1.181159  0  -0.349962  -0.486555  0  2.334919  0
O  O132  1  0.27974845  0.16838602  0.41773862  1  -1.110138  0  -0.350786  -0.414627  0  2.360402  0
O  O133  1  0.68794819  0.85032402  0.42909648  1  -1.137065  0  -0.355971  -0.420599  0  2.294566  0
O  O134  1  0.73325906  0.16208833  0.54178334  1  -1.138639  0  -0.353602  -0.427551  0  2.383902  0
O  O135  1  0.24834925  0.82979919  0.55798508  1  -1.115902  0  -0.349581  -0.419477  0  2.298454  0
O  O136  1  0.50712999  0.56508908  0.40059032  1  -1.164966  0  -0.314255  -0.555584  0  2.374597  0
O  O137  1  0.60367337  0.45334218  0.40553317  1  -1.16517  0  -0.308281  -0.545287  0  2.390782  0
O  O138  1  0.53975366  0.56024174  0.60479501  1  -1.156856  0  -0.307692  -0.534445  0  2.327547  0
O  O139  1  0.73436960  0.44234811  0.53438107  1  -1.16106  0  -0.297945  -0.550917  0  2.360007  0
O  O140  1  0.30242715  0.55630597  0.50904835  1  -1.16266  0  -0.279187  -0.52923  0  2.372713  0
O  O141  1  0.30785216  0.44504449  0.45871789  1  -1.170299  0  -0.291062  -0.53677  0  2.339159  0
O  O142  1  0.75149197  0.56000440  0.49966392  1  -1.123489  0  -0.288551  -0.50127  0  2.270933  0
O  O143  1  0.29033894  0.30823824  0.42521887  1  -1.191899  0  -0.362822  -0.503489  0  2.33543  0
