# generated using pymatgen
data_CuMoH4C5NO4
_symmetry_space_group_name_H-M   'P 1'
_cell_length_a   7.51979330
_cell_length_b   9.23190785
_cell_length_c   13.58064003
_cell_angle_alpha   71.34231288
_cell_angle_beta   86.30846229
_cell_angle_gamma   71.73224309
_symmetry_Int_Tables_number   1
_chemical_formula_structural   CuMoH4C5NO4
_chemical_formula_sum   'Cu4 Mo4 H16 C20 N4 O16'
_cell_volume   847.55551354
_cell_formula_units_Z   4
loop_
 _symmetry_equiv_pos_site_id
 _symmetry_equiv_pos_as_xyz
  1  'x, y, z'
loop_
 _atom_site_type_symbol
 _atom_site_label
 _atom_site_symmetry_multiplicity
 _atom_site_fract_x
 _atom_site_fract_y
 _atom_site_fract_z
 _atom_site_occupancy
 _atom_site_hle17_ddec_charge
 _atom_site_hle17_ddec_spin_density
 _atom_site_hle17_ddec_sum_bond_order
 _atom_site_hle17_magmom
 _atom_site_hse06_10hf_ddec_charge
 _atom_site_hse06_10hf_ddec_spin_density
 _atom_site_hse06_10hf_ddec_sum_bond_order
 _atom_site_hse06_10hf_magmom
 _atom_site_hse06_ddec_charge
 _atom_site_hse06_ddec_spin_density
 _atom_site_hse06_ddec_sum_bond_order
 _atom_site_hse06_magmom
 _atom_site_pbe_cm5_charge
 _atom_site_pbe_ddec_charge
 _atom_site_pbe_ddec_spin_density
 _atom_site_pbe_ddec_sum_bond_order
 _atom_site_pbe_magmom
Cu  Cu0  1  0.87796372  0.93913867  0.10177722  1  1.050687  -0.66578  1.860362  -0.485  1.08292  -0.782138  2.23903  -0.629  1.168859  -0.872297  2.166958  -0.729  0.709575  1.024917  -0.674262  2.296384  -0.529
Cu  Cu1  1  0.12203291  0.06085721  0.89821775  1  1.050666  0.665788  1.860474  0.485  1.082888  0.782146  2.239137  0.629  1.168812  0.872299  2.167084  0.729  0.709578  1.024902  0.67428  2.296443  0.529
Cu  Cu2  1  0.69220164  0.66847766  0.06565883  1  1.105354  0.714374  1.798135  0.522  1.133855  0.808219  2.178659  0.652  1.207851  0.888332  2.1212  0.744  0.736757  1.081917  0.720424  2.227226  0.567
Cu  Cu3  1  0.30780469  0.33151695  0.93433838  1  1.105273  -0.714388  1.798198  -0.522  1.133754  -0.808218  2.178711  -0.652  1.207737  -0.888342  2.121264  -0.744  0.736787  1.081807  -0.720431  2.227292  -0.567
Mo  Mo4  1  0.20600204  0.68503008  0.00936252  1  2.18185  0.00109  4.15085  -0.002  2.198706  -0.009677  4.728546  -0.016  2.312258  -0.008082  4.684528  -0.014  1.489989  2.116797  -0.010487  4.759904  -0.017
Mo  Mo5  1  0.79400010  0.31496098  0.99063850  1  2.181767  -0.001061  4.150883  0.002  2.198593  0.009674  4.728599  0.016  2.312152  0.008108  4.684572  0.014  1.489981  2.116683  0.010494  4.75996  0.017
Mo  Mo6  1  0.36011055  0.99570461  0.11912416  1  2.177194  0.008862  4.1579  0.01  2.181756  0.011808  4.746496  0.015  2.296256  0.008804  4.700924  0.012  1.474207  2.10129  0.014188  4.775456  0.018
Mo  Mo7  1  0.63989170  0.00428643  0.88087392  1  2.177163  -0.008853  4.158091  -0.01  2.181707  -0.011824  4.746742  -0.015  2.296206  -0.008797  4.701166  -0.012  1.474181  2.101238  -0.014187  4.775714  -0.018
H  H8  1  0.47118017  0.32162459  0.73379129  1  0.089668  -0.000919  0.973142  -0.002  0.094664  -0.000823  1.042806  -0.001  0.096527  -0.00058  1.04029  -0.001  0.115531  0.092863  -0.000993  1.04498  -0.002
H  H9  1  0.52885122  0.67838901  0.26620859  1  0.089607  0.00092  0.973265  0.002  0.094526  0.000824  1.042981  0.001  0.096455  0.00058  1.040394  0.001  0.11549  0.09274  0.000993  1.045146  0.002
H  H10  1  0.38485233  0.46285654  0.54866526  1  0.099554  -0.000528  0.967952  -0.001  0.11066  -0.000446  1.027246  0.0  0.113477  -0.000308  1.026571  0.0  0.10646  0.10859  -0.000547  1.027998  -0.001
H  H11  1  0.61516602  0.53718596  0.45133537  1  0.099481  0.000529  0.967906  0.001  0.110621  0.000446  1.027192  0.0  0.11345  0.000308  1.026517  0.0  0.10646  0.108548  0.000547  1.027948  0.001
H  H12  1  0.88898087  0.77635387  0.64181534  1  0.117334  -0.000514  0.937229  0.0  0.130354  -0.000456  0.989541  0.0  0.133499  -0.000322  0.988826  0.0  0.115737  0.127965  -0.000551  0.990423  -0.001
H  H13  1  0.11099890  0.22363258  0.35818722  1  0.117319  0.000515  0.937138  0.0  0.13036  0.000456  0.989424  0.0  0.133505  0.000322  0.988707  0.0  0.115719  0.127944  0.000552  0.990338  0.001
H  H14  1  0.99761924  0.61971231  0.82447292  1  0.109641  -0.000892  0.927788  -0.002  0.116961  -0.000714  0.98872  -0.001  0.119477  -0.000498  0.985538  -0.001  0.131587  0.114725  -0.000873  0.991385  -0.002
H  H15  1  0.00237076  0.38026805  0.17552775  1  0.109586  0.00089  0.927807  0.002  0.11691  0.000714  0.988743  0.001  0.119426  0.000498  0.985559  0.001  0.131552  0.114673  0.000873  0.991406  0.002
H  H16  1  0.76937661  0.04279298  0.29024257  1  0.104576  -0.000676  0.919336  -0.001  0.116768  -0.00065  0.971811  -0.001  0.119465  -0.000475  0.969074  -0.001  0.126995  0.114408  -0.000755  0.974151  -0.001
H  H17  1  0.23059555  0.95720431  0.70975269  1  0.104548  0.000676  0.919409  0.001  0.116773  0.000651  0.971844  0.001  0.119469  0.000476  0.969103  0.001  0.127019  0.114413  0.000756  0.974186  0.001
H  H18  1  0.86435568  0.93181799  0.47943718  1  0.105507  -0.000485  0.948557  0.0  0.117957  -0.000461  1.003503  0.0  0.120797  -0.000335  1.003334  0.0  0.110712  0.115874  -0.000536  1.003885  0.0
H  H19  1  0.13562332  0.06818283  0.52055495  1  0.105569  0.000485  0.948368  0.0  0.117942  0.000461  1.003407  0.0  0.120782  0.000335  1.003239  0.0  0.110727  0.115864  0.000536  1.003779  0.0
H  H20  1  0.13862764  0.64477562  0.23084176  1  0.089462  -0.000448  0.972822  -0.001  0.097045  -0.000479  1.037237  -0.001  0.099064  -0.000342  1.035308  -0.001  0.1192  0.095208  -0.000552  1.038893  -0.001
H  H21  1  0.86136823  0.35522510  0.76916323  1  0.089511  0.000446  0.972801  0.001  0.097087  0.000479  1.037226  0.001  0.09911  0.000342  1.03529  0.001  0.119238  0.095199  0.000553  1.038937  0.001
H  H22  1  0.24456056  0.51359887  0.41498645  1  0.100725  -0.000453  0.950192  0.0  0.114048  -0.000418  1.00442  0.0  0.116732  -0.000296  1.004418  0.0  0.109516  0.112067  -0.000495  1.004703  0.0
H  H23  1  0.75545013  0.48640892  0.58501740  1  0.10067  0.000454  0.950361  0.0  0.114054  0.000418  1.004529  0.0  0.116741  0.000296  1.004524  0.0  0.10952  0.112063  0.000496  1.004813  0.0
C  C24  1  0.34377850  0.42345265  0.71018067  1  0.148132  0.005442  3.67663  0.006  0.121367  0.000865  3.924208  0.002  0.130968  0.001893  3.941695  0.003  0.053144  0.115131  5.4e-05  3.912762  0.001
C  C25  1  0.65625073  0.57656336  0.28981801  1  0.148021  -0.005431  3.677032  -0.006  0.121378  -0.000866  3.924651  -0.002  0.130936  -0.001891  3.942104  -0.003  0.053091  0.115131  -5.4e-05  3.913217  -0.001
C  C26  1  0.29309080  0.50414232  0.60596928  1  -0.166808  -0.007392  3.718014  -0.008  -0.184368  -0.003339  3.963125  -0.004  -0.193099  -0.003015  3.984621  -0.004  -0.085093  -0.178684  -0.003543  3.948813  -0.004
C  C27  1  0.70692528  0.49588819  0.39402883  1  -0.166531  0.007379  3.717866  0.008  -0.18416  0.003339  3.962946  0.004  -0.192909  0.003012  3.984477  0.004  -0.084961  -0.178475  0.003542  3.948632  0.004
C  C28  1  0.12613642  0.63291303  0.57650952  1  0.087369  0.006027  3.779099  0.006  0.09625  0.002365  4.016172  0.002  0.100655  0.002466  4.038048  0.003  0.009334  0.093297  0.002261  4.001407  0.002
C  C29  1  0.87386289  0.36710084  0.42349110  1  0.087204  -0.006015  3.778891  -0.006  0.096135  -0.002366  4.015938  -0.002  0.100532  -0.002464  4.037827  -0.003  0.009286  0.09318  -0.002262  4.001162  -0.002
C  C30  1  0.02002992  0.67759363  0.65708346  1  -0.159981  -0.007744  3.688299  -0.008  -0.178163  -0.003475  3.933308  -0.004  -0.187188  -0.003116  3.954571  -0.004  -0.076612  -0.172431  -0.003691  3.919568  -0.004
C  C31  1  0.97995846  0.32239874  0.34291689  1  -0.159944  0.007719  3.688261  0.008  -0.178149  0.003476  3.933227  0.004  -0.187172  0.003112  3.954488  0.004  -0.076645  -0.172399  0.003691  3.919493  0.004
C  C32  1  0.07879164  0.59059997  0.76013054  1  0.152765  0.005513  3.641232  0.006  0.126134  0.000815  3.891495  0.001  0.136653  0.001781  3.907075  0.003  0.063401  0.118982  7.8e-05  3.8817  0.001
C  C33  1  0.92121280  0.40939226  0.23986870  1  0.152779  -0.005487  3.641349  -0.006  0.126167  -0.000816  3.89165  -0.001  0.136698  -0.001776  3.907218  -0.003  0.063456  0.119021  -7.8e-05  3.881842  -0.001
C  C34  1  0.87338899  0.92531190  0.32280660  1  0.144987  0.00416  3.666501  0.005  0.117069  0.000433  3.919752  0.001  0.126974  0.001365  3.936456  0.002  0.058514  0.110548  -0.000268  3.909058  0.0
C  C35  1  0.12659114  0.07469253  0.67719209  1  0.145117  -0.004134  3.66662  -0.004  0.117173  -0.000434  3.919818  -0.001  0.12708  -0.001366  3.936522  -0.002  0.058535  0.110655  0.000268  3.909138  0.0
C  C36  1  0.92811765  0.86189100  0.42789582  1  -0.161363  -0.006198  3.701236  -0.007  -0.179082  -0.003119  3.945882  -0.004  -0.187543  -0.002863  3.966301  -0.004  -0.080563  -0.173713  -0.003105  3.932526  -0.004
C  C37  1  0.07187422  0.13809895  0.57210569  1  -0.161517  0.006164  3.701129  0.007  -0.1792  0.00312  3.945803  0.004  -0.187664  0.002863  3.966219  0.004  -0.080646  -0.17383  0.003105  3.932446  0.004
C  C38  1  0.08048411  0.70303366  0.28895880  1  0.152076  0.005077  3.673882  0.005  0.123057  0.001158  3.929304  0.002  0.132771  0.001956  3.946996  0.003  0.05331  0.116622  0.000528  3.918008  0.001
C  C39  1  0.91952233  0.29697057  0.71105033  1  0.152069  -0.005045  3.673767  -0.005  0.122976  -0.00116  3.929241  -0.002  0.132686  -0.001954  3.946935  -0.003  0.053221  0.116585  -0.000529  3.91798  -0.001
C  C40  1  0.14027369  0.63207843  0.39249480  1  -0.146833  -0.005854  3.696931  -0.006  -0.164874  -0.002906  3.943001  -0.004  -0.17338  -0.002704  3.963636  -0.003  -0.078325  -0.159442  -0.002856  3.929519  -0.004
C  C41  1  0.85972464  0.36792229  0.60751603  1  -0.14671  0.005809  3.69696  0.006  -0.164785  0.002909  3.943012  0.004  -0.173299  0.0027  3.963651  0.003  -0.07828  -0.159334  0.002856  3.929504  0.004
C  C42  1  0.06453959  0.71066409  0.46561579  1  0.093371  0.004751  3.757688  0.004  0.103776  0.002124  3.991731  0.002  0.109293  0.002221  4.011605  0.002  0.010703  0.099979  0.001928  3.978463  0.002
C  C43  1  0.93546978  0.28934730  0.53438879  1  0.093448  -0.004713  3.757298  -0.004  0.103867  -0.002125  3.991292  -0.002  0.109398  -0.00222  4.011148  -0.002  0.010795  0.100074  -0.001929  3.978023  -0.002
N  N44  1  0.94714142  0.84640248  0.25446792  1  -0.287917  -0.065569  3.283933  -0.083  -0.244151  -0.048982  3.576265  -0.066  -0.273629  -0.040913  3.59448  -0.058  -0.334962  -0.226379  -0.050274  3.566036  -0.065
N  N45  1  0.05283228  0.15359361  0.74553345  1  -0.288094  0.065552  3.283958  0.083  -0.244228  0.048983  3.576191  0.066  -0.273699  0.040913  3.594396  0.058  -0.334994  -0.226468  0.050271  3.565967  0.065
N  N46  1  0.23675012  0.46462254  0.78591497  1  -0.270727  -0.075912  3.276951  -0.095  -0.221969  -0.052865  3.553402  -0.071  -0.250737  -0.042663  3.571703  -0.06  -0.331976  -0.204166  -0.057005  3.542395  -0.074
N  N47  1  0.76325734  0.53536848  0.21408666  1  -0.270649  0.075898  3.277226  0.095  -0.222002  0.052865  3.55374  0.071  -0.250788  0.04266  3.572078  0.06  -0.331985  -0.204211  0.057006  3.542738  0.074
O  O48  1  0.59339402  0.87453141  0.09819391  1  -0.979146  0.058304  1.846115  0.074  -0.995859  0.035725  2.207871  0.047  -1.047918  0.027655  2.190194  0.037  -0.590106  -0.957984  0.039485  2.218927  0.05
O  O49  1  0.40661009  0.12546202  0.90180288  1  -0.979079  -0.058305  1.84607  -0.074  -0.995813  -0.035729  2.207871  -0.047  -1.04787  -0.027656  2.190194  -0.037  -0.590084  -0.957922  -0.039487  2.218896  -0.05
O  O50  1  0.40154016  0.62203261  0.09363137  1  -0.832624  -0.017169  1.521546  -0.02  -0.845239  -0.00852  1.806946  -0.011  -0.880186  -0.005904  1.790132  -0.007  -0.566244  -0.819058  -0.010522  1.817811  -0.013
O  O51  1  0.59846066  0.37796206  0.90637038  1  -0.832571  0.017184  1.521563  0.02  -0.845172  0.00852  1.806966  0.011  -0.880117  0.0059  1.790143  0.007  -0.566222  -0.818989  0.010521  1.817827  0.013
O  O52  1  0.32379348  0.93236313  0.25113819  1  -0.756792  -0.001985  1.36116  -0.003  -0.751292  -0.00019  1.590417  0.0  -0.780182  -0.000325  1.577768  0.0  -0.568159  -0.730322  -6.4e-05  1.598498  0.0
O  O53  1  0.67621673  0.06762786  0.74886118  1  -0.756728  0.001962  1.361287  0.002  -0.751232  0.000197  1.590564  0.0  -0.780112  0.000318  1.5779  0.0  -0.568106  -0.730261  6.3e-05  1.59865  0.0
O  O54  1  0.65976802  0.79599554  0.91767565  1  -0.813002  0.065887  1.607146  0.085  -0.823467  0.034376  1.911827  0.047  -0.868858  0.025767  1.89498  0.036  -0.567673  -0.79102  0.039213  1.922571  0.052
O  O55  1  0.34024014  0.20399064  0.08231743  1  -0.812916  -0.065872  1.607141  -0.085  -0.823363  -0.034366  1.911797  -0.047  -0.868759  -0.025761  1.894963  -0.036  -0.567644  -0.790915  -0.039208  1.922537  -0.052
O  O56  1  0.18289989  0.96280098  0.05160160  1  -0.957541  0.071095  1.885609  0.09  -0.971823  0.043015  2.237637  0.058  -1.03055  0.032967  2.228733  0.046  -0.58248  -0.930123  0.047646  2.242461  0.062
O  O57  1  0.81710222  0.03719845  0.94839099  1  -0.957522  -0.071083  1.885606  -0.09  -0.971774  -0.043015  2.237572  -0.058  -1.030527  -0.032967  2.228723  -0.046  -0.582474  -0.930071  -0.047649  2.242396  -0.062
O  O58  1  0.99354217  0.73140394  0.07976892  1  -0.899529  -0.065114  1.795671  -0.082  -0.919551  -0.039589  2.143291  -0.052  -0.97032  -0.030766  2.126475  -0.042  -0.580413  -0.881881  -0.042802  2.154  -0.055
O  O59  1  0.00645111  0.26858959  0.92023179  1  -0.899478  0.065102  1.795804  0.082  -0.919501  0.039586  2.143438  0.052  -0.97027  0.030756  2.126625  0.042  -0.580419  -0.881831  0.042795  2.154136  0.055
O  O60  1  0.21610241  0.84334145  0.89098789  1  -0.855643  0.069813  1.622831  0.089  -0.87359  0.040022  1.938671  0.054  -0.92318  0.030871  1.921681  0.043  -0.580774  -0.83776  0.043059  1.950275  0.056
O  O61  1  0.78389972  0.15665321  0.10901457  1  -0.855696  -0.069841  1.622783  -0.089  -0.873619  -0.040019  1.938612  -0.054  -0.923213  -0.030871  1.921618  -0.043  -0.580809  -0.837795  -0.043064  1.950235  -0.056
O  O62  1  0.19513261  0.52099843  0.97266038  1  -0.822355  -0.06246  1.762194  -0.084  -0.829937  -0.039155  2.093401  -0.056  -0.874809  -0.030184  2.074044  -0.045  -0.571354  -0.798245  -0.043618  2.106853  -0.061
O  O63  1  0.80487092  0.47899262  0.02733914  1  -0.822354  0.062448  1.762245  0.084  -0.829894  0.039153  2.093417  0.056  -0.874773  0.030175  2.07406  0.045  -0.571308  -0.798192  0.043615  2.106847  0.061
