# generated using pymatgen
data_CuH17C17(NO2)2
_symmetry_space_group_name_H-M   'P 1'
_cell_length_a   7.34903487
_cell_length_b   13.85348880
_cell_length_c   19.43704603
_cell_angle_alpha   86.86877063
_cell_angle_beta   77.96687277
_cell_angle_gamma   74.62409194
_symmetry_Int_Tables_number   1
_chemical_formula_structural   CuH17C17(NO2)2
_chemical_formula_sum   'Cu4 H68 C68 N8 O16'
_cell_volume   1866.12547311
_cell_formula_units_Z   4
loop_
 _symmetry_equiv_pos_site_id
 _symmetry_equiv_pos_as_xyz
  1  'x, y, z'
loop_
 _atom_site_type_symbol
 _atom_site_label
 _atom_site_symmetry_multiplicity
 _atom_site_fract_x
 _atom_site_fract_y
 _atom_site_fract_z
 _atom_site_occupancy
 _atom_site_pbe_bader_charge
 _atom_site_pbe_bader_spin_density
 _atom_site_pbe_cm5_charge
 _atom_site_pbe_ddec_charge
 _atom_site_pbe_ddec_spin_density
 _atom_site_pbe_ddec_sum_bond_order
 _atom_site_pbe_magmom
Cu  Cu0  1  0.05671107  0.77070920  0.19151455  1  1.061627  -0.542123  0.673309  0.744359  -0.697525  2.389364  -0.54
Cu  Cu1  1  0.17341662  0.77057010  0.30858331  1  1.058741  0.542149  0.67343  0.742137  0.697334  2.39244  0.54
Cu  Cu2  1  0.94331292  0.22928062  0.80848655  1  1.061327  -0.542137  0.673232  0.744268  -0.697559  2.389483  -0.54
Cu  Cu3  1  0.82662298  0.22942197  0.69141554  1  1.058494  0.542153  0.673344  0.742063  0.697358  2.392403  0.54
H  H4  1  0.66620594  0.79180538  0.16379723  1  0.114948  2.2e-05  0.118324  0.094862  3.2e-05  1.001891  0.0
H  H5  1  0.54321095  0.79086904  0.33615185  1  0.110485  -2e-05  0.119708  0.096568  -3.1e-05  1.000768  0.0
H  H6  1  0.33377905  0.20820166  0.83620095  1  0.114951  2.2e-05  0.118332  0.094885  3.2e-05  1.001812  0.0
H  H7  1  0.45681076  0.20912003  0.66384636  1  0.110409  -2.1e-05  0.119719  0.096557  -3.1e-05  1.000765  0.0
H  H8  1  0.49028219  0.79384978  0.06594315  1  0.147534  -4e-06  0.110736  0.124676  -1.6e-05  1.027255  0.0
H  H9  1  0.71620342  0.79324544  0.43423112  1  0.110681  4e-06  0.110621  0.123957  1.6e-05  1.027963  0.0
H  H10  1  0.50971140  0.20616250  0.93405216  1  0.147492  -4e-06  0.110735  0.124628  -1.6e-05  1.02719  0.0
H  H11  1  0.28381828  0.20673240  0.56576904  1  0.110433  4e-06  0.110702  0.123999  1.6e-05  1.027897  0.0
H  H12  1  0.04416448  0.73078635  0.92304382  1  0.095566  1.1e-05  0.102299  0.104522  5e-06  1.049714  0.0
H  H13  1  0.22443170  0.73077664  0.57684288  1  0.092344  -1.3e-05  0.101801  0.105144  -6e-06  1.048734  0.0
H  H14  1  0.95583292  0.26922368  0.07695335  1  0.095786  1.1e-05  0.102279  0.104442  5e-06  1.049625  0.0
H  H15  1  0.77558069  0.26922291  0.42315357  1  0.092257  -1.3e-05  0.101811  0.105066  -6e-06  1.048722  0.0
H  H16  1  0.19527936  0.73457316  0.02675788  1  0.149308  3.2e-05  0.116923  0.088295  2.9e-05  1.005677  0.0
H  H17  1  0.07028335  0.73454040  0.47290863  1  0.114849  -3.4e-05  0.117106  0.08875  -3e-05  1.006626  0.0
H  H18  1  0.80472576  0.26542415  0.97324021  1  0.149323  3.2e-05  0.116942  0.088276  2.9e-05  1.005691  0.0
H  H19  1  0.92971244  0.26546439  0.52709038  1  0.114829  -3.4e-05  0.117069  0.088731  -3e-05  1.006648  0.0
H  H20  1  0.75672130  0.74690427  0.87420561  1  0.099449  -0.0  0.107317  0.065411  -3e-06  1.000867  0.0
H  H21  1  0.49556627  0.74726504  0.62586099  1  0.074438  2e-06  0.1073  0.065487  5e-06  1.000386  0.0
H  H22  1  0.24327682  0.25310202  0.12578598  1  0.079338  0.0  0.107383  0.065412  -3e-06  1.00094  0.0
H  H23  1  0.50444209  0.25271205  0.37413554  1  0.074393  2e-06  0.107362  0.065626  5e-06  1.000592  0.0
H  H24  1  0.54135647  0.64662487  0.84067798  1  0.070582  -0.0  0.103769  0.111565  0.0  0.998556  0.0
H  H25  1  0.81076522  0.64705974  0.65933769  1  0.070487  1e-06  0.10438  0.11256  0.0  0.99779  0.0
H  H26  1  0.45863129  0.35337918  0.15932320  1  0.070348  -0.0  0.103795  0.11154  0.0  0.998568  0.0
H  H27  1  0.18925739  0.35293009  0.34066351  1  0.070898  1e-06  0.104362  0.112494  0.0  0.997464  0.0
H  H28  1  0.34679838  0.64655452  0.75002158  1  0.042227  -5e-06  0.098502  0.098965  4e-06  1.018468  0.0
H  H29  1  0.00603865  0.64687610  0.74983942  1  0.049979  -7e-06  0.098017  0.098644  -1.1e-05  1.01968  0.0
H  H30  1  0.65316325  0.35344579  0.24998576  1  0.042362  -5e-06  0.098527  0.099014  4e-06  1.018469  0.0
H  H31  1  0.99398495  0.35312046  0.25015683  1  0.050097  -7e-06  0.097973  0.098556  -1.1e-05  1.019618  0.0
H  H32  1  0.04254994  0.01974269  0.91297028  1  0.08572  -9e-06  0.092214  0.139429  -1.5e-05  1.0172  0.0
H  H33  1  0.93788012  0.01982035  0.58700233  1  0.080996  1e-05  0.092668  0.140283  1.6e-05  1.018019  0.0
H  H34  1  0.95745012  0.98026135  0.08703514  1  0.085782  -9e-06  0.092205  0.139433  -1.5e-05  1.017214  0.0
H  H35  1  0.06210197  0.98017247  0.41300328  1  0.080798  1e-05  0.092685  0.140408  1.6e-05  1.01796  0.0
H  H36  1  0.28788446  0.00560671  0.91598076  1  0.033199  2.1e-05  0.089469  0.126284  2.8e-05  1.031975  0.0
H  H37  1  0.70673053  0.00566982  0.58388376  1  0.04052  -3.1e-05  0.089537  0.127298  -3.3e-05  1.03098  0.0
H  H38  1  0.71210115  0.99439584  0.08402320  1  0.033079  2.1e-05  0.089442  0.126257  2.8e-05  1.031928  0.0
H  H39  1  0.29325527  0.99432674  0.41612092  1  0.040553  -3.1e-05  0.089498  0.127279  -3.3e-05  1.030957  0.0
H  H40  1  0.15432750  0.93864739  0.97621706  1  0.078694  -8e-06  0.093552  0.130905  -8e-06  1.022251  0.0
H  H41  1  0.90741221  0.93863324  0.52366559  1  0.0355  5e-06  0.092767  0.13036  7e-06  1.022924  0.0
H  H42  1  0.84565358  0.06136190  0.02378133  1  0.078622  -8e-06  0.093559  0.13093  -8e-06  1.022093  0.0
H  H43  1  0.09257040  0.06136407  0.47634033  1  0.035359  5e-06  0.092778  0.130366  7e-06  1.022929  0.0
H  H44  1  0.00881499  0.94410603  0.81464509  1  0.090573  3.9e-05  0.101362  0.114426  1.3e-05  1.039073  0.0
H  H45  1  0.04798458  0.94402512  0.68508590  1  0.094894  -4.6e-05  0.101405  0.113299  -1.7e-05  1.039763  0.0
H  H46  1  0.99117360  0.05590475  0.18535475  1  0.090716  3.9e-05  0.101401  0.114529  1.3e-05  1.039053  0.0
H  H47  1  0.95198704  0.05597744  0.31492115  1  0.095003  -4.6e-05  0.101455  0.113368  -1.7e-05  1.039825  0.0
H  H48  1  0.68487910  0.58430405  0.32113907  1  0.08192  0.001831  0.10005  0.164234  0.000985  1.007416  0.001
H  H49  1  0.73214224  0.58458036  0.17820587  1  0.076775  -0.001825  0.100241  0.16565  -0.000984  1.008067  -0.001
H  H50  1  0.31515353  0.41569101  0.67885811  1  0.081763  0.001832  0.100021  0.164165  0.000985  1.007429  0.001
H  H51  1  0.26788763  0.41541095  0.82176902  1  0.077435  -0.001826  0.100157  0.165521  -0.000985  1.008098  -0.001
H  H52  1  0.81280566  0.55970840  0.39265917  1  0.035795  -0.002254  0.096624  0.152943  -0.001078  0.987737  -0.001
H  H53  1  0.62812895  0.56023024  0.10678709  1  0.027594  0.002242  0.09635  0.153598  0.001069  0.987461  0.001
H  H54  1  0.18720651  0.44028816  0.60734512  1  0.035792  -0.002254  0.096597  0.152881  -0.001078  0.987753  -0.001
H  H55  1  0.37185731  0.43978952  0.89319407  1  0.028005  0.002243  0.096359  0.153457  0.001069  0.987504  0.001
H  H56  1  0.90437058  0.48930269  0.31304883  1  0.058118  0.000563  0.095063  0.145878  0.000277  1.026041  0.0
H  H57  1  0.60722639  0.48976586  0.18631059  1  0.051345  -0.000598  0.094994  0.146549  -0.000292  1.02529  0.0
H  H58  1  0.09565492  0.51068938  0.68695567  1  0.05812  0.000562  0.095068  0.145858  0.000276  1.026124  0.0
H  H59  1  0.39278319  0.51023818  0.81366583  1  0.050851  -0.000596  0.09496  0.146504  -0.000291  1.025297  0.0
H  H60  1  0.63637447  0.05942620  0.29163144  1  0.077438  0.000714  0.098138  0.153836  0.000353  1.011731  0.0
H  H61  1  0.30330371  0.05988784  0.20919166  1  0.076373  -0.00071  0.098137  0.154098  -0.000354  1.011763  0.0
H  H62  1  0.36363089  0.94057036  0.70836974  1  0.077353  0.000715  0.098084  0.153785  0.000354  1.011747  0.0
H  H63  1  0.69668573  0.94011397  0.79082954  1  0.076343  -0.000711  0.098169  0.154119  -0.000354  1.011812  0.0
H  H64  1  0.61428581  0.00872628  0.37892992  1  0.048536  -0.002303  0.09735  0.155004  -0.00108  0.989077  -0.001
H  H65  1  0.37595985  0.00935570  0.12182933  1  0.056068  0.002287  0.09773  0.156069  0.001074  0.988284  0.001
H  H66  1  0.38571303  0.99127777  0.62107148  1  0.048378  -0.002302  0.09738  0.15508  -0.001079  0.989037  -0.001
H  H67  1  0.62403155  0.99066782  0.87818374  1  0.055794  0.002287  0.097752  0.156063  0.001074  0.988246  0.001
H  H68  1  0.50005784  0.97075534  0.31530950  1  0.085968  0.001284  0.101555  0.161086  0.000724  1.024399  0.001
H  H69  1  0.52869455  0.97164636  0.18522977  1  0.101331  -0.001294  0.10144  0.161631  -0.000733  1.023818  -0.001
H  H70  1  0.49993922  0.02923523  0.68469663  1  0.085826  0.001283  0.101616  0.1611  0.000723  1.024449  0.001
H  H71  1  0.47127689  0.02836443  0.81478265  1  0.101115  -0.001293  0.101346  0.161541  -0.000733  1.023958  -0.001
C  C72  1  0.74337930  0.77947114  0.10935552  1  0.495217  0.0006  0.04794  0.09817  0.000396  3.935407  0.0
C  C73  1  0.47801478  0.77882170  0.39058537  1  0.445449  -0.00062  0.047548  0.098649  -0.000406  3.935259  0.0
C  C74  1  0.25661256  0.22053590  0.89064422  1  0.495354  0.000601  0.047974  0.098154  0.000396  3.935151  0.0
C  C75  1  0.52200065  0.22116587  0.60941541  1  0.445471  -0.000619  0.047474  0.098532  -0.000406  3.935549  0.0
C  C76  1  0.64651499  0.78024486  0.05517815  1  -0.063165  -0.000282  -0.074942  -0.153583  -0.000202  3.900538  0.0
C  C77  1  0.57357872  0.77970402  0.44488211  1  0.026716  0.000291  -0.075866  -0.152901  0.000208  3.901843  0.0
C  C78  1  0.35347395  0.21977640  0.94482077  1  -0.063717  -0.000282  -0.075052  -0.153614  -0.000202  3.90058  0.0
C  C79  1  0.42645249  0.22027457  0.55511372  1  0.027251  0.000291  -0.075862  -0.152777  0.000208  3.902122  0.0
C  C80  1  0.75419595  0.76305587  0.98621052  1  0.042168  0.000689  0.002563  0.093891  0.000444  4.023047  0.0
C  C81  1  0.48249503  0.76284884  0.51380677  1  -0.046637  -0.000708  0.001859  0.091702  -0.000455  4.0243  0.0
C  C82  1  0.24580644  0.23695566  0.01378211  1  0.042962  0.000689  0.002542  0.093907  0.000444  4.023254  0.0
C  C83  1  0.51752047  0.23714098  0.48619856  1  -0.047154  -0.000707  0.001778  0.091658  -0.000454  4.024441  0.0
C  C84  1  0.95501349  0.74449774  0.97566975  1  -0.078129  -0.000297  -0.0811  -0.16659  -0.000195  3.931674  0.0
C  C85  1  0.30024319  0.74429929  0.52423181  1  -0.052215  0.000308  -0.080936  -0.168805  0.000202  3.932606  0.0
C  C86  1  0.04499399  0.25550331  0.02432649  1  -0.078126  -0.000298  -0.081025  -0.166481  -0.000195  3.931536  0.0
C  C87  1  0.69975299  0.25569652  0.47576596  1  -0.052166  0.000307  -0.080909  -0.168569  0.000201  3.932585  0.0
C  C88  1  0.03969665  0.74649744  0.03324360  1  0.465521  0.000721  0.05085  0.104936  0.00046  3.93154  0.0
C  C89  1  0.21392601  0.74629555  0.46658000  1  0.514359  -0.000737  0.051155  0.106396  -0.000471  3.934271  0.0
C  C90  1  0.96029879  0.25350810  0.96675490  1  0.465462  0.000721  0.050925  0.105053  0.00046  3.931531  0.0
C  C91  1  0.78608572  0.25369427  0.53341583  1  0.514811  -0.000736  0.05125  0.106437  -0.000471  3.934217  0.0
C  C92  1  0.66082182  0.76641176  0.92617136  1  0.577074  -4.5e-05  0.084957  0.081856  -1.3e-05  3.937215  0.0
C  C93  1  0.57208801  0.76661399  0.57387510  1  0.669562  3.5e-05  0.084985  0.082569  5e-06  3.937722  0.0
C  C94  1  0.33916614  0.23360052  0.07382590  1  0.596582  -4.5e-05  0.084913  0.081922  -1.3e-05  3.936806  0.0
C  C95  1  0.42793832  0.23336909  0.42611732  1  0.670253  3.5e-05  0.084969  0.08243  5e-06  3.93692  0.0
C  C96  1  0.38351412  0.79520048  0.87848623  1  0.355809  -7.8e-05  0.088749  0.138989  -5e-05  4.056537  0.0
C  C97  1  0.82095357  0.79544921  0.62144402  1  0.359744  6.4e-05  0.088794  0.137946  4.1e-05  4.055331  0.0
C  C98  1  0.61647554  0.20479458  0.12151050  1  0.355804  -7.9e-05  0.088812  0.139075  -5e-05  4.056518  0.0
C  C99  1  0.17904385  0.20454660  0.37855727  1  0.359904  6.4e-05  0.088769  0.137854  4.1e-05  4.05601  0.0
C  C100  1  0.42583359  0.71230438  0.83372970  1  -0.073831  1.3e-05  -0.097319  -0.17322  6e-06  4.022509  0.0
C  C101  1  0.86134894  0.71255315  0.66615877  1  -0.080154  -1.2e-05  -0.098448  -0.173715  -6e-06  4.0212  0.0
C  C102  1  0.57412948  0.28769892  0.16627383  1  -0.073214  1.3e-05  -0.097297  -0.173111  6e-06  4.021651  0.0
C  C103  1  0.13862692  0.28743518  0.33385054  1  -0.080278  -1.2e-05  -0.09836  -0.17338  -6e-06  4.021104  0.0
C  C104  1  0.31472009  0.71174583  0.78386735  1  -0.01905  -2.8e-05  -0.103143  -0.152913  -2e-05  4.05415  0.0
C  C105  1  0.97314728  0.71194904  0.71596695  1  -0.030336  7.1e-05  -0.102832  -0.153257  5e-05  4.055579  0.0
C  C106  1  0.68525195  0.28825597  0.21613866  1  -0.018946  -2.8e-05  -0.103271  -0.153174  -2e-05  4.053978  0.0
C  C107  1  0.02684550  0.28804752  0.28403670  1  -0.030359  7.1e-05  -0.102823  -0.153329  5e-05  4.055707  0.0
C  C108  1  0.22954009  0.87960198  0.87181522  1  -1.7e-05  2e-06  -0.001366  0.117185  -1e-05  3.938254  0.0
C  C109  1  0.89101701  0.87976025  0.62802905  1  0.011681  5.6e-05  -0.000741  0.116272  5e-05  3.942727  0.0
C  C110  1  0.77045993  0.12040281  0.12818194  1  -9.4e-05  2e-06  -0.001312  0.117327  -1e-05  3.938354  0.0
C  C111  1  0.10898304  0.12023257  0.37197832  1  0.011994  5.6e-05  -0.000678  0.116306  5e-05  3.942242  0.0
C  C112  1  0.17477306  0.96587302  0.92170222  1  -0.084868  -1.8e-05  -0.244104  -0.415372  -1.5e-05  3.951211  0.0
C  C113  1  0.85957546  0.96596369  0.57817705  1  -0.043326  7e-06  -0.243987  -0.416212  7e-06  3.952472  0.0
C  C114  1  0.82522109  0.03412953  0.07829649  1  -0.084745  -1.8e-05  -0.244049  -0.415357  -1.5e-05  3.950947  0.0
C  C115  1  0.14040146  0.03403137  0.42182576  1  -0.043226  7e-06  -0.243978  -0.416321  7e-06  3.952593  0.0
C  C116  1  0.12635610  0.87866953  0.81942539  1  -0.051089  1.3e-05  -0.093188  -0.190286  -1e-06  3.933925  0.0
C  C117  1  0.99540939  0.87870654  0.68034501  1  -0.067445  3e-06  -0.093016  -0.18853  1.3e-05  3.938439  0.0
C  C118  1  0.87362502  0.12133976  0.18057196  1  -0.050793  1.3e-05  -0.093408  -0.190837  -1e-06  3.934291  0.0
C  C119  1  0.00453754  0.12129826  0.31966170  1  -0.068574  3e-06  -0.093162  -0.188597  1.3e-05  3.938005  0.0
C  C120  1  0.16269476  0.79516298  0.77586587  1  -0.055511  5.4e-05  -0.01985  0.048708  3.7e-05  4.0603  0.0
C  C121  1  0.04222096  0.79522821  0.72388777  1  -0.057471  -6.9e-05  -0.017247  0.052731  -4.5e-05  4.060775  0.0
C  C122  1  0.83727432  0.20484256  0.22413250  1  -0.056523  5.4e-05  -0.01965  0.04922  3.7e-05  4.059781  0.0
C  C123  1  0.95776684  0.20477583  0.27611237  1  -0.056928  -6.9e-05  -0.017281  0.05256  -4.5e-05  4.0607  0.0
C  C124  1  0.93899431  0.63816955  0.30411017  1  1.547694  -0.000398  0.208452  0.672348  -0.000225  4.11744  -0.001
C  C125  1  0.42406974  0.63863911  0.19554732  1  1.546699  0.000427  0.209813  0.674605  0.000227  4.115955  0.0
C  C126  1  0.06104055  0.36182626  0.69589094  1  1.547662  -0.000402  0.208412  0.672478  -0.000225  4.116849  -0.001
C  C127  1  0.57596126  0.36137092  0.80444224  1  1.544424  0.000432  0.209743  0.674613  0.000227  4.115701  0.0
C  C128  1  0.82708120  0.56350811  0.33546320  1  -0.056573  0.00122  -0.242627  -0.507039  0.00082  3.868256  0.001
C  C129  1  0.61041682  0.56395806  0.16397891  1  -0.044401  -0.001192  -0.243014  -0.510545  -0.000793  3.871371  -0.001
C  C130  1  0.17294935  0.43649069  0.66453915  1  -0.056655  0.001219  -0.242532  -0.506849  0.00082  3.868187  0.001
C  C131  1  0.38960174  0.43604447  0.83599948  1  -0.044049  -0.001198  -0.242947  -0.510277  -0.000796  3.871293  -0.001
C  C132  1  0.80593191  0.90900922  0.29754425  1  1.516442  -0.000319  0.208782  0.661429  -0.000255  4.12721  0.0
C  C133  1  0.28519607  0.90929938  0.20301485  1  1.53151  0.000314  0.211321  0.664125  0.000221  4.125703  0.0
C  C134  1  0.19407368  0.09098660  0.70246055  1  1.516183  -0.000322  0.20894  0.661635  -0.000256  4.127055  0.0
C  C135  1  0.71477361  0.09071515  0.79699499  1  1.531777  0.000314  0.211179  0.663971  0.00022  4.125276  0.0
C  C136  1  0.62747976  0.99210759  0.32343743  1  -0.092489  0.000991  -0.244538  -0.523307  0.000598  3.869291  0.001
C  C137  1  0.37980896  0.99267221  0.17726123  1  -0.112816  -0.001005  -0.245465  -0.526109  -0.000594  3.868297  -0.001
C  C138  1  0.37251721  0.00788897  0.67656540  1  -0.09211  0.000987  -0.244574  -0.523405  0.000595  3.869355  0.001
C  C139  1  0.62015916  0.00733409  0.82275160  1  -0.112586  -0.001009  -0.245394  -0.525934  -0.000594  3.868199  -0.001
N  N140  1  0.93604180  0.76425185  0.09901778  1  -1.249976  7.6e-05  -0.3316  -0.237233  -0.00029  3.491836  -0.001
N  N141  1  0.30036231  0.76383799  0.40085106  1  -1.224135  -3.8e-05  -0.331933  -0.238227  0.000321  3.495361  0.001
N  N142  1  0.06394785  0.23574845  0.90098288  1  -1.250014  7.6e-05  -0.331679  -0.237292  -0.00029  3.491778  -0.001
N  N143  1  0.69964917  0.23615782  0.59914559  1  -1.224369  -4.4e-05  -0.331982  -0.238349  0.000317  3.495604  0.001
N  N144  1  0.47672354  0.79452546  0.93407714  1  -1.172509  0.00052  -0.291638  -0.246749  0.000336  3.3849  0.0
N  N145  1  0.72808887  0.79472806  0.56594862  1  -1.211302  -0.000517  -0.291707  -0.246069  -0.000334  3.384066  0.0
N  N146  1  0.52328424  0.20548307  0.06592189  1  -1.172585  0.00052  -0.29167  -0.246864  0.000336  3.384981  0.0
N  N147  1  0.27189128  0.20525801  0.43405119  1  -1.211745  -0.000517  -0.29172  -0.246158  -0.000333  3.383676  0.0
O  O148  1  0.02937909  0.66954174  0.34386077  1  -1.111373  0.092816  -0.321159  -0.530314  0.060673  2.320406  0.084
O  O149  1  0.30205927  0.67008562  0.15592238  1  -1.105813  -0.092969  -0.322423  -0.532437  -0.060674  2.317351  -0.084
O  O150  1  0.97061797  0.33046830  0.65614465  1  -1.111169  0.092835  -0.321209  -0.5304  0.060685  2.320277  0.084
O  O151  1  0.69797990  0.32996634  0.84406711  1  -1.105024  -0.092991  -0.322251  -0.532312  -0.060689  2.317209  -0.084
O  O152  1  0.82390475  0.87584308  0.23583893  1  -1.114647  -0.082003  -0.313784  -0.526099  -0.053752  2.349035  -0.074
O  O153  1  0.30064802  0.87602854  0.26462848  1  -1.115516  0.082266  -0.313444  -0.525164  0.05402  2.348663  0.074
O  O154  1  0.17606690  0.12413402  0.76417315  1  -1.114503  -0.081994  -0.313907  -0.52618  -0.053753  2.349144  -0.074
O  O155  1  0.69940270  0.12394181  0.73536417  1  -1.114938  0.082264  -0.313377  -0.52511  0.054021  2.348247  0.074
O  O156  1  0.92471366  0.87924172  0.33841274  1  -1.107405  0.080191  -0.311846  -0.533029  0.052654  2.325724  0.073
O  O157  1  0.19621691  0.87953908  0.16211027  1  -1.121939  -0.080348  -0.313983  -0.534973  -0.052672  2.327542  -0.073
O  O158  1  0.07533723  0.12077580  0.66157560  1  -1.107168  0.080198  -0.31182  -0.532996  0.052661  2.32569  0.073
O  O159  1  0.80370868  0.12049941  0.83790450  1  -1.122351  -0.080324  -0.313955  -0.534978  -0.05266  2.327481  -0.073
O  O160  1  0.93403264  0.66354140  0.24043500  1  -1.122233  -0.080948  -0.31768  -0.539545  -0.053068  2.316414  -0.073
O  O161  1  0.40381965  0.66394243  0.25924699  1  -1.11984  0.080951  -0.317039  -0.539054  0.053012  2.318026  0.073
O  O162  1  0.06602720  0.33643794  0.75956385  1  -1.122164  -0.080957  -0.31761  -0.539622  -0.053079  2.316044  -0.073
O  O163  1  0.59621088  0.33603467  0.74074998  1  -1.11908  0.080953  -0.317026  -0.539054  0.053011  2.317836  0.073
