# generated using pymatgen
data_H8WC10N2O3
_symmetry_space_group_name_H-M   'P 1'
_cell_length_a   7.32683716
_cell_length_b   13.20831123
_cell_length_c   13.20825031
_cell_angle_alpha   79.36974866
_cell_angle_beta   73.89496412
_cell_angle_gamma   73.89509742
_symmetry_Int_Tables_number   1
_chemical_formula_structural   H8WC10N2O3
_chemical_formula_sum   'H32 W4 C40 N8 O12'
_cell_volume   1171.83908125
_cell_formula_units_Z   4
loop_
 _symmetry_equiv_pos_site_id
 _symmetry_equiv_pos_as_xyz
  1  'x, y, z'
loop_
 _atom_site_type_symbol
 _atom_site_label
 _atom_site_symmetry_multiplicity
 _atom_site_fract_x
 _atom_site_fract_y
 _atom_site_fract_z
 _atom_site_occupancy
 _atom_site_hle17_bader_spin_density
 _atom_site_hle17_ddec_charge
 _atom_site_hle17_ddec_spin_density
 _atom_site_hle17_ddec_sum_bond_order
 _atom_site_hle17_magmom
 _atom_site_hse06_10hf_bader_spin_density
 _atom_site_hse06_10hf_ddec_charge
 _atom_site_hse06_10hf_ddec_spin_density
 _atom_site_hse06_10hf_ddec_sum_bond_order
 _atom_site_hse06_10hf_magmom
 _atom_site_hse06_bader_spin_density
 _atom_site_hse06_ddec_charge
 _atom_site_hse06_ddec_spin_density
 _atom_site_hse06_ddec_sum_bond_order
 _atom_site_hse06_magmom
 _atom_site_pbe_bader_spin_density
 _atom_site_pbe_cm5_charge
 _atom_site_pbe_ddec_charge
 _atom_site_pbe_ddec_spin_density
 _atom_site_pbe_ddec_sum_bond_order
 _atom_site_pbe_magmom
H  H0  1  0.79737738  0.45837923  0.43217319  1  0  0.078617  0  0.961673  0  0  0.086353  0  1.028636  0  0  0.088987  0  1.026146  0  0  0.117885  0.084481  0  1.030277  0
H  H1  1  0.68831116  0.54158445  0.56780871  1  0  0.078383  0  0.960663  0  0  0.086066  0  1.027802  0  0  0.088658  0  1.025342  0  0  0.117908  0.084214  0  1.029422  0
H  H2  1  0.18831191  0.56781065  0.54158173  1  0  0.078382  0  0.960655  0  0  0.086069  0  1.027782  0  0  0.088659  0  1.025324  0  0  0.117917  0.084221  0  1.029405  0
H  H3  1  0.29737911  0.43217067  0.45838032  1  0  0.078609  0  0.961662  0  0  0.086388  0  1.028586  0  0  0.089026  0  1.026092  0  0  0.117891  0.084514  0  1.030224  0
H  H4  1  0.69252172  0.65808991  0.39936262  1  0  0.123391  0  0.973201  0  0  0.131541  0  1.035639  0  0  0.13594  0  1.032999  0  0  0.106277  0.128294  0  1.037764  0
H  H5  1  0.75053774  0.34185015  0.60062704  1  0  0.123297  0  0.973803  0  0  0.131924  0  1.035633  0  0  0.136338  0  1.032969  0  0  0.106277  0.128689  0  1.037748  0
H  H6  1  0.25053917  0.60062855  0.34184650  1  0  0.12327  0  0.973788  0  0  0.131893  0  1.035628  0  0  0.13633  0  1.03294  0  0  0.106308  0.128655  0  1.03774  0
H  H7  1  0.19252786  0.39935956  0.65809299  1  0  0.123367  0  0.973181  0  0  0.131501  0  1.035639  0  0  0.135904  0  1.032991  0  0  0.106267  0.128255  0  1.037764  0
H  H8  1  0.75346083  0.74216842  0.20834408  1  0  0.080089  0  0.960808  0  0  0.094464  0  1.016385  0  0  0.096692  0  1.015015  0  0  0.104483  0.092848  0  1.017388  0
H  H9  1  0.70417677  0.25782291  0.79169584  1  0  0.080088  0  0.959547  0  0  0.094176  0  1.015784  0  0  0.096462  0  1.014316  0  0  0.104141  0.092518  0  1.016849  0
H  H10  1  0.20417800  0.79169832  0.25781911  1  0  0.080124  0  0.959562  0  0  0.094199  0  1.015807  0  0  0.096487  0  1.014335  0  0  0.104124  0.092538  0  1.016874  0
H  H11  1  0.25346592  0.20834177  0.74216906  1  0  0.080066  0  0.960815  0  0  0.094433  0  1.016389  0  0  0.09666  0  1.015019  0  0  0.104466  0.092817  0  1.017394  0
H  H12  1  0.91335259  0.62766198  0.06319800  1  0  0.129804  0  0.96174  0  0  0.140325  0  1.019577  0  0  0.144734  0  1.016905  0  0  0.108798  0.137067  0  1.021763  0
H  H13  1  0.60389657  0.37237657  0.93678150  1  0  0.130154  0  0.962065  0  0  0.140246  0  1.020155  0  0  0.144627  0  1.017478  0  0  0.108833  0.136995  0  1.022363  0
H  H14  1  0.10389961  0.93678124  0.37237426  1  0  0.130151  0  0.962032  0  0  0.140262  0  1.020105  0  0  0.144641  0  1.017432  0  0  0.108846  0.137013  0  1.022309  0
H  H15  1  0.41335019  0.06319637  0.62766278  1  0  0.129775  0  0.96181  0  0  0.140311  0  1.01963  0  0  0.14472  0  1.016961  0  0  0.108796  0.137056  0  1.021816  0
H  H16  1  0.05034707  0.52214830  0.95236123  1  0  0.117833  0  0.988264  0  0  0.123098  0  1.057622  0  0  0.126944  0  1.056182  0  0  0.109115  0.120526  0  1.058426  0
H  H17  1  0.52464019  0.47787919  0.04769468  1  0  0.117085  0  0.987678  0  0  0.122226  0  1.057094  0  0  0.126056  0  1.055701  0  0  0.10893  0.11966  0  1.057878  0
H  H18  1  0.02464497  0.04769226  0.47787691  1  0  0.117023  0  0.987752  0  0  0.122167  0  1.057172  0  0  0.125996  0  1.055781  0  0  0.108926  0.119602  0  1.057958  0
H  H19  1  0.55034621  0.95236010  0.52214793  1  0  0.117821  0  0.988256  0  0  0.123075  0  1.057625  0  0  0.126921  0  1.056188  0  0  0.10912  0.120505  0  1.05843  0
H  H20  1  0.20459390  0.38724900  0.82990386  1  0  0.106366  0  0.963655  0  0  0.117588  0  1.02297  0  0  0.120645  0  1.020677  0  0  0.106987  0.115316  0  1.024698  0
H  H21  1  0.42137496  0.61278976  0.17012604  1  0  0.106928  0  0.963915  0  0  0.11889  0  1.022087  0  0  0.121906  0  1.019776  0  0  0.107333  0.116578  0  1.023922  0
H  H22  1  0.92137687  0.17012244  0.61278783  1  0  0.106928  0  0.963939  0  0  0.118872  0  1.022125  0  0  0.121903  0  1.019794  0  0  0.10733  0.116563  0  1.023959  0
H  H23  1  0.70459488  0.82990457  0.38724681  1  0  0.106349  0  0.963683  0  0  0.117592  0  1.022969  0  0  0.12065  0  1.020674  0  0  0.106988  0.115319  0  1.024696  0
H  H24  1  0.26925362  0.19120706  0.90469178  1  0  0.091562  0  0.960104  0  0  0.103423  0  1.01538  0  0  0.106438  0  1.014767  0  0  0.105122  0.101238  0  1.016045  0
H  H25  1  0.36492087  0.80883274  0.09527935  1  0  0.090894  0  0.95905  0  0  0.102798  0  1.014478  0  0  0.105782  0  1.013907  0  0  0.104392  0.100623  0  1.015107  0
H  H26  1  0.86492277  0.09527926  0.80883115  1  0  0.090901  0  0.959056  0  0  0.102816  0  1.014466  0  0  0.105803  0  1.013894  0  0  0.104404  0.100643  0  1.015092  0
H  H27  1  0.76925338  0.90469228  0.19120454  1  0  0.091538  0  0.960119  0  0  0.10341  0  1.015387  0  0  0.106427  0  1.014774  0  0  0.105102  0.101225  0  1.016049  0
H  H28  1  0.16261319  0.14639939  0.10241079  1  0  0.082449  0  0.930834  0  0  0.090361  0  0.992756  0  0  0.093609  0  0.989599  0  0  0.119328  0.088019  0  0.99487  0
H  H29  1  0.41139651  0.85359302  0.89757479  1  0  0.082795  0  0.931142  0  0  0.090745  0  0.993096  0  0  0.093983  0  0.989915  0  0  0.119424  0.088406  0  0.99522  0
H  H30  1  0.91139995  0.89757498  0.85359204  1  0  0.082795  0  0.931168  0  0  0.090744  0  0.993121  0  0  0.093981  0  0.98994  0  0  0.119424  0.088405  0  0.995241  0
H  H31  1  0.66261125  0.10241083  0.14639667  1  0  0.082393  0  0.930924  0  0  0.090324  0  0.992849  0  0  0.093575  0  0.989691  0  0  0.119319  0.087982  0  0.994964  0
W  W32  1  0.97976863  0.25297255  0.31457348  1  0  2.266596  0  4.451709  0  0  2.267913  0  5.007875  0  0  2.367904  0  4.961431  0  0  1.637515  2.18754  0  5.058878  0
W  W33  1  0.54731311  0.74705440  0.68543214  1  0  2.264474  0  4.4556  0  0  2.265627  0  5.011939  0  0  2.365661  0  4.965485  0  0  1.636085  2.18494  0  5.063436  0
W  W34  1  0.04731388  0.68543346  0.74705329  1  0  2.26445  0  4.455601  0  0  2.265614  0  5.011925  0  0  2.365643  0  4.965476  0  0  1.636092  2.184926  0  5.063415  0
W  W35  1  0.47976938  0.31457222  0.25297316  1  0  2.266524  0  4.451735  0  0  2.26787  0  5.007879  0  0  2.367868  0  4.961437  0  0  1.637471  2.187458  0  5.058926  0
C  C36  1  0.81912443  0.50088438  0.35249665  1  0  0.144482  0  3.688851  0  0  0.113031  0  3.942459  0  0  0.120736  0  3.958182  0  0  0.055655  0.10817  0  3.931085  0
C  C37  1  0.67279715  0.49909094  0.64748749  1  0  0.145895  0  3.689012  0  0  0.114868  0  3.943047  0  0  0.122605  0  3.958775  0  0  0.056163  0.109982  0  3.931648  0
C  C38  1  0.17279962  0.64748835  0.49908739  1  0  0.145849  0  3.688957  0  0  0.114827  0  3.942987  0  0  0.122562  0  3.958721  0  0  0.056142  0.109932  0  3.931594  0
C  C39  1  0.31912439  0.35249360  0.50088649  1  0  0.144415  0  3.688886  0  0  0.112946  0  3.942547  0  0  0.12065  0  3.95827  0  0  0.055637  0.108086  0  3.931161  0
C  C40  1  0.76173301  0.61089711  0.33296659  1  0  -0.121019  0  3.712877  0  0  -0.132174  0  3.960225  0  0  -0.13916  0  3.981321  0  0  -0.081008  -0.127733  0  3.946315  0
C  C41  1  0.70600558  0.38906537  0.66701473  1  0  -0.122719  0  3.714463  0  0  -0.134333  0  3.961842  0  0  -0.141336  0  3.982915  0  0  -0.08142  -0.129891  0  3.947944  0
C  C42  1  0.20600796  0.66701692  0.38906157  1  0  -0.122564  0  3.714446  0  0  -0.134163  0  3.961792  0  0  -0.141185  0  3.982849  0  0  -0.081389  -0.129717  0  3.947885  0
C  C43  1  0.26173477  0.33296440  0.61089989  1  0  -0.120979  0  3.712883  0  0  -0.132106  0  3.96023  0  0  -0.139092  0  3.981326  0  0  -0.08103  -0.127665  0  3.946318  0
C  C44  1  0.79723337  0.65644095  0.22751789  1  0  -0.008891  0  3.744973  0  0  -0.02554  0  3.989767  0  0  -0.023161  0  4.010143  0  0  -0.068206  -0.026839  0  3.975808  0
C  C45  1  0.68137566  0.34354522  0.77246870  1  0  -0.007453  0  3.744531  0  0  -0.024048  0  3.989367  0  0  -0.021703  0  4.009691  0  0  -0.067686  -0.025323  0  3.975451  0
C  C46  1  0.18137870  0.77247004  0.34354159  1  0  -0.007605  0  3.744624  0  0  -0.024189  0  3.989452  0  0  -0.021844  0  4.009781  0  0  -0.067725  -0.025462  0  3.975525  0
C  C47  1  0.29723677  0.22751612  0.65644192  1  0  -0.008886  0  3.744988  0  0  -0.025507  0  3.989744  0  0  -0.02313  0  4.010123  0  0  -0.068181  -0.026805  0  3.975787  0
C  C48  1  0.88641983  0.59246086  0.14591897  1  0  -0.133086  0  3.668653  0  0  -0.148563  0  3.906917  0  0  -0.155273  0  3.926928  0  0  -0.071504  -0.144276  0  3.893687  0
C  C49  1  0.62464990  0.40757410  0.85404952  1  0  -0.13457  0  3.672264  0  0  -0.149252  0  3.909877  0  0  -0.155938  0  3.929935  0  0  -0.07157  -0.144969  0  3.896599  0
C  C50  1  0.12465056  0.85404985  0.40757176  1  0  -0.134581  0  3.672299  0  0  -0.149285  0  3.909919  0  0  -0.155972  0  3.92998  0  0  -0.071605  -0.145  0  3.896643  0
C  C51  1  0.38642062  0.14591606  0.59246225  1  0  -0.133013  0  3.668645  0  0  -0.148526  0  3.906893  0  0  -0.155236  0  3.926901  0  0  -0.071467  -0.144238  0  3.89367  0
C  C52  1  0.93735025  0.48228558  0.17237342  1  0  0.193499  0  3.721453  0  0  0.186269  0  3.968691  0  0  0.194039  0  3.985522  0  0  0.129444  0.181179  0  3.956688  0
C  C53  1  0.59189141  0.51775371  0.82759404  1  0  0.194175  0  3.722353  0  0  0.187171  0  3.96948  0  0  0.194949  0  3.986254  0  0  0.130351  0.182094  0  3.957455  0
C  C54  1  0.09189176  0.82759388  0.51775166  1  0  0.194203  0  3.722227  0  0  0.1872  0  3.969378  0  0  0.194973  0  3.986155  0  0  0.130349  0.182118  0  3.957358  0
C  C55  1  0.43734971  0.17237146  0.48228532  1  0  0.193389  0  3.72154  0  0  0.186227  0  3.968787  0  0  0.194008  0  3.9856  0  0  0.129425  0.181131  0  3.956791  0
C  C56  1  0.02646698  0.40646891  0.09264880  1  0  0.192322  0  3.719129  0  0  0.185928  0  3.9651  0  0  0.194104  0  3.982078  0  0  0.130728  0.180612  0  3.953013  0
C  C57  1  0.52543955  0.59353606  0.90736311  1  0  0.19274  0  3.718478  0  0  0.186278  0  3.96419  0  0  0.194509  0  3.981057  0  0  0.130804  0.18091  0  3.952158  0
C  C58  1  0.02544248  0.90736212  0.59353557  1  0  0.192761  0  3.718425  0  0  0.186304  0  3.964152  0  0  0.194533  0  3.981019  0  0  0.130822  0.18094  0  3.952121  0
C  C59  1  0.52646614  0.09264706  0.40646759  1  0  0.192347  0  3.718963  0  0  0.185972  0  3.964928  0  0  0.194159  0  3.981906  0  0  0.130751  0.180642  0  3.952842  0
C  C60  1  0.07749598  0.43833814  0.98362244  1  0  -0.121509  0  3.647138  0  0  -0.138271  0  3.887964  0  0  -0.145524  0  3.908193  0  0  -0.068965  -0.133701  0  3.874469  0
C  C61  1  0.49925841  0.56168562  0.01640572  1  0  -0.120081  0  3.646652  0  0  -0.136278  0  3.886864  0  0  -0.143522  0  3.907058  0  0  -0.068487  -0.13171  0  3.873378  0
C  C62  1  0.99926323  0.01640399  0.56168425  1  0  -0.119929  0  3.646693  0  0  -0.136135  0  3.886903  0  0  -0.143377  0  3.907103  0  0  -0.068426  -0.131567  0  3.873422  0
C  C63  1  0.57749452  0.98362093  0.43833748  1  0  -0.121411  0  3.646988  0  0  -0.138166  0  3.887817  0  0  -0.145418  0  3.908041  0  0  -0.068928  -0.133599  0  3.87433  0
C  C64  1  0.16488221  0.36111819  0.91446509  1  0  0.003658  0  3.711276  0  0  -0.014514  0  3.95664  0  0  -0.01065  0  3.975421  0  0  -0.064994  -0.016783  0  3.94392  0
C  C65  1  0.44011925  0.63890586  0.08556196  1  0  0.001431  0  3.712218  0  0  -0.017448  0  3.957209  0  0  -0.013533  0  3.976103  0  0  -0.066031  -0.0197  0  3.944435  0
C  C66  1  0.94011889  0.08555940  0.63890574  1  0  0.001349  0  3.712334  0  0  -0.017521  0  3.957355  0  0  -0.013617  0  3.976245  0  0  -0.066062  -0.019771  0  3.944583  0
C  C67  1  0.66488392  0.91446455  0.36111568  1  0  0.00355  0  3.711271  0  0  -0.014626  0  3.956617  0  0  -0.010763  0  3.975398  0  0  -0.065057  -0.016893  0  3.943895  0
C  C68  1  0.19877786  0.25434988  0.95550790  1  0  -0.132065  0  3.763969  0  0  -0.142209  0  4.011013  0  0  -0.150264  0  4.033029  0  0  -0.086404  -0.13714  0  3.996259  0
C  C69  1  0.40840124  0.74566799  0.04448983  1  0  -0.12986  0  3.761479  0  0  -0.139929  0  4.008329  0  0  -0.147979  0  4.030414  0  0  -0.084939  -0.134844  0  3.993523  0
C  C70  1  0.90840234  0.04448784  0.74566731  1  0  -0.129835  0  3.761496  0  0  -0.139915  0  4.00836  0  0  -0.147967  0  4.030442  0  0  -0.08495  -0.13483  0  3.993553  0
C  C71  1  0.69877778  0.95550776  0.25434713  1  0  -0.13207  0  3.763886  0  0  -0.142202  0  4.010931  0  0  -0.150257  0  4.032944  0  0  -0.086374  -0.137131  0  3.996174  0
C  C72  1  0.14156690  0.22821256  0.06471830  1  0  0.145652  0  3.706374  0  0  0.114072  0  3.961205  0  0  0.12246  0  3.977085  0  0  0.055831  0.108864  0  3.94956  0
C  C73  1  0.43440298  0.77178020  0.93527042  1  0  0.144616  0  3.709131  0  0  0.112941  0  3.963992  0  0  0.121352  0  3.979882  0  0  0.055541  0.107716  0  3.952319  0
C  C74  1  0.93440628  0.93526897  0.77178009  1  0  0.144572  0  3.709255  0  0  0.1129  0  3.964112  0  0  0.121313  0  3.98  0  0  0.05552  0.107679  0  3.952434  0
C  C75  1  0.64156506  0.06471813  0.22821017  1  0  0.14585  0  3.706288  0  0  0.114215  0  3.961223  0  0  0.122615  0  3.977109  0  0  0.055909  0.108995  0  3.949567  0
N  N76  1  0.90422688  0.43880358  0.27465841  1  0  -0.343731  0  3.300021  0  0  -0.294967  0  3.554935  0  0  -0.31124  0  3.573529  0  0  -0.331132  -0.282901  0  3.54151  0
N  N77  1  0.61779372  0.56120544  0.72530774  1  0  -0.343988  0  3.301157  0  0  -0.296452  0  3.557237  0  0  -0.312761  0  3.575848  0  0  -0.332105  -0.284311  0  3.543743  0
N  N78  1  0.11779315  0.72530733  0.56120396  1  0  -0.34396  0  3.300951  0  0  -0.296455  0  3.557058  0  0  -0.312759  0  3.575668  0  0  -0.332097  -0.284314  0  3.543571  0
N  N79  1  0.40422808  0.27465639  0.43880457  1  0  -0.343632  0  3.300068  0  0  -0.295  0  3.555119  0  0  -0.311277  0  3.573713  0  0  -0.331142  -0.282914  0  3.541674  0
N  N80  1  0.05746629  0.30243709  0.13108037  1  0  -0.344715  0  3.298467  0  0  -0.295768  0  3.554351  0  0  -0.313086  0  3.573573  0  0  -0.333203  -0.283018  0  3.540319  0
N  N81  1  0.49083456  0.69755554  0.86892611  1  0  -0.345071  0  3.300754  0  0  -0.296108  0  3.556471  0  0  -0.313496  0  3.575814  0  0  -0.333269  -0.28327  0  3.542347  0
N  N82  1  0.99083765  0.86892580  0.69755482  1  0  -0.345082  0  3.300885  0  0  -0.296109  0  3.556572  0  0  -0.3135  0  3.575922  0  0  -0.333261  -0.283269  0  3.542443  0
N  N83  1  0.55746310  0.13107925  0.30243643  1  0  -0.344776  0  3.298371  0  0  -0.295872  0  3.554335  0  0  -0.313238  0  3.573617  0  0  -0.333278  -0.283079  0  3.540263  0
O  O84  1  0.73120813  0.28558995  0.28159074  1  0  -0.981886  0  2.080009  0  0  -0.984255  0  2.402515  0  0  -1.030176  0  2.398237  0  0  -0.630474  -0.946658  0  2.405147  0
O  O85  1  0.29834266  0.71449215  0.71841218  1  0  -0.980987  0  2.081509  0  0  -0.983195  0  2.403813  0  0  -1.029122  0  2.399586  0  0  -0.629825  -0.945525  0  2.406445  0
O  O86  1  0.79834217  0.71841363  0.71449239  1  0  -0.980987  0  2.081476  0  0  -0.983198  0  2.403787  0  0  -1.029125  0  2.399562  0  0  -0.629831  -0.945526  0  2.406415  0
O  O87  1  0.23120598  0.28159048  0.28559347  1  0  -0.981834  0  2.07996  0  0  -0.984197  0  2.402458  0  0  -1.030119  0  2.398182  0  0  -0.630433  -0.946599  0  2.405088  0
O  O88  1  0.05135800  0.11534208  0.30372848  1  0  -0.787624  0  1.439323  0  0  -0.793383  0  1.681112  0  0  -0.821055  0  1.667711  0  0  -0.582038  -0.772337  0  1.69205  0
O  O89  1  0.47059943  0.88472673  0.69612004  1  0  -0.786833  0  1.440198  0  0  -0.792756  0  1.682463  0  0  -0.820434  0  1.669032  0  0  -0.581381  -0.77164  0  1.693422  0
O  O90  1  0.97060145  0.69612048  0.88472595  1  0  -0.786822  0  1.440237  0  0  -0.792748  0  1.682502  0  0  -0.820424  0  1.669072  0  0  -0.581393  -0.77163  0  1.693456  0
O  O91  1  0.55135551  0.30372856  0.11534189  1  0  -0.787605  0  1.43936  0  0  -0.793358  0  1.68114  0  0  -0.82103  0  1.667735  0  0  -0.58203  -0.772306  0  1.692081  0
O  O92  1  0.90226801  0.26565283  0.45158844  1  0  -0.781673  0  1.479269  0  0  -0.784754  0  1.731209  0  0  -0.813701  0  1.719348  0  0  -0.569315  -0.762792  0  1.740881  0
O  O93  1  0.61950320  0.73427392  0.54844244  1  0  -0.781521  0  1.480468  0  0  -0.78413  0  1.7323  0  0  -0.813005  0  1.720338  0  0  -0.569399  -0.762137  0  1.742017  0
O  O94  1  0.11950194  0.54844396  0.73427199  1  0  -0.781514  0  1.480411  0  0  -0.784117  0  1.732228  0  0  -0.813001  0  1.720288  0  0  -0.569399  -0.762126  0  1.741946  0
O  O95  1  0.40227087  0.45158675  0.26565525  1  0  -0.781656  0  1.479264  0  0  -0.784729  0  1.731184  0  0  -0.813679  0  1.719327  0  0  -0.569284  -0.762759  0  1.740854  0
