# generated using pymatgen
data_CaH11C9SNO6
_symmetry_space_group_name_H-M   'P 1'
_cell_length_a   10.31368121
_cell_length_b   10.16190872
_cell_length_c   11.48023778
_cell_angle_alpha   90.00014272
_cell_angle_beta   90.00006787
_cell_angle_gamma   94.62738322
_symmetry_Int_Tables_number   1
_chemical_formula_structural   CaH11C9SNO6
_chemical_formula_sum   'Ca4 H44 C36 S4 N4 O24'
_cell_volume   1199.28376210
_cell_formula_units_Z   4
loop_
 _symmetry_equiv_pos_site_id
 _symmetry_equiv_pos_as_xyz
  1  'x, y, z'
loop_
 _atom_site_type_symbol
 _atom_site_label
 _atom_site_symmetry_multiplicity
 _atom_site_fract_x
 _atom_site_fract_y
 _atom_site_fract_z
 _atom_site_occupancy
 _atom_site_hle17_bader_spin_density
 _atom_site_hle17_ddec_charge
 _atom_site_hle17_ddec_spin_density
 _atom_site_hle17_ddec_sum_bond_order
 _atom_site_hle17_magmom
 _atom_site_hse06_10hf_bader_spin_density
 _atom_site_hse06_10hf_ddec_charge
 _atom_site_hse06_10hf_ddec_spin_density
 _atom_site_hse06_10hf_ddec_sum_bond_order
 _atom_site_hse06_10hf_magmom
 _atom_site_hse06_bader_spin_density
 _atom_site_hse06_ddec_charge
 _atom_site_hse06_ddec_spin_density
 _atom_site_hse06_ddec_sum_bond_order
 _atom_site_hse06_magmom
 _atom_site_pbe_bader_spin_density
 _atom_site_pbe_cm5_charge
 _atom_site_pbe_ddec_charge
 _atom_site_pbe_ddec_spin_density
 _atom_site_pbe_ddec_sum_bond_order
 _atom_site_pbe_magmom
Ca  Ca0  1  0.15356591  0.68199990  0.08794501  1  0  1.511797  0  1.146269  0  0  1.366533  0  1.513426  0  0  1.410248  0  1.468846  0  0  0.848977  1.33347  0  1.545014  0
Ca  Ca1  1  0.34643325  0.31799947  0.58794393  1  0  1.511794  0  1.146264  0  0  1.366536  0  1.513408  0  0  1.410257  0  1.468826  0  0  0.84899  1.333476  0  1.544996  0
Ca  Ca2  1  0.84643480  0.31800060  0.91205595  1  0  1.511797  0  1.146299  0  0  1.366521  0  1.513477  0  0  1.410239  0  1.468896  0  0  0.848985  1.333464  0  1.545063  0
Ca  Ca3  1  0.65356631  0.68199907  0.41205615  1  0  1.511777  0  1.146288  0  0  1.366519  0  1.513448  0  0  1.410233  0  1.468871  0  0  0.848988  1.333457  0  1.545037  0
H  H4  1  0.09195172  0.89147037  0.82432107  1  0  0.148798  0  0.952784  0  0  0.165751  0  1.011668  0  0  0.167573  0  1.011999  0  0  0.105771  0.164253  0  1.011643  0
H  H5  1  0.40805169  0.10852965  0.32431940  1  0  0.148736  0  0.95272  0  0  0.165684  0  1.011628  0  0  0.167506  0  1.011958  0  0  0.105746  0.164185  0  1.011604  0
H  H6  1  0.90804997  0.10853012  0.17567989  1  0  0.148746  0  0.952725  0  0  0.165693  0  1.011632  0  0  0.167515  0  1.011962  0  0  0.105742  0.164194  0  1.011608  0
H  H7  1  0.59194991  0.89146985  0.67568068  1  0  0.148768  0  0.952784  0  0  0.165719  0  1.011665  0  0  0.167541  0  1.011996  0  0  0.105751  0.164219  0  1.011642  0
H  H8  1  0.13372234  0.06161834  0.77891606  1  0  0.160198  0  0.933593  0  0  0.178763  0  0.989265  0  0  0.181173  0  0.98852  0  0  0.114577  0.176913  0  0.990049  0
H  H9  1  0.36627985  0.93837958  0.27891183  1  0  0.160133  0  0.933623  0  0  0.178733  0  0.989248  0  0  0.181145  0  0.9885  0  0  0.11455  0.176881  0  0.990037  0
H  H10  1  0.86627819  0.93838019  0.22108664  1  0  0.160163  0  0.933602  0  0  0.178746  0  0.989245  0  0  0.181156  0  0.988498  0  0  0.114557  0.176895  0  0.99003  0
H  H11  1  0.63371963  0.06161797  0.72108651  1  0  0.160185  0  0.933609  0  0  0.178767  0  0.989244  0  0  0.181178  0  0.988497  0  0  0.114574  0.176916  0  0.990029  0
H  H12  1  0.02029204  0.02825212  0.89523760  1  0  0.155054  0  0.950482  0  0  0.170301  0  1.011202  0  0  0.172964  0  1.00998  0  0  0.110865  0.168214  0  1.012324  0
H  H13  1  0.47971139  0.97174711  0.39523617  1  0  0.155062  0  0.950473  0  0  0.170289  0  1.011223  0  0  0.172951  0  1.010003  0  0  0.110867  0.168204  0  1.012341  0
H  H14  1  0.97970859  0.97174739  0.10476423  1  0  0.155055  0  0.950498  0  0  0.17029  0  1.011223  0  0  0.172953  0  1.010002  0  0  0.110866  0.168203  0  1.012345  0
H  H15  1  0.52028827  0.02825241  0.60476391  1  0  0.155063  0  0.950442  0  0  0.170289  0  1.011186  0  0  0.172952  0  1.009965  0  0  0.110859  0.16819  0  1.012319  0
H  H16  1  0.44678461  0.93892779  0.91023504  1  0  0.140797  0  0.938301  0  0  0.160092  0  0.995308  0  0  0.161328  0  0.996278  0  0  0.102022  0.158962  0  0.99507  0
H  H17  1  0.05321787  0.06107150  0.41023463  1  0  0.140798  0  0.938306  0  0  0.160092  0  0.995317  0  0  0.161327  0  0.996288  0  0  0.102026  0.158963  0  0.995077  0
H  H18  1  0.55321602  0.06107172  0.08976592  1  0  0.140782  0  0.938282  0  0  0.160078  0  0.995296  0  0  0.161315  0  0.996266  0  0  0.102007  0.158949  0  0.995056  0
H  H19  1  0.94678381  0.93892899  0.58976459  1  0  0.140799  0  0.93829  0  0  0.160094  0  0.995296  0  0  0.16133  0  0.996267  0  0  0.102015  0.158965  0  0.995057  0
H  H20  1  0.37902050  0.02674914  0.79175125  1  0  0.159894  0  0.948765  0  0  0.178631  0  1.005964  0  0  0.180857  0  1.005569  0  0  0.1131  0.176896  0  1.006497  0
H  H21  1  0.12098083  0.97324982  0.29175120  1  0  0.15989  0  0.94877  0  0  0.178635  0  1.00596  0  0  0.180862  0  1.005566  0  0  0.113095  0.176899  0  1.006497  0
H  H22  1  0.62098012  0.97325038  0.20824796  1  0  0.159872  0  0.948797  0  0  0.178615  0  1.005984  0  0  0.180842  0  1.00559  0  0  0.113098  0.17688  0  1.006519  0
H  H23  1  0.87902077  0.02674968  0.70824889  1  0  0.159871  0  0.9488  0  0  0.178609  0  1.005994  0  0  0.180836  0  1.0056  0  0  0.113088  0.176875  0  1.006528  0
H  H24  1  0.32166365  0.85638126  0.82067837  1  0  0.146401  0  0.949956  0  0  0.164333  0  1.00884  0  0  0.165895  0  1.009178  0  0  0.10669  0.163184  0  1.008633  0
H  H25  1  0.17833694  0.14361977  0.32067915  1  0  0.146396  0  0.949951  0  0  0.164328  0  1.008839  0  0  0.16589  0  1.009177  0  0  0.106682  0.163178  0  1.008633  0
H  H26  1  0.67833804  0.14361923  0.17932085  1  0  0.146381  0  0.949965  0  0  0.164313  0  1.008857  0  0  0.165875  0  1.009194  0  0  0.106689  0.163164  0  1.00865  0
H  H27  1  0.82166378  0.85638073  0.67932094  1  0  0.146414  0  0.949947  0  0  0.164345  0  1.008833  0  0  0.165907  0  1.00917  0  0  0.106697  0.163195  0  1.008627  0
H  H28  1  0.28862386  0.57065763  0.81978258  1  0  0.090037  0  0.956193  0  0  0.09393  0  1.027364  0  0  0.09801  0  1.022944  0  0  0.124827  0.09113  0  1.030394  0
H  H29  1  0.21137645  0.42934043  0.31978316  1  0  0.089969  0  0.956203  0  0  0.093877  0  1.027374  0  0  0.097959  0  1.022951  0  0  0.124808  0.091077  0  1.030404  0
H  H30  1  0.71137483  0.42934190  0.18021750  1  0  0.089993  0  0.956176  0  0  0.093893  0  1.027342  0  0  0.097966  0  1.022929  0  0  0.124817  0.091093  0  1.030372  0
H  H31  1  0.78862505  0.57065808  0.68021692  1  0  0.089988  0  0.956174  0  0  0.09389  0  1.027349  0  0  0.097963  0  1.022936  0  0  0.124817  0.09109  0  1.030379  0
H  H32  1  0.70101960  0.68144650  0.81759395  1  0  0.102831  0  0.951238  0  0  0.111096  0  1.015901  0  0  0.114682  0  1.012434  0  0  0.111737  0.108661  0  1.018047  0
H  H33  1  0.79898040  0.31855290  0.31759176  1  0  0.10284  0  0.951248  0  0  0.111085  0  1.015939  0  0  0.114672  0  1.01247  0  0  0.111748  0.10865  0  1.018084  0
H  H34  1  0.29897706  0.31855208  0.18240788  1  0  0.102816  0  0.95115  0  0  0.111094  0  1.015823  0  0  0.114681  0  1.012354  0  0  0.11176  0.108658  0  1.017969  0
H  H35  1  0.20102313  0.68144657  0.68240833  1  0  0.102849  0  0.951131  0  0  0.111123  0  1.015818  0  0  0.114711  0  1.01235  0  0  0.111779  0.108688  0  1.017964  0
H  H36  1  0.68575976  0.71666051  0.03382798  1  0  0.103383  0  1.00558  0  0  0.104499  0  1.082452  0  0  0.10907  0  1.079411  0  0  0.104382  0.100909  0  1.085306  0
H  H37  1  0.81423901  0.28334005  0.53382854  1  0  0.103408  0  1.005576  0  0  0.104527  0  1.082436  0  0  0.109098  0  1.079397  0  0  0.104391  0.100938  0  1.085288  0
H  H38  1  0.31423787  0.28333806  0.96617211  1  0  0.103376  0  1.005635  0  0  0.104505  0  1.08249  0  0  0.109077  0  1.079448  0  0  0.104385  0.100916  0  1.085343  0
H  H39  1  0.18576373  0.71666141  0.46617242  1  0  0.103382  0  1.005634  0  0  0.104511  0  1.082491  0  0  0.109088  0  1.079433  0  0  0.104382  0.100922  0  1.085343  0
H  H40  1  0.87802432  0.69029500  0.14374912  1  0  0.420636  0  0.884935  0  0  0.389503  0  0.949527  0  0  0.401087  0  0.932554  0  0  0.293671  0.381149  0  0.961839  0
H  H41  1  0.62197560  0.30970587  0.64374518  1  0  0.420651  0  0.88491  0  0  0.389512  0  0.949513  0  0  0.401099  0  0.932533  0  0  0.293667  0.381157  0  0.961826  0
H  H42  1  0.12197534  0.30970453  0.85625271  1  0  0.420609  0  0.884977  0  0  0.389468  0  0.949584  0  0  0.401053  0  0.932607  0  0  0.293658  0.381113  0  0.961897  0
H  H43  1  0.37802415  0.69029464  0.35625317  1  0  0.420611  0  0.884974  0  0  0.389474  0  0.949573  0  0  0.401058  0  0.932599  0  0  0.293655  0.381119  0  0.961886  0
H  H44  1  0.89116245  0.63289225  0.01156278  1  0  0.414936  0  0.889575  0  0  0.386776  0  0.949501  0  0  0.397402  0  0.933933  0  0  0.29896  0.379224  0  0.960553  0
H  H45  1  0.60883859  0.36711216  0.51155895  1  0  0.414969  0  0.889519  0  0  0.3868  0  0.949464  0  0  0.397428  0  0.933892  0  0  0.298941  0.379243  0  0.960525  0
H  H46  1  0.10883624  0.36710729  0.98843905  1  0  0.414948  0  0.88955  0  0  0.38679  0  0.94947  0  0  0.397416  0  0.933902  0  0  0.298972  0.379236  0  0.960526  0
H  H47  1  0.39116442  0.63289226  0.48843940  1  0  0.41496  0  0.889533  0  0  0.386807  0  0.949446  0  0  0.397433  0  0.933878  0  0  0.298969  0.379253  0  0.960502  0
C  C48  1  0.10643739  0.99504527  0.85181627  1  0  -0.433202  0  3.545239  0  0  -0.501512  0  3.787337  0  0  -0.505187  0  3.791433  0  0  -0.226011  -0.498551  0  3.784965  0
C  C49  1  0.39356491  0.00495286  0.35181261  1  0  -0.433083  0  3.54512  0  0  -0.501402  0  3.787194  0  0  -0.505077  0  3.791292  0  0  -0.225977  -0.498441  0  3.784821  0
C  C50  1  0.89356314  0.00495325  0.14818556  1  0  -0.433117  0  3.545197  0  0  -0.501419  0  3.787273  0  0  -0.505094  0  3.791371  0  0  -0.225976  -0.498458  0  3.784899  0
C  C51  1  0.60643563  0.99504567  0.64818573  1  0  -0.433168  0  3.54518  0  0  -0.501459  0  3.787228  0  0  -0.505135  0  3.791325  0  0  -0.225985  -0.498486  0  3.784868  0
C  C52  1  0.35888772  0.95081870  0.85878746  1  0  -0.436199  0  3.560913  0  0  -0.508241  0  3.805675  0  0  -0.512088  0  3.811863  0  0  -0.229747  -0.505281  0  3.801778  0
C  C53  1  0.14111468  0.04918044  0.35878712  1  0  -0.436193  0  3.561022  0  0  -0.508251  0  3.805797  0  0  -0.512098  0  3.811987  0  0  -0.22974  -0.505289  0  3.801898  0
C  C54  1  0.64111387  0.04918080  0.14121263  1  0  -0.436151  0  3.560981  0  0  -0.5082  0  3.805746  0  0  -0.512048  0  3.811936  0  0  -0.229744  -0.505238  0  3.801846  0
C  C55  1  0.85888700  0.95082005  0.64121296  1  0  -0.436214  0  3.560962  0  0  -0.508262  0  3.805741  0  0  -0.512109  0  3.81193  0  0  -0.229752  -0.505301  0  3.801842  0
C  C56  1  0.37837296  0.60619480  0.86359797  1  0  0.126672  0  3.68239  0  0  0.087424  0  3.945999  0  0  0.095031  0  3.960594  0  0  0.060199  0.082325  0  3.935862  0
C  C57  1  0.12162437  0.39381232  0.36359924  1  0  0.12677  0  3.68239  0  0  0.087501  0  3.946004  0  0  0.095109  0  3.960599  0  0  0.060216  0.082403  0  3.935866  0
C  C58  1  0.62162389  0.39380574  0.13640125  1  0  0.126717  0  3.682376  0  0  0.08749  0  3.945957  0  0  0.095103  0  3.960557  0  0  0.060238  0.082391  0  3.935821  0
C  C59  1  0.87837592  0.60619411  0.63640172  1  0  0.12674  0  3.682415  0  0  0.087455  0  3.945974  0  0  0.095068  0  3.960571  0  0  0.06022  0.082357  0  3.935837  0
C  C60  1  0.47851736  0.67248232  0.03573980  1  0  0.092631  0  3.752503  0  0  0.097296  0  3.996336  0  0  0.098918  0  4.015447  0  0  0.114474  0.096112  0  3.983358  0
C  C61  1  0.02147978  0.32751692  0.53574015  1  0  0.092622  0  3.752547  0  0  0.0973  0  3.996367  0  0  0.098922  0  4.015477  0  0  0.114431  0.096115  0  3.983389  0
C  C62  1  0.52147754  0.32751825  0.96425854  1  0  0.092581  0  3.752571  0  0  0.097264  0  3.996413  0  0  0.098883  0  4.015522  0  0  0.114409  0.09608  0  3.983432  0
C  C63  1  0.97852130  0.67248753  0.46425907  1  0  0.092592  0  3.752394  0  0  0.097222  0  3.996294  0  0  0.098842  0  4.015405  0  0  0.114378  0.09604  0  3.983312  0
C  C64  1  0.60800412  0.66766429  0.86249452  1  0  -0.000542  0  3.678909  0  0  -0.030109  0  3.933804  0  0  -0.025093  0  3.949307  0  0  -0.058278  -0.032938  0  3.922274  0
C  C65  1  0.89199314  0.33233627  0.36249507  1  0  -0.000433  0  3.678821  0  0  -0.029985  0  3.933716  0  0  -0.024969  0  3.94922  0  0  -0.058275  -0.032814  0  3.922185  0
C  C66  1  0.39199273  0.33233626  0.13750644  1  0  -0.000427  0  3.678764  0  0  -0.030006  0  3.93368  0  0  -0.024989  0  3.949184  0  0  -0.058282  -0.032832  0  3.922149  0
C  C67  1  0.10800758  0.66766423  0.63750676  1  0  -0.00044  0  3.678717  0  0  -0.030062  0  3.933588  0  0  -0.025047  0  3.949093  0  0  -0.058288  -0.03289  0  3.922056  0
C  C68  1  0.60009471  0.68797096  0.98186750  1  0  -0.128671  0  3.743571  0  0  -0.152245  0  4.001646  0  0  -0.158096  0  4.021922  0  0  -0.081033  -0.148344  0  3.987795  0
C  C69  1  0.89990352  0.31202796  0.48186715  1  0  -0.128833  0  3.743736  0  0  -0.152408  0  4.001802  0  0  -0.15826  0  4.022076  0  0  -0.081088  -0.148506  0  3.987948  0
C  C70  1  0.39990186  0.31202663  0.01813346  1  0  -0.128776  0  3.743718  0  0  -0.152369  0  4.001811  0  0  -0.158219  0  4.022088  0  0  -0.081068  -0.148467  0  3.987958  0
C  C71  1  0.10009701  0.68797057  0.51813207  1  0  -0.128782  0  3.743678  0  0  -0.152369  0  4.001787  0  0  -0.158221  0  4.022068  0  0  -0.081066  -0.148468  0  3.987936  0
C  C72  1  0.49522044  0.62519442  0.80119952  1  0  -0.120474  0  3.726097  0  0  -0.098215  0  3.967606  0  0  -0.109084  0  3.989355  0  0  -0.009776  -0.09106  0  3.953165  0
C  C73  1  0.00477960  0.37481150  0.30120062  1  0  -0.120555  0  3.726092  0  0  -0.098289  0  3.96766  0  0  -0.10916  0  3.989411  0  0  -0.009728  -0.091132  0  3.953218  0
C  C74  1  0.50477755  0.37480809  0.19879970  1  0  -0.120496  0  3.726112  0  0  -0.098262  0  3.967676  0  0  -0.109134  0  3.989426  0  0  -0.009785  -0.091108  0  3.953236  0
C  C75  1  0.99521972  0.62519495  0.69880120  1  0  -0.120586  0  3.726248  0  0  -0.098199  0  3.967625  0  0  -0.109068  0  3.98937  0  0  -0.00978  -0.091044  0  3.953183  0
C  C76  1  0.49811925  0.60468356  0.67152709  1  0  0.679944  0  3.902649  0  0  0.628079  0  4.194927  0  0  0.66323  0  4.18633  0  0  0.230677  0.604164  0  4.200644  0
C  C77  1  0.00187820  0.39531706  0.17152563  1  0  0.680076  0  3.902458  0  0  0.628136  0  4.194814  0  0  0.663288  0  4.186217  0  0  0.230666  0.60422  0  4.200531  0
C  C78  1  0.50188077  0.39531991  0.32847299  1  0  0.679934  0  3.902806  0  0  0.628037  0  4.19512  0  0  0.66319  0  4.186521  0  0  0.230647  0.604122  0  4.200836  0
C  C79  1  0.99811943  0.60468150  0.82847358  1  0  0.679965  0  3.902763  0  0  0.628023  0  4.19507  0  0  0.663174  0  4.186473  0  0  0.230632  0.604107  0  4.200788  0
C  C80  1  0.46613161  0.69878693  0.16493489  1  0  0.626821  0  3.925784  0  0  0.574274  0  4.225019  0  0  0.607411  0  4.217501  0  0  0.223017  0.551656  0  4.229634  0
C  C81  1  0.03386847  0.30121068  0.66493431  1  0  0.626727  0  3.925832  0  0  0.57415  0  4.22512  0  0  0.607286  0  4.217603  0  0  0.22296  0.551531  0  4.229735  0
C  C82  1  0.53386893  0.30121159  0.83506520  1  0  0.626854  0  3.925643  0  0  0.574273  0  4.224945  0  0  0.607412  0  4.217419  0  0  0.22299  0.551655  0  4.229559  0
C  C83  1  0.96613040  0.69879083  0.33506490  1  0  0.626812  0  3.925804  0  0  0.574289  0  4.225031  0  0  0.607429  0  4.217506  0  0  0.223046  0.551671  0  4.229645  0
S  S84  1  0.23819025  0.01052225  0.95448385  1  0  0.735487  0  3.589893  0  0  0.714267  0  4.025424  0  0  0.730874  0  4.021615  0  0  0.313121  0.701961  0  4.028193  0
S  S85  1  0.26181424  0.98947715  0.45448137  1  0  0.735446  0  3.589911  0  0  0.714222  0  4.025449  0  0  0.730827  0  4.021644  0  0  0.313104  0.701917  0  4.028216  0
S  S86  1  0.76181328  0.98947723  0.04551798  1  0  0.735474  0  3.589972  0  0  0.714249  0  4.025506  0  0  0.730854  0  4.021704  0  0  0.31313  0.701942  0  4.028274  0
S  S87  1  0.73818735  0.01052235  0.54551785  1  0  0.735485  0  3.589885  0  0  0.714254  0  4.025412  0  0  0.730862  0  4.021603  0  0  0.313115  0.70195  0  4.028175  0
N  N88  1  0.36846287  0.63352401  0.97737002  1  0  -0.370479  0  3.159319  0  0  -0.320048  0  3.421875  0  0  -0.333949  0  3.439667  0  0  -0.337685  -0.309819  0  3.408852  0
N  N89  1  0.13153488  0.36647554  0.47737038  1  0  -0.370448  0  3.159292  0  0  -0.320002  0  3.421821  0  0  -0.333906  0  3.439615  0  0  -0.337646  -0.309774  0  3.408799  0
N  N90  1  0.63153370  0.36647357  0.02263006  1  0  -0.370464  0  3.159371  0  0  -0.320031  0  3.421899  0  0  -0.333932  0  3.439689  0  0  -0.337652  -0.309803  0  3.408875  0
N  N91  1  0.86846584  0.63352496  0.52263058  1  0  -0.370476  0  3.159217  0  0  -0.320026  0  3.421765  0  0  -0.333927  0  3.439554  0  0  -0.337662  -0.309798  0  3.408742  0
O  O92  1  0.20888356  0.90597072  0.04785291  1  0  -0.713328  0  1.908896  0  0  -0.645852  0  2.174658  0  0  -0.669911  0  2.165623  0  0  -0.407671  -0.628293  0  2.180573  0
O  O93  1  0.29111739  0.09402752  0.54785215  1  0  -0.713273  0  1.908869  0  0  -0.645801  0  2.174634  0  0  -0.669861  0  2.165602  0  0  -0.407643  -0.628242  0  2.180549  0
O  O94  1  0.79111697  0.09402780  0.95214718  1  0  -0.713305  0  1.908878  0  0  -0.64584  0  2.174648  0  0  -0.669899  0  2.165617  0  0  -0.407657  -0.62828  0  2.180564  0
O  O95  1  0.70888324  0.90597199  0.45214706  1  0  -0.713295  0  1.908864  0  0  -0.645823  0  2.174627  0  0  -0.669882  0  2.165593  0  0  -0.407647  -0.628264  0  2.180542  0
O  O96  1  0.39787369  0.54338836  0.62449136  1  0  -0.717254  0  1.99336  0  0  -0.651219  0  2.238663  0  0  -0.678822  0  2.226541  0  0  -0.368065  -0.631794  0  2.246183  0
O  O97  1  0.10212650  0.45661111  0.12449188  1  0  -0.717401  0  1.993225  0  0  -0.651291  0  2.238522  0  0  -0.678897  0  2.2264  0  0  -0.368125  -0.631866  0  2.246043  0
O  O98  1  0.60212624  0.45661413  0.37550960  1  0  -0.717188  0  1.993491  0  0  -0.651119  0  2.238802  0  0  -0.678722  0  2.226678  0  0  -0.368006  -0.631691  0  2.246324  0
O  O99  1  0.89787297  0.54338644  0.87551082  1  0  -0.717213  0  1.993404  0  0  -0.651133  0  2.238715  0  0  -0.678739  0  2.226593  0  0  -0.367995  -0.631709  0  2.246236  0
O  O100  1  0.59771196  0.65216855  0.61719557  1  0  -0.671021  0  1.989154  0  0  -0.614233  0  2.236411  0  0  -0.640682  0  2.226844  0  0  -0.340496  -0.595605  0  2.242278  0
O  O101  1  0.90228870  0.34783026  0.11719356  1  0  -0.671002  0  1.989237  0  0  -0.614176  0  2.236508  0  0  -0.640626  0  2.22694  0  0  -0.340428  -0.595557  0  2.242393  0
O  O102  1  0.40228867  0.34783097  0.38280190  1  0  -0.671051  0  1.98925  0  0  -0.614244  0  2.236503  0  0  -0.640695  0  2.226938  0  0  -0.340509  -0.595622  0  2.242383  0
O  O103  1  0.09771078  0.65216730  0.88280217  1  0  -0.670999  0  1.989243  0  0  -0.614197  0  2.236525  0  0  -0.640645  0  2.226957  0  0  -0.340473  -0.595575  0  2.242405  0
O  O104  1  0.57052703  0.72543736  0.22100088  1  0  -0.660334  0  1.95837  0  0  -0.601475  0  2.199749  0  0  -0.627222  0  2.191184  0  0  -0.353797  -0.583145  0  2.205573  0
O  O105  1  0.92947079  0.27456080  0.72100154  1  0  -0.660325  0  1.958319  0  0  -0.601453  0  2.19971  0  0  -0.627203  0  2.191148  0  0  -0.353816  -0.583126  0  2.205539  0
O  O106  1  0.42947244  0.27456019  0.77899746  1  0  -0.660384  0  1.958276  0  0  -0.601501  0  2.199657  0  0  -0.627257  0  2.191097  0  0  -0.353809  -0.583168  0  2.205471  0
O  O107  1  0.07052711  0.72544073  0.27899680  1  0  -0.660398  0  1.958393  0  0  -0.601552  0  2.199776  0  0  -0.627306  0  2.191213  0  0  -0.353857  -0.583223  0  2.2056  0
O  O108  1  0.35115400  0.69173240  0.20750014  1  0  -0.672844  0  1.986668  0  0  -0.611243  0  2.223312  0  0  -0.637661  0  2.212692  0  0  -0.337134  -0.592635  0  2.230564  0
O  O109  1  0.14884351  0.30826833  0.70750057  1  0  -0.672763  0  1.986737  0  0  -0.611144  0  2.223378  0  0  -0.637561  0  2.212756  0  0  -0.337061  -0.592541  0  2.230638  0
O  O110  1  0.64884548  0.30826515  0.79249908  1  0  -0.672821  0  1.986624  0  0  -0.6112  0  2.223271  0  0  -0.637616  0  2.212646  0  0  -0.337089  -0.592596  0  2.230531  0
O  O111  1  0.85115642  0.69173415  0.29249864  1  0  -0.672747  0  1.986716  0  0  -0.611143  0  2.223319  0  0  -0.637558  0  2.212695  0  0  -0.337071  -0.592539  0  2.230579  0
O  O112  1  0.92082194  0.70404630  0.06636226  1  0  -0.891958  0  1.856057  0  0  -0.837177  0  2.037812  0  0  -0.857974  0  2.006224  0  0  -0.627387  -0.82173  0  2.060071  0
O  O113  1  0.57917356  0.29596033  0.56636085  1  0  -0.891988  0  1.855999  0  0  -0.837188  0  2.037739  0  0  -0.857996  0  2.00616  0  0  -0.627351  -0.821749  0  2.060024  0
O  O114  1  0.07917491  0.29595425  0.93363783  1  0  -0.891923  0  1.856065  0  0  -0.837137  0  2.03783  0  0  -0.857935  0  2.006239  0  0  -0.627382  -0.821691  0  2.060092  0
O  O115  1  0.42082568  0.70404513  0.43363749  1  0  -0.891939  0  1.856048  0  0  -0.837151  0  2.037792  0  0  -0.85795  0  2.006202  0  0  -0.627377  -0.821707  0  2.060059  0
