# generated using pymatgen
data_ZnH18C22(NO)4
_symmetry_space_group_name_H-M   'P 1'
_cell_length_a   10.95563491
_cell_length_b   14.36979428
_cell_length_c   18.65652968
_cell_angle_alpha   90.00021765
_cell_angle_beta   90.00031745
_cell_angle_gamma   89.99968623
_symmetry_Int_Tables_number   1
_chemical_formula_structural   ZnH18C22(NO)4
_chemical_formula_sum   'Zn4 H72 C88 N16 O16'
_cell_volume   2937.10156871
_cell_formula_units_Z   4
loop_
 _symmetry_equiv_pos_site_id
 _symmetry_equiv_pos_as_xyz
  1  'x, y, z'
loop_
 _atom_site_type_symbol
 _atom_site_label
 _atom_site_symmetry_multiplicity
 _atom_site_fract_x
 _atom_site_fract_y
 _atom_site_fract_z
 _atom_site_occupancy
 _atom_site_pbe_bader_charge
 _atom_site_pbe_bader_spin_density
 _atom_site_pbe_cm5_charge
 _atom_site_pbe_ddec_charge
 _atom_site_pbe_ddec_spin_density
 _atom_site_pbe_ddec_sum_bond_order
 _atom_site_pbe_magmom
Zn  Zn0  1  0.53631974  0.95283476  0.99760634  1  1.254382  0  0.691902  0.776011  0  2.429423  0
Zn  Zn1  1  0.46368119  0.45283227  0.00239575  1  1.254422  0  0.691891  0.775991  0  2.429502  0
Zn  Zn2  1  0.96368649  0.95282640  0.49760730  1  1.254357  0  0.691905  0.775943  0  2.429523  0
Zn  Zn3  1  0.03631900  0.45283576  0.50239373  1  1.254203  0  0.691868  0.776001  0  2.429417  0
H  H4  1  0.71641136  0.08938906  0.09507203  1  0.116354  0  0.117451  0.11179  0  1.000551  0
H  H5  1  0.28358586  0.58939004  0.90492954  1  0.116411  0  0.117472  0.111873  0  1.000437  0
H  H6  1  0.78358099  0.08939502  0.59506545  1  0.116499  0  0.117486  0.11184  0  1.000385  0
H  H7  1  0.21642171  0.58938408  0.40492486  1  0.116213  0  0.117472  0.111805  0  1.000549  0
H  H8  1  0.71155718  0.18435300  0.15581872  1  0.086372  0  0.121261  0.109081  0  0.95052  0
H  H9  1  0.28843934  0.68435645  0.84418473  1  0.085938  0  0.121247  0.109064  0  0.950591  0
H  H10  1  0.78844417  0.18435825  0.65581376  1  0.086501  0  0.121244  0.109107  0  0.950468  0
H  H11  1  0.21156147  0.68434911  0.34417790  1  0.086374  0  0.121268  0.109095  0  0.950491  0
H  H12  1  0.57740729  0.31993899  0.12220098  1  0.18379  0  0.140484  0.119932  0  0.997836  0
H  H13  1  0.42258641  0.81993509  0.87779805  1  0.183689  0  0.140462  0.119896  0  0.997806  0
H  H14  1  0.92258545  0.31994090  0.62219914  1  0.183818  0  0.140435  0.119874  0  0.99785  0
H  H15  1  0.07741464  0.81993457  0.37779667  1  0.183686  0  0.140466  0.119938  0  0.997768  0
H  H16  1  0.54474297  0.28424107  0.89882655  1  0.136832  0  0.123433  0.120662  0  0.996645  0
H  H17  1  0.45526650  0.78424994  0.10117237  1  0.136644  0  0.123463  0.1207  0  0.99649  0
H  H18  1  0.95527090  0.28424875  0.39882480  1  0.136813  0  0.123517  0.120872  0  0.996351  0
H  H19  1  0.04474953  0.78423460  0.60117037  1  0.137074  0  0.123435  0.120592  0  0.996632  0
H  H20  1  0.69197301  0.14171138  0.95400458  1  0.165376  0  0.124263  0.134076  0  1.030647  0
H  H21  1  0.30803112  0.64171918  0.04600089  1  0.1655  0  0.124238  0.134031  0  1.030668  0
H  H22  1  0.80803604  0.14171897  0.45399646  1  0.1655  0  0.124209  0.134034  0  1.030552  0
H  H23  1  0.19198270  0.64170325  0.54599294  1  0.165424  0  0.124261  0.134095  0  1.030564  0
H  H24  1  0.71023100  0.91497103  0.74270654  1  0.126655  0  0.104896  0.114334  0  1.009025  0
H  H25  1  0.28977021  0.41496910  0.25729706  1  0.126635  0  0.104872  0.114358  0  1.009002  0
H  H26  1  0.78978131  0.91497868  0.24269889  1  0.126551  0  0.104878  0.114336  0  1.008977  0
H  H27  1  0.21022538  0.41497327  0.75730096  1  0.1266  0  0.104863  0.114332  0  1.008974  0
H  H28  1  0.06729099  0.03250242  0.71174882  1  0.090881  0  0.100741  0.102907  0  1.005573  0
H  H29  1  0.93270756  0.53250539  0.28824883  1  0.090902  0  0.100762  0.10294  0  1.005534  0
H  H30  1  0.43271063  0.03250324  0.21175289  1  0.091478  0  0.100752  0.10293  0  1.005625  0
H  H31  1  0.56729340  0.53250110  0.78825173  1  0.090844  0  0.100756  0.102996  0  1.00558  0
H  H32  1  0.07041491  0.08432045  0.83992922  1  0.068384  0  0.094316  0.087998  0  1.027994  0
H  H33  1  0.92959147  0.58432559  0.16006911  1  0.068438  0  0.094312  0.088035  0  1.02786  0
H  H34  1  0.42959484  0.08431780  0.33993274  1  0.068539  0  0.094315  0.088086  0  1.027849  0
H  H35  1  0.57040698  0.58431850  0.66007363  1  0.068542  0  0.094349  0.088036  0  1.027969  0
H  H36  1  0.89012325  0.05329139  0.91787962  1  0.086613  0  0.097884  0.094452  0  1.048857  0
H  H37  1  0.10988701  0.55329322  0.08212184  1  0.086659  0  0.097836  0.094407  0  1.048788  0
H  H38  1  0.60989341  0.05328865  0.41787782  1  0.086683  0  0.097822  0.094364  0  1.04874  0
H  H39  1  0.39011229  0.55329178  0.58212579  1  0.086752  0  0.097829  0.094381  0  1.048781  0
H  H40  1  0.38357881  0.10921530  0.07425361  1  0.15449  0  0.140174  0.112563  0  0.989557  0
H  H41  1  0.61641278  0.60921224  0.92574963  1  0.154561  0  0.140188  0.112578  0  0.989537  0
H  H42  1  0.11641181  0.10921081  0.57425613  1  0.154403  0  0.140137  0.112516  0  0.989666  0
H  H43  1  0.88358617  0.60921534  0.42574550  1  0.154436  0  0.140182  0.112566  0  0.989641  0
H  H44  1  0.26227570  0.20768725  0.87288118  1  0.15615  0  0.132038  0.144672  0  0.988852  0
H  H45  1  0.73771973  0.70768326  0.12711805  1  0.156212  0  0.132052  0.144682  0  0.988927  0
H  H46  1  0.23771520  0.20768399  0.37288837  1  0.156374  0  0.132082  0.14472  0  0.988769  0
H  H47  1  0.76227841  0.70768792  0.62711408  1  0.156764  0  0.132031  0.144709  0  0.988749  0
H  H48  1  0.40168849  0.04475488  0.85432627  1  0.117649  0  0.121489  0.125431  0  0.998756  0
H  H49  1  0.59832001  0.54474737  0.14567731  1  0.117687  0  0.121456  0.125368  0  0.998712  0
H  H50  1  0.09832260  0.04474522  0.35432925  1  0.117586  0  0.121493  0.125367  0  0.998765  0
H  H51  1  0.90167585  0.54475007  0.64567272  1  0.117839  0  0.121517  0.125429  0  0.998698  0
H  H52  1  0.23530158  0.31326668  0.98185654  1  0.155498  0  0.121557  0.128747  0  0.992081  0
H  H53  1  0.76468486  0.81326413  0.01814032  1  0.155628  0  0.12153  0.128649  0  0.992096  0
H  H54  1  0.26467497  0.31327166  0.48186221  1  0.155586  0  0.121583  0.128714  0  0.992028  0
H  H55  1  0.73531147  0.81327029  0.51813787  1  0.155573  0  0.121551  0.128637  0  0.992102  0
H  H56  1  0.28949325  0.27479056  0.06573818  1  0.086663  0  0.117672  0.107626  0  0.972379  0
H  H57  1  0.71048983  0.77478438  0.93426018  1  0.086926  0  0.117643  0.107564  0  0.972249  0
H  H58  1  0.21048695  0.27478638  0.56574315  1  0.086931  0  0.117597  0.10747  0  0.972488  0
H  H59  1  0.78950160  0.77478647  0.43426003  1  0.086739  0  0.11767  0.107578  0  0.972419  0
H  H60  1  0.06863676  0.36572832  0.07802373  1  0.079337  0  0.099219  0.104312  0  1.031489  0
H  H61  1  0.93134382  0.86572675  0.92197596  1  0.079555  0  0.099209  0.104291  0  1.031511  0
H  H62  1  0.43134836  0.36573507  0.57802246  1  0.079514  0  0.099165  0.104263  0  1.031499  0
H  H63  1  0.56864043  0.86572974  0.42197456  1  0.079325  0  0.099202  0.104276  0  1.031501  0
H  H64  1  0.85762649  0.32932823  0.11532611  1  0.059691  0  0.1  0.097765  0  1.003963  0
H  H65  1  0.14235618  0.82933039  0.88467884  1  0.059253  0  0.100021  0.097792  0  1.004034  0
H  H66  1  0.64236337  0.32934034  0.61531478  1  0.059452  0  0.099979  0.097792  0  1.004018  0
H  H67  1  0.35763025  0.82932802  0.38467355  1  0.059529  0  0.100026  0.097847  0  1.00402  0
H  H68  1  0.90656641  0.04515132  0.04775533  1  0.066619  0  0.106271  0.113029  0  0.993913  0
H  H69  1  0.09343113  0.54515609  0.95224611  1  0.066558  0  0.106314  0.113088  0  0.993943  0
H  H70  1  0.59342764  0.04516362  0.54775563  1  0.066754  0  0.106301  0.113052  0  0.994046  0
H  H71  1  0.40657538  0.54515283  0.45224205  1  0.066664  0  0.10625  0.112994  0  0.993969  0
H  H72  1  0.11876968  0.08145328  0.01036451  1  0.059789  0  0.100287  0.101167  0  1.018999  0
H  H73  1  0.88122759  0.58145224  0.98963649  1  0.059736  0  0.10028  0.101175  0  1.019003  0
H  H74  1  0.38122420  0.08145954  0.51036843  1  0.059196  0  0.10031  0.101193  0  1.019001  0
H  H75  1  0.61877855  0.58145642  0.48963043  1  0.059074  0  0.100273  0.101155  0  1.019055  0
C  C76  1  0.88528920  0.94077037  0.64212438  1  1.565153  0  0.19492  0.560187  0  4.25107  0
C  C77  1  0.11470725  0.44077244  0.35787661  1  1.564454  0  0.195069  0.560491  0  4.250831  0
C  C78  1  0.61470280  0.94077875  0.14212420  1  1.563756  0  0.194952  0.560387  0  4.2505  0
C  C79  1  0.38529183  0.44077520  0.85787840  1  1.564245  0  0.195026  0.560469  0  4.250791  0
C  C80  1  0.73605124  0.16371369  0.10099342  1  0.273721  0  -0.042061  -0.11134  0  3.890287  0
C  C81  1  0.26394361  0.66371890  0.89900890  1  0.274316  0  -0.042085  -0.111493  0  3.890347  0
C  C82  1  0.76394245  0.16372251  0.60098785  1  0.273814  0  -0.042113  -0.111649  0  3.890547  0
C  C83  1  0.23605605  0.66371146  0.39900429  1  0.274076  0  -0.042099  -0.111415  0  3.890419  0
C  C84  1  0.58949589  0.29171365  0.06873335  1  0.957711  0  0.141513  0.074887  0  3.926787  0
C  C85  1  0.41050075  0.79171355  0.93126720  1  0.957819  0  0.14159  0.074991  0  3.926662  0
C  C86  1  0.91049928  0.29171701  0.56873094  1  0.957732  0  0.141685  0.075046  0  3.926578  0
C  C87  1  0.08950375  0.79171019  0.43126533  1  0.958162  0  0.141467  0.074863  0  3.926661  0
C  C88  1  0.57563240  0.27100087  0.95301030  1  0.401409  0  4.8e-05  -0.028564  0  3.99596  0
C  C89  1  0.42437534  0.77100611  0.04699020  1  0.401489  0  7e-06  -0.028571  0  3.995908  0
C  C90  1  0.92437660  0.27100520  0.45300630  1  0.401263  0  7.2e-05  -0.028549  0  3.99547  0
C  C91  1  0.07563936  0.77099483  0.54698669  1  0.401103  0  5.1e-05  -0.028369  0  3.995949  0
C  C92  1  0.64819635  0.20099631  0.97909662  1  0.280501  0  0.003345  -0.097339  0  3.899143  0
C  C93  1  0.35180734  0.70100450  0.02090581  1  0.280539  0  0.003354  -0.097354  0  3.899143  0
C  C94  1  0.85180976  0.20100580  0.47909507  1  0.280552  0  0.003362  -0.097473  0  3.899244  0
C  C95  1  0.14820216  0.70099222  0.52090200  1  0.280253  0  0.003311  -0.097407  0  3.899226  0
C  C96  1  0.68040117  0.96200759  0.88155661  1  1.536072  0  0.19395  0.554226  0  4.231053  0
C  C97  1  0.31960151  0.46200277  0.11844552  1  1.536541  0  0.193942  0.554247  0  4.231163  0
C  C98  1  0.81960754  0.96200469  0.38155227  1  1.536537  0  0.193871  0.554179  0  4.231163  0
C  C99  1  0.18039606  0.46200498  0.61844771  1  1.536519  0  0.193855  0.554155  0  4.231305  0
C  C100  1  0.78879715  0.98248493  0.83508354  1  -0.069777  0  -0.024192  -0.041248  0  3.990701  0
C  C101  1  0.21120630  0.48248496  0.16491918  1  -0.069975  0  -0.024183  -0.041249  0  3.990722  0
C  C102  1  0.71121462  0.98248804  0.33507778  1  -0.069835  0  -0.024271  -0.041405  0  3.991038  0
C  C103  1  0.28879248  0.48248533  0.66492173  1  -0.069997  0  -0.024178  -0.041458  0  3.991082  0
C  C104  1  0.78893384  0.95238481  0.76378942  1  -0.022122  0  -0.07696  -0.102427  0  3.926732  0
C  C105  1  0.21106527  0.45238311  0.23621321  1  -0.021928  0  -0.076923  -0.102443  0  3.926724  0
C  C106  1  0.71107657  0.95239210  0.26378312  1  -0.022215  0  -0.076955  -0.102496  0  3.926812  0
C  C107  1  0.28892984  0.45238557  0.73621469  1  -0.022  0  -0.076928  -0.102385  0  3.926814  0
C  C108  1  0.88875434  0.97070766  0.71934887  1  -0.002125  0  -0.022993  -0.040049  0  3.989463  0
C  C109  1  0.11124372  0.47070657  0.28065221  1  -0.002157  0  -0.023093  -0.040226  0  3.989635  0
C  C110  1  0.61124821  0.97071465  0.21934707  1  -0.001751  0  -0.022988  -0.039902  0  3.989457  0
C  C111  1  0.38875442  0.47070793  0.78065347  1  -0.002142  0  -0.023024  -0.039966  0  3.989412  0
C  C112  1  0.98996434  0.01874678  0.74695727  1  -0.10974  0  -0.086022  -0.092751  0  3.976865  0
C  C113  1  0.01003887  0.51875055  0.25304302  1  -0.109806  0  -0.086018  -0.092729  0  3.976963  0
C  C114  1  0.51004000  0.01875140  0.24695782  1  -0.110312  0  -0.085994  -0.092809  0  3.977185  0
C  C115  1  0.48996321  0.51874593  0.75304622  1  -0.109861  0  -0.086037  -0.092887  0  3.97695  0
C  C116  1  0.99113384  0.04782322  0.81833715  1  -0.01644  0  -0.098627  -0.092026  0  4.037966  0
C  C117  1  0.00887099  0.54782316  0.18166376  1  -0.016221  0  -0.098596  -0.092122  0  4.037979  0
C  C118  1  0.50887736  0.04782159  0.31833823  1  -0.016391  0  -0.098579  -0.092232  0  4.038046  0
C  C119  1  0.49112747  0.54782132  0.68166750  1  -0.015997  0  -0.09863  -0.092171  0  4.038043  0
C  C120  1  0.89053291  0.03032642  0.86222401  1  -0.073225  0  -0.087528  -0.096847  0  3.977935  0
C  C121  1  0.10947204  0.53032991  0.13777846  1  -0.073395  0  -0.087469  -0.096665  0  3.977847  0
C  C122  1  0.60947974  0.03032994  0.36222167  1  -0.073243  0  -0.087402  -0.096449  0  3.977675  0
C  C123  1  0.39052704  0.53032708  0.63778133  1  -0.073535  0  -0.08745  -0.096508  0  3.977826  0
C  C124  1  0.36829507  0.11208440  0.01687100  1  0.977235  0  0.143633  0.090204  0  3.919739  0
C  C125  1  0.63170106  0.61208087  0.98313171  1  0.977568  0  0.143625  0.090126  0  3.919744  0
C  C126  1  0.13169864  0.11208194  0.51687142  1  0.977731  0  0.143631  0.090103  0  3.92005  0
C  C127  1  0.86830114  0.61208473  0.48312807  1  0.977736  0  0.143604  0.090127  0  3.919924  0
C  C128  1  0.30466246  0.16040962  0.91067331  1  0.265058  0  0.007716  -0.102572  0  3.913892  0
C  C129  1  0.69533606  0.66040979  0.08932632  1  0.26471  0  0.007682  -0.102637  0  3.91403  0
C  C130  1  0.19533006  0.16041000  0.41067929  1  0.265799  0  0.007594  -0.102767  0  3.914031  0
C  C131  1  0.80466116  0.66041010  0.58932249  1  0.264392  0  0.007734  -0.102713  0  3.913961  0
C  C132  1  0.37403797  0.08133943  0.90246546  1  0.423558  0  -0.003954  -0.044246  0  4.009971  0
C  C133  1  0.62596843  0.58133505  0.09753716  1  0.423761  0  -0.003912  -0.044171  0  4.009958  0
C  C134  1  0.12596783  0.08133175  0.40246906  1  0.422914  0  -0.003984  -0.044245  0  4.010008  0
C  C135  1  0.87403036  0.58133856  0.59753301  1  0.423517  0  -0.00409  -0.044309  0  4.009938  0
C  C136  1  0.23600008  0.25345065  0.01862265  1  0.256575  0  -0.043891  -0.123921  0  3.886665  0
C  C137  1  0.76399775  0.75344797  0.98137671  1  0.256368  0  -0.043848  -0.123745  0  3.886313  0
C  C138  1  0.26399078  0.25345252  0.51862941  1  0.256806  0  -0.043905  -0.123795  0  3.886375  0
C  C139  1  0.73600066  0.75345097  0.48137318  1  0.257015  0  -0.043959  -0.123814  0  3.886497  0
C  C140  1  0.10800588  0.22641579  0.04094060  1  -0.002022  0  -0.01091  0.094991  0  3.970268  0
C  C141  1  0.89198576  0.72641108  0.95905601  1  -0.002356  0  -0.010887  0.09497  0  3.970225  0
C  C142  1  0.39198174  0.22641783  0.54094616  1  -0.002746  0  -0.010756  0.095075  0  3.970087  0
C  C143  1  0.60801720  0.72641599  0.45905527  1  -0.002331  0  -0.010872  0.095  0  3.969891  0
C  C144  1  0.03327345  0.29531610  0.07117182  1  -0.041858  0  -0.092048  -0.125311  0  3.972826  0
C  C145  1  0.96671312  0.79531441  0.92882607  1  -0.041966  0  -0.091935  -0.125108  0  3.972577  0
C  C146  1  0.46671578  0.29532062  0.57117172  1  -0.041072  0  -0.091899  -0.125037  0  3.972477  0
C  C147  1  0.53327718  0.79531755  0.42882455  1  -0.041206  0  -0.092  -0.125133  0  3.972606  0
C  C148  1  0.91480355  0.27449916  0.09250462  1  -0.064354  0  -0.091956  -0.127524  0  4.001291  0
C  C149  1  0.08518774  0.77450236  0.90749642  1  -0.063707  0  -0.092137  -0.127762  0  4.001185  0
C  C150  1  0.58519015  0.27451150  0.59250168  1  -0.065036  0  -0.092052  -0.127709  0  4.001126  0
C  C151  1  0.41480753  0.77450185  0.40749185  1  -0.064663  0  -0.092003  -0.127767  0  4.001411  0
C  C152  1  0.86785449  0.18442836  0.08376967  1  0.0134  0  -0.018419  0.076428  0  4.002247  0
C  C153  1  0.13214294  0.68443349  0.91623271  1  0.013365  0  -0.01844  0.076467  0  4.002346  0
C  C154  1  0.63214071  0.18444329  0.58376528  1  0.013708  0  -0.018423  0.076412  0  4.002543  0
C  C155  1  0.36786037  0.68442900  0.41622799  1  0.013301  0  -0.018414  0.076544  0  4.002214  0
C  C156  1  0.94269189  0.11544872  0.05468390  1  -0.076311  0  -0.089888  -0.128337  0  3.994508  0
C  C157  1  0.05730879  0.61544943  0.94531400  1  -0.076353  0  -0.089854  -0.128349  0  3.994555  0
C  C158  1  0.55730627  0.11545769  0.55468730  1  -0.076554  0  -0.089818  -0.128188  0  3.994483  0
C  C159  1  0.44269714  0.61544881  0.44531113  1  -0.076451  0  -0.089799  -0.128231  0  3.994339  0
C  C160  1  0.06208734  0.13620441  0.03346687  1  -0.063818  0  -0.098497  -0.145232  0  4.009055  0
C  C161  1  0.93791409  0.63620094  0.96653484  1  -0.06389  0  -0.098545  -0.145305  0  4.008914  0
C  C162  1  0.43791092  0.13620835  0.53346775  1  -0.063222  0  -0.098677  -0.145465  0  4.0089  0
C  C163  1  0.56209326  0.63620605  0.46653234  1  -0.063035  0  -0.098588  -0.145359  0  4.008764  0
N  N164  1  0.53951572  0.32691453  0.00942272  1  -1.246808  0  -0.364614  -0.292344  0  3.650526  0
N  N165  1  0.46048613  0.82691591  0.99057579  1  -1.246896  0  -0.364655  -0.292484  0  3.650652  0
N  N166  1  0.96048867  0.32691629  0.50942154  1  -1.247056  0  -0.364739  -0.292665  0  3.650508  0
N  N167  1  0.03951866  0.82690858  0.49057590  1  -1.246544  0  -0.364583  -0.292431  0  3.650581  0
N  N168  1  0.65567209  0.21516263  0.05226298  1  -1.226821  0  -0.237861  0.0484  0  3.788379  0
N  N169  1  0.34432511  0.71516287  0.94774057  1  -1.22687  0  -0.237825  0.048536  0  3.788237  0
N  N170  1  0.84432806  0.21516695  0.55225713  1  -1.226827  0  -0.237923  0.04866  0  3.788407  0
N  N171  1  0.15567736  0.71515646  0.44773516  1  -1.227228  0  -0.237775  0.048419  0  3.788574  0
N  N172  1  0.41316347  0.05206631  0.96917778  1  -1.236254  0  -0.360263  -0.293543  0  3.619214  0
N  N173  1  0.58684133  0.55206106  0.03082636  1  -1.236359  0  -0.360317  -0.293593  0  3.619117  0
N  N174  1  0.08683953  0.05206018  0.46917965  1  -1.236345  0  -0.360268  -0.293445  0  3.619186  0
N  N175  1  0.91315613  0.55206302  0.53082234  1  -1.236274  0  -0.360228  -0.293493  0  3.61926  0
N  N176  1  0.30247026  0.17874966  0.98335834  1  -1.225469  0  -0.240909  0.052711  0  3.807222  0
N  N177  1  0.69752448  0.67874877  0.01663974  1  -1.225763  0  -0.240818  0.052895  0  3.807189  0
N  N178  1  0.19752099  0.17875143  0.48336647  1  -1.226318  0  -0.240708  0.053055  0  3.807087  0
N  N179  1  0.80247283  0.67875187  0.51663697  1  -1.226379  0  -0.240754  0.052952  0  3.807071  0
O  O180  1  0.58521546  0.92747487  0.85545294  1  -1.185915  0  -0.333942  -0.565132  0  2.115139  0
O  O181  1  0.41478748  0.42747188  0.14454908  1  -1.186045  0  -0.333982  -0.565172  0  2.115148  0
O  O182  1  0.91479052  0.92747297  0.35544998  1  -1.186223  0  -0.333912  -0.565058  0  2.115077  0
O  O183  1  0.08521424  0.42747308  0.64454990  1  -1.186067  0  -0.333909  -0.565049  0  2.11524  0
O  O184  1  0.96267369  0.98432885  0.60103440  1  -1.189648  0  -0.345463  -0.579  0  2.33768  0
O  O185  1  0.03733158  0.48433978  0.39896725  1  -1.188897  0  -0.345501  -0.57914  0  2.337761  0
O  O186  1  0.53732856  0.98434380  0.10103075  1  -1.189202  0  -0.345473  -0.579093  0  2.337585  0
O  O187  1  0.46266392  0.48433944  0.89897197  1  -1.189069  0  -0.345487  -0.579178  0  2.33786  0
O  O188  1  0.81121968  0.88034303  0.62139685  1  -1.183688  0  -0.330962  -0.562498  0  2.121505  0
O  O189  1  0.18877813  0.38034141  0.37860290  1  -1.183635  0  -0.330992  -0.562609  0  2.121413  0
O  O190  1  0.68877713  0.88034901  0.12138994  1  -1.183043  0  -0.330974  -0.562657  0  2.121171  0
O  O191  1  0.31122342  0.38034308  0.87860819  1  -1.183394  0  -0.330975  -0.562633  0  2.121354  0
O  O192  1  0.69312547  0.98180203  0.94946639  1  -1.165542  0  -0.338551  -0.566296  0  2.317467  0
O  O193  1  0.30687890  0.48180598  0.05053633  1  -1.165968  0  -0.338509  -0.566312  0  2.317552  0
O  O194  1  0.80688465  0.98179988  0.44946201  1  -1.165796  0  -0.338524  -0.566325  0  2.317415  0
O  O195  1  0.19312428  0.48180465  0.55053803  1  -1.165839  0  -0.338516  -0.566297  0  2.317464  0
