# generated using pymatgen
data_CdH6C6(N4O)2
_symmetry_space_group_name_H-M   'P 1'
_cell_length_a   7.79674895
_cell_length_b   7.68414561
_cell_length_c   18.17080916
_cell_angle_alpha   98.13385302
_cell_angle_beta   89.99995088
_cell_angle_gamma   89.99989419
_symmetry_Int_Tables_number   1
_chemical_formula_structural   CdH6C6(N4O)2
_chemical_formula_sum   'Cd4 H24 C24 N32 O8'
_cell_volume   1077.68634178
_cell_formula_units_Z   4
loop_
 _symmetry_equiv_pos_site_id
 _symmetry_equiv_pos_as_xyz
  1  'x, y, z'
loop_
 _atom_site_type_symbol
 _atom_site_label
 _atom_site_symmetry_multiplicity
 _atom_site_fract_x
 _atom_site_fract_y
 _atom_site_fract_z
 _atom_site_occupancy
 _atom_site_hle17_bader_spin_density
 _atom_site_hle17_ddec_charge
 _atom_site_hle17_ddec_spin_density
 _atom_site_hle17_ddec_sum_bond_order
 _atom_site_hle17_magmom
 _atom_site_hse06_10hf_bader_spin_density
 _atom_site_hse06_10hf_ddec_charge
 _atom_site_hse06_10hf_ddec_spin_density
 _atom_site_hse06_10hf_ddec_sum_bond_order
 _atom_site_hse06_10hf_magmom
 _atom_site_hse06_bader_spin_density
 _atom_site_hse06_ddec_charge
 _atom_site_hse06_ddec_spin_density
 _atom_site_hse06_ddec_sum_bond_order
 _atom_site_hse06_magmom
 _atom_site_pbe_bader_spin_density
 _atom_site_pbe_cm5_charge
 _atom_site_pbe_ddec_charge
 _atom_site_pbe_ddec_spin_density
 _atom_site_pbe_ddec_sum_bond_order
 _atom_site_pbe_magmom
Cd  Cd0  1  0.82303239  0.98046256  0.75843252  1  0  1.06891  0  1.809464  0  0  0.875489  0  2.281276  0  0  0.923302  0  2.236961  0  0  0.791264  0.841725  0  2.311525  0
Cd  Cd1  1  0.32303518  0.01952680  0.74156627  1  0  1.068923  0  1.809406  0  0  0.875527  0  2.281164  0  0  0.923344  0  2.236847  0  0  0.79128  0.841761  0  2.311421  0
Cd  Cd2  1  0.17696581  0.01953852  0.24156695  1  0  1.068887  0  1.809467  0  0  0.875485  0  2.28123  0  0  0.923296  0  2.236914  0  0  0.791253  0.841719  0  2.311467  0
Cd  Cd3  1  0.67696687  0.98046642  0.25843160  1  0  1.06887  0  1.809454  0  0  0.875459  0  2.281228  0  0  0.923271  0  2.236912  0  0  0.791262  0.841691  0  2.31147  0
H  H4  1  0.20444585  0.41319433  0.52294326  1  0  0.124057  0  0.924961  0  0  0.132936  0  0.986252  0  0  0.136469  0  0.983042  0  0  0.117607  0.130346  0  0.988576  0
H  H5  1  0.70444595  0.58680704  0.97705963  1  0  0.124115  0  0.925011  0  0  0.132993  0  0.986289  0  0  0.136528  0  0.983078  0  0  0.117662  0.130399  0  0.988619  0
H  H6  1  0.79555236  0.58680542  0.47705777  1  0  0.12407  0  0.924967  0  0  0.132955  0  0.98625  0  0  0.136487  0  0.983041  0  0  0.117656  0.130361  0  0.988575  0
H  H7  1  0.29555354  0.41319272  0.02294085  1  0  0.124065  0  0.925054  0  0  0.132945  0  0.986336  0  0  0.13646  0  0.983149  0  0  0.117645  0.130349  0  0.988663  0
H  H8  1  0.21562332  0.55242544  0.65780728  1  0  0.121809  0  0.948061  0  0  0.123552  0  1.017153  0  0  0.127018  0  1.015864  0  0  0.112685  0.121035  0  1.018305  0
H  H9  1  0.71562651  0.44757463  0.84219278  1  0  0.121767  0  0.948034  0  0  0.123505  0  1.017137  0  0  0.126969  0  1.015851  0  0  0.112678  0.120988  0  1.018283  0
H  H10  1  0.78437232  0.44757826  0.34219291  1  0  0.121777  0  0.948065  0  0  0.123512  0  1.017167  0  0  0.126977  0  1.015881  0  0  0.112679  0.120995  0  1.01832  0
H  H11  1  0.28437297  0.55242776  0.15780732  1  0  0.121777  0  0.948008  0  0  0.123517  0  1.017112  0  0  0.126983  0  1.015826  0  0  0.112673  0.121  0  1.018258  0
H  H12  1  0.98425649  0.47795323  0.74500537  1  0  0.124381  0  0.955492  0  0  0.130296  0  1.020451  0  0  0.133721  0  1.017093  0  0  0.131558  0.127727  0  1.023015  0
H  H13  1  0.48425830  0.52204496  0.75499722  1  0  0.124485  0  0.955404  0  0  0.130414  0  1.020325  0  0  0.133833  0  1.016982  0  0  0.131598  0.127837  0  1.022901  0
H  H14  1  0.01573786  0.52204783  0.25499575  1  0  0.124418  0  0.955477  0  0  0.130347  0  1.020421  0  0  0.133765  0  1.017081  0  0  0.131589  0.127773  0  1.022988  0
H  H15  1  0.51573862  0.47795741  0.24500398  1  0  0.124452  0  0.955443  0  0  0.130389  0  1.020365  0  0  0.133808  0  1.017023  0  0  0.131589  0.127821  0  1.022931  0
H  H16  1  0.74388628  0.14274998  0.57752208  1  0  0.131082  0  0.90993  0  0  0.140144  0  0.968778  0  0  0.144242  0  0.96434  0  0  0.140215  0.137118  0  0.972163  0
H  H17  1  0.24388327  0.85724606  0.92247991  1  0  0.131156  0  0.909851  0  0  0.140166  0  0.968756  0  0  0.144267  0  0.964313  0  0  0.140211  0.137144  0  0.972141  0
H  H18  1  0.25611577  0.85724712  0.42247989  1  0  0.131089  0  0.909908  0  0  0.140139  0  0.968778  0  0  0.144238  0  0.964337  0  0  0.140202  0.137117  0  0.972167  0
H  H19  1  0.75611750  0.14275499  0.07752176  1  0  0.131084  0  0.909829  0  0  0.140128  0  0.968738  0  0  0.144229  0  0.964295  0  0  0.140203  0.137105  0  0.972121  0
H  H20  1  0.05331687  0.74347604  0.81308860  1  0  0.410499  0  0.90641  0  0  0.373336  0  0.980931  0  0  0.384994  0  0.964294  0  0  0.283334  0.365172  0  0.992542  0
H  H21  1  0.55331817  0.25652174  0.68691027  1  0  0.41052  0  0.906375  0  0  0.373349  0  0.980911  0  0  0.385007  0  0.964275  0  0  0.283359  0.365183  0  0.992527  0
H  H22  1  0.94668261  0.25652502  0.18691251  1  0  0.410521  0  0.906375  0  0  0.373368  0  0.980878  0  0  0.385024  0  0.964244  0  0  0.283354  0.365203  0  0.992492  0
H  H23  1  0.44668132  0.74348592  0.31308962  1  0  0.410488  0  0.906418  0  0  0.373347  0  0.98091  0  0  0.385004  0  0.964274  0  0  0.283345  0.365178  0  0.992531  0
H  H24  1  0.89456104  0.74852903  0.86886070  1  0  0.422863  0  0.824966  0  0  0.404283  0  0.881658  0  0  0.411725  0  0.873543  0  0  0.31627  0.399009  0  0.887435  0
H  H25  1  0.39455975  0.25147197  0.63114155  1  0  0.422867  0  0.825073  0  0  0.40428  0  0.88177  0  0  0.411723  0  0.873654  0  0  0.31627  0.399005  0  0.887549  0
H  H26  1  0.10543973  0.25147332  0.13114160  1  0  0.422864  0  0.825063  0  0  0.404282  0  0.881751  0  0  0.411724  0  0.873637  0  0  0.316289  0.399005  0  0.887532  0
H  H27  1  0.60544102  0.74853569  0.36885833  1  0  0.422904  0  0.825046  0  0  0.404315  0  0.881733  0  0  0.411756  0  0.873622  0  0  0.316306  0.399038  0  0.887508  0
C  C28  1  0.95545658  0.19195745  0.46204239  1  0  0.230484  0  3.832488  0  0  0.217269  0  4.105365  0  0  0.222306  0  4.126019  0  0  0.207038  0.214005  0  4.091408  0
C  C29  1  0.45545569  0.80803904  0.03795662  1  0  0.230501  0  3.832506  0  0  0.217329  0  4.105322  0  0  0.222365  0  4.125977  0  0  0.206985  0.214066  0  4.091366  0
C  C30  1  0.04454291  0.80803969  0.53795683  1  0  0.23046  0  3.832551  0  0  0.217251  0  4.105419  0  0  0.222288  0  4.126074  0  0  0.206983  0.213988  0  4.091462  0
C  C31  1  0.54454636  0.19196204  0.96204284  1  0  0.230368  0  3.832607  0  0  0.217247  0  4.10536  0  0  0.22228  0  4.126018  0  0  0.206981  0.213994  0  4.091389  0
C  C32  1  0.97144129  0.27096070  0.53950894  1  0  0.007187  0  3.797103  0  0  0.026011  0  4.034562  0  0  0.022314  0  4.056846  0  0  0.011529  0.028031  0  4.019754  0
C  C33  1  0.47144230  0.72903497  0.96048910  1  0  0.007157  0  3.797053  0  0  0.025957  0  4.034471  0  0  0.022259  0  4.056755  0  0  0.01154  0.027977  0  4.019668  0
C  C34  1  0.02855948  0.72903380  0.46049122  1  0  0.007194  0  3.797066  0  0  0.026015  0  4.03451  0  0  0.022318  0  4.056793  0  0  0.011537  0.028031  0  4.019705  0
C  C35  1  0.52855975  0.27096220  0.03950902  1  0  0.007135  0  3.797203  0  0  0.025944  0  4.034653  0  0  0.022248  0  4.056933  0  0  0.011506  0.027955  0  4.019853  0
C  C36  1  0.10786071  0.38482540  0.56302026  1  0  -0.060189  0  3.655677  0  0  -0.095256  0  3.910571  0  0  -0.091471  0  3.92586  0  0  -0.066747  -0.09737  0  3.90026  0
C  C37  1  0.60786596  0.61517224  0.93698079  1  0  -0.060293  0  3.65569  0  0  -0.095371  0  3.910588  0  0  -0.091588  0  3.925877  0  0  -0.06682  -0.097481  0  3.900281  0
C  C38  1  0.89213493  0.61517567  0.43698031  1  0  -0.060252  0  3.655632  0  0  -0.095351  0  3.910544  0  0  -0.091564  0  3.925832  0  0  -0.066817  -0.097458  0  3.900227  0
C  C39  1  0.39213866  0.38482622  0.06301852  1  0  -0.060237  0  3.655726  0  0  -0.095307  0  3.910615  0  0  -0.091506  0  3.925909  0  0  -0.066795  -0.097414  0  3.900304  0
C  C40  1  0.11398491  0.46153452  0.63707300  1  0  -0.070275  0  3.73307  0  0  -0.082314  0  3.996147  0  0  -0.087181  0  4.01504  0  0  -0.074659  -0.079572  0  3.983807  0
C  C41  1  0.61399045  0.53846574  0.86292821  1  0  -0.070137  0  3.732978  0  0  -0.082161  0  3.996043  0  0  -0.087026  0  4.014937  0  0  -0.074647  -0.079415  0  3.983687  0
C  C42  1  0.88601073  0.53846524  0.36292749  1  0  -0.070197  0  3.732957  0  0  -0.082194  0  3.996011  0  0  -0.087059  0  4.014904  0  0  -0.07465  -0.079452  0  3.983661  0
C  C43  1  0.38601160  0.46153402  0.13707228  1  0  -0.070141  0  3.732922  0  0  -0.082163  0  3.995984  0  0  -0.087031  0  4.014875  0  0  -0.074619  -0.079417  0  3.983632  0
C  C44  1  0.99008980  0.42177774  0.68674319  1  0  0.034758  0  3.53891  0  0  -0.010295  0  3.799606  0  0  -0.002373  0  3.811332  0  0  0.046969  -0.015314  0  3.791935  0
C  C45  1  0.49009395  0.57822044  0.81325940  1  0  0.034597  0  3.538977  0  0  -0.010484  0  3.799719  0  0  -0.002566  0  3.811442  0  0  0.046923  -0.015495  0  3.792051  0
C  C46  1  0.00990199  0.57822464  0.31325747  1  0  0.034724  0  3.538869  0  0  -0.010381  0  3.799626  0  0  -0.002463  0  3.811352  0  0  0.046923  -0.015391  0  3.791947  0
C  C47  1  0.50990682  0.42178062  0.18674172  1  0  0.034588  0  3.539021  0  0  -0.010507  0  3.79977  0  0  -0.002588  0  3.811496  0  0  0.046893  -0.015529  0  3.792107  0
C  C48  1  0.84953919  0.23392861  0.59103407  1  0  -0.010478  0  3.549547  0  0  -0.063527  0  3.811479  0  0  -0.056793  0  3.823128  0  0  0.050622  -0.067776  0  3.803727  0
C  C49  1  0.34953638  0.76606595  0.90896559  1  0  -0.010596  0  3.549559  0  0  -0.063561  0  3.811404  0  0  -0.056823  0  3.823044  0  0  0.050622  -0.067814  0  3.803659  0
C  C50  1  0.15046030  0.76606984  0.40896578  1  0  -0.010511  0  3.549576  0  0  -0.06352  0  3.811433  0  0  -0.056789  0  3.82309  0  0  0.050635  -0.06778  0  3.803704  0
C  C51  1  0.65046183  0.23393646  0.09103396  1  0  -0.010387  0  3.549345  0  0  -0.063464  0  3.811314  0  0  -0.056727  0  3.822957  0  0  0.050641  -0.067713  0  3.803568  0
N  N52  1  0.01832129  0.10971455  0.34949908  1  0  -0.133562  0  3.210861  0  0  -0.081203  0  3.503001  0  0  -0.089948  0  3.521366  0  0  -0.121306  -0.074908  0  3.490168  0
N  N53  1  0.51831888  0.89028674  0.15050040  1  0  -0.133457  0  3.210899  0  0  -0.081082  0  3.503019  0  0  -0.089828  0  3.521385  0  0  -0.121237  -0.074784  0  3.490181  0
N  N54  1  0.98167948  0.89028520  0.65050140  1  0  -0.13357  0  3.210861  0  0  -0.081207  0  3.503005  0  0  -0.089953  0  3.521369  0  0  -0.121307  -0.074913  0  3.490171  0
N  N55  1  0.48168060  0.10971170  0.84950001  1  0  -0.133508  0  3.210798  0  0  -0.081146  0  3.502943  0  0  -0.089891  0  3.521306  0  0  -0.12125  -0.074848  0  3.490111  0
N  N56  1  0.08631745  0.18403493  0.41310303  1  0  -0.264743  0  2.948382  0  0  -0.254278  0  3.224984  0  0  -0.262635  0  3.242572  0  0  -0.209695  -0.248515  0  3.212939  0
N  N57  1  0.58631531  0.81596754  0.08689650  1  0  -0.264812  0  2.948575  0  0  -0.254369  0  3.225178  0  0  -0.262728  0  3.242767  0  0  -0.209734  -0.24861  0  3.213137  0
N  N58  1  0.91368204  0.81596351  0.58689738  1  0  -0.264734  0  2.948375  0  0  -0.25427  0  3.224976  0  0  -0.262628  0  3.242564  0  0  -0.209685  -0.248505  0  3.212925  0
N  N59  1  0.41368290  0.18403618  0.91310313  1  0  -0.264743  0  2.948414  0  0  -0.254304  0  3.224998  0  0  -0.262661  0  3.242585  0  0  -0.209701  -0.248548  0  3.212953  0
N  N60  1  0.80914569  0.12370015  0.42994884  1  0  -0.271191  0  2.903424  0  0  -0.262317  0  3.171878  0  0  -0.269117  0  3.186472  0  0  -0.217897  -0.257632  0  3.161896  0
N  N61  1  0.30914333  0.87629793  0.07005088  1  0  -0.271161  0  2.903487  0  0  -0.262291  0  3.171924  0  0  -0.269091  0  3.186516  0  0  -0.217835  -0.257607  0  3.161936  0
N  N62  1  0.19085380  0.87629828  0.57005211  1  0  -0.271139  0  2.903463  0  0  -0.262258  0  3.171914  0  0  -0.269055  0  3.186501  0  0  -0.217812  -0.257569  0  3.161929  0
N  N63  1  0.69085872  0.12369920  0.92994889  1  0  -0.271128  0  2.90349  0  0  -0.262273  0  3.171914  0  0  -0.269072  0  3.186508  0  0  -0.217824  -0.257591  0  3.161931  0
N  N64  1  0.85281529  0.07357672  0.35948443  1  0  -0.130014  0  3.214713  0  0  -0.076555  0  3.508399  0  0  -0.08502  0  3.525774  0  0  -0.122169  -0.070465  0  3.496254  0
N  N65  1  0.35281141  0.92642260  0.14051535  1  0  -0.130066  0  3.214782  0  0  -0.076625  0  3.508485  0  0  -0.085091  0  3.525861  0  0  -0.122203  -0.070533  0  3.496331  0
N  N66  1  0.14718548  0.92642436  0.64051559  1  0  -0.130052  0  3.214777  0  0  -0.076612  0  3.508486  0  0  -0.085077  0  3.525862  0  0  -0.122212  -0.070523  0  3.496345  0
N  N67  1  0.64718807  0.07357320  0.85948543  1  0  -0.130046  0  3.214778  0  0  -0.076601  0  3.508482  0  0  -0.085066  0  3.525857  0  0  -0.122231  -0.070512  0  3.496341  0
N  N68  1  0.86239569  0.30727501  0.66319855  1  0  0.268253  0  3.717389  0  0  0.318288  0  3.983251  0  0  0.316557  0  4.0056  0  0  -0.116124  0.318783  0  3.968137  0
N  N69  1  0.36240085  0.69272080  0.83680338  1  0  0.268342  0  3.717479  0  0  0.31836  0  3.983326  0  0  0.316633  0  4.005672  0  0  -0.116096  0.318861  0  3.968209  0
N  N70  1  0.13760123  0.69272343  0.33680185  1  0  0.268319  0  3.717299  0  0  0.318349  0  3.983159  0  0  0.316618  0  4.005507  0  0  -0.116083  0.318846  0  3.96804  0
N  N71  1  0.63760120  0.30728157  0.16319782  1  0  0.268376  0  3.717248  0  0  0.318443  0  3.983094  0  0  0.316712  0  4.005442  0  0  -0.116037  0.318939  0  3.96798  0
N  N72  1  0.57331309  0.86625359  0.69915690  1  0  -0.658828  0  2.768577  0  0  -0.613738  0  3.091949  0  0  -0.641476  0  3.096485  0  0  -0.35108  -0.594541  0  3.08862  0
N  N73  1  0.07331042  0.13373627  0.80084146  1  0  -0.658803  0  2.768645  0  0  -0.613729  0  3.092039  0  0  -0.641466  0  3.096583  0  0  -0.351045  -0.594538  0  3.08871  0
N  N74  1  0.42668896  0.13374357  0.30084122  1  0  -0.658787  0  2.768686  0  0  -0.6137  0  3.092068  0  0  -0.641437  0  3.096608  0  0  -0.351061  -0.594504  0  3.088735  0
N  N75  1  0.92669035  0.86626088  0.19915776  1  0  -0.65889  0  2.768543  0  0  -0.613806  0  3.091918  0  0  -0.641544  0  3.096453  0  0  -0.351134  -0.594613  0  3.088585  0
N  N76  1  0.56407736  0.72963128  0.65684754  1  0  0.415576  0  4.234789  0  0  0.445674  0  4.522945  0  0  0.462496  0  4.55075  0  0  0.082756  0.434273  0  4.50411  0
N  N77  1  0.06407434  0.27035466  0.84315003  1  0  0.415451  0  4.23462  0  0  0.445553  0  4.522782  0  0  0.462374  0  4.550594  0  0  0.082653  0.434155  0  4.50394  0
N  N78  1  0.43592469  0.27036327  0.34314931  1  0  0.41555  0  4.234654  0  0  0.445651  0  4.522795  0  0  0.462471  0  4.550601  0  0  0.082757  0.43425  0  4.503961  0
N  N79  1  0.93592771  0.72963855  0.15684839  1  0  0.415668  0  4.234476  0  0  0.44577  0  4.522622  0  0  0.462591  0  4.550422  0  0  0.082824  0.434371  0  4.503786  0
N  N80  1  0.55349876  0.59786188  0.61685637  1  0  -0.369655  0  2.359826  0  0  -0.37504  0  2.581913  0  0  -0.379986  0  2.589394  0  0  -0.193662  -0.371484  0  2.577076  0
N  N81  1  0.05349541  0.40213194  0.88314336  1  0  -0.36958  0  2.359533  0  0  -0.374958  0  2.581601  0  0  -0.379905  0  2.589083  0  0  -0.193628  -0.371401  0  2.57676  0
N  N82  1  0.44650329  0.40213659  0.38314239  1  0  -0.369669  0  2.35957  0  0  -0.37506  0  2.581644  0  0  -0.380007  0  2.589126  0  0  -0.193691  -0.371503  0  2.57681  0
N  N83  1  0.94650536  0.59786258  0.11685515  1  0  -0.369687  0  2.359565  0  0  -0.375067  0  2.581636  0  0  -0.380015  0  2.589118  0  0  -0.193682  -0.371515  0  2.576801  0
O  O84  1  0.75031435  0.26343165  0.71279590  1  0  -0.566443  0  1.841534  0  0  -0.506662  0  2.080684  0  0  -0.531421  0  2.078708  0  0  -0.238808  -0.488924  0  2.081496  0
O  O85  1  0.25031440  0.73655779  0.78720623  1  0  -0.566484  0  1.84166  0  0  -0.506703  0  2.080807  0  0  -0.531476  0  2.078852  0  0  -0.238823  -0.488973  0  2.081626  0
O  O86  1  0.24968385  0.73656547  0.28720443  1  0  -0.566491  0  1.8415  0  0  -0.506715  0  2.080648  0  0  -0.531466  0  2.078657  0  0  -0.238822  -0.488975  0  2.08146  0
O  O87  1  0.74968509  0.26343800  0.21279511  1  0  -0.566522  0  1.841459  0  0  -0.506767  0  2.080627  0  0  -0.531516  0  2.078632  0  0  -0.238855  -0.489025  0  2.081441  0
O  O88  1  0.92378994  0.74593200  0.81668468  1  0  -0.824456  0  1.921381  0  0  -0.766062  0  2.131055  0  0  -0.787687  0  2.103838  0  0  -0.579691  -0.750693  0  2.149785  0
O  O89  1  0.42379111  0.25407027  0.68331709  1  0  -0.824504  0  1.921461  0  0  -0.766114  0  2.131152  0  0  -0.787737  0  2.103935  0  0  -0.579725  -0.750736  0  2.149871  0
O  O90  1  0.07621083  0.25407693  0.18331749  1  0  -0.824475  0  1.921501  0  0  -0.766086  0  2.131185  0  0  -0.787709  0  2.103969  0  0  -0.579721  -0.750713  0  2.149911  0
O  O91  1  0.57620837  0.74592030  0.31668172  1  0  -0.824493  0  1.921497  0  0  -0.766111  0  2.131168  0  0  -0.787735  0  2.10395  0  0  -0.57973  -0.750736  0  2.1499  0
