# generated using pymatgen
data_HoH25C17(N3O4)2
_symmetry_space_group_name_H-M   'P 1'
_cell_length_a   8.58618675
_cell_length_b   11.00867911
_cell_length_c   13.41200000
_cell_angle_alpha   101.49839275
_cell_angle_beta   107.65895323
_cell_angle_gamma   106.53118692
_symmetry_Int_Tables_number   1
_chemical_formula_structural   HoH25C17(N3O4)2
_chemical_formula_sum   'Ho2 H50 C34 N12 O16'
_cell_volume   1099.98978306
_cell_formula_units_Z   2
loop_
 _symmetry_equiv_pos_site_id
 _symmetry_equiv_pos_as_xyz
  1  'x, y, z'
loop_
 _atom_site_type_symbol
 _atom_site_label
 _atom_site_symmetry_multiplicity
 _atom_site_fract_x
 _atom_site_fract_y
 _atom_site_fract_z
 _atom_site_occupancy
 _atom_site_hle17_bader_spin_density
 _atom_site_hle17_ddec_charge
 _atom_site_hle17_ddec_spin_density
 _atom_site_hle17_ddec_sum_bond_order
 _atom_site_hle17_magmom
 _atom_site_hse06_10hf_bader_spin_density
 _atom_site_hse06_10hf_ddec_charge
 _atom_site_hse06_10hf_ddec_spin_density
 _atom_site_hse06_10hf_ddec_sum_bond_order
 _atom_site_hse06_10hf_magmom
 _atom_site_hse06_bader_spin_density
 _atom_site_hse06_ddec_charge
 _atom_site_hse06_ddec_spin_density
 _atom_site_hse06_ddec_sum_bond_order
 _atom_site_hse06_magmom
 _atom_site_pbe_bader_charge
 _atom_site_pbe_bader_spin_density
 _atom_site_pbe_cm5_charge
 _atom_site_pbe_ddec_charge
 _atom_site_pbe_ddec_spin_density
 _atom_site_pbe_ddec_sum_bond_order
 _atom_site_pbe_magmom
Ho  Ho0  1  0.25750094  0.11004285  0.06156497  1  0  2.227474  0  1.615916  0  0  2.075834  0  2.090965  0  0  2.125419  0  2.051387  0  2.15448  0  1.50696  2.037106  0  2.123494  0
Ho  Ho1  1  0.74249519  0.88995536  0.93843540  1  0  2.227447  0  1.61597  0  0  2.075753  0  2.091112  0  0  2.125342  0  2.05153  0  2.154514  0  1.506928  2.037077  0  2.123561  0
H  H2  1  0.20221499  0.53132427  0.04352758  1  0  0.11567  0  0.946679  0  0  0.126567  0  1.003969  0  0  0.129596  0  1.004478  0  0.065522  0  0.102428  0.12424  0  1.004167  0
H  H3  1  0.79778600  0.46868391  0.95647612  1  0  0.115621  0  0.946707  0  0  0.126542  0  1.003965  0  0  0.12957  0  1.004477  0  0.065538  0  0.102422  0.124217  0  1.004159  0
H  H4  1  0.05307299  0.43816827  0.20840475  1  0  0.073534  0  0.957287  0  0  0.087597  0  1.017121  0  0  0.08918  0  1.016927  0  0.085381  0  0.100618  0.086467  0  1.017231  0
H  H5  1  0.94692704  0.56183293  0.79159538  1  0  0.073515  0  0.957323  0  0  0.087576  0  1.017152  0  0  0.089162  0  1.016955  0  0.085363  0  0.100607  0.086447  0  1.01726  0
H  H6  1  0.12665122  0.70338300  0.14941435  1  0  0.115353  0  0.935626  0  0  0.137425  0  0.991186  0  0  0.139072  0  0.991012  0  0.058391  0  0.093891  0.136185  0  0.991412  0
H  H7  1  0.87334343  0.29661720  0.85058234  1  0  0.115309  0  0.935673  0  0  0.137393  0  0.991219  0  0  0.139038  0  0.991046  0  0.058475  0  0.093872  0.136152  0  0.991447  0
H  H8  1  0.15690311  0.69169648  0.28408323  1  0  0.111771  0  0.956207  0  0  0.134463  0  1.014491  0  0  0.134793  0  1.0165  0  0.064235  0  0.095037  0.134166  0  1.013172  0
H  H9  1  0.84309155  0.30830373  0.71591719  1  0  0.111796  0  0.956103  0  0  0.134488  0  1.014398  0  0  0.134818  0  1.016405  0  0.064262  0  0.095041  0.134187  0  1.013083  0
H  H10  1  0.94327627  0.62945914  0.18257474  1  0  0.108526  0  0.945529  0  0  0.130245  0  1.007487  0  0  0.131003  0  1.008091  0  0.027641  0  0.093292  0.129627  0  1.007118  0
H  H11  1  0.05671839  0.37054107  0.81742419  1  0  0.10853  0  0.945531  0  0  0.130252  0  1.0075  0  0  0.131011  0  1.008099  0  0.027698  0  0.093302  0.129633  0  1.007131  0
H  H12  1  0.83676505  0.39956035  0.32989290  1  0  0.124323  0  0.934704  0  0  0.136629  0  0.987278  0  0  0.140715  0  0.986337  0  0.090577  0  0.105594  0.133614  0  0.988312  0
H  H13  1  0.16323622  0.60043586  0.67010442  1  0  0.124281  0  0.934737  0  0  0.136587  0  0.987327  0  0  0.140672  0  0.986388  0  0.090607  0  0.105577  0.133573  0  0.988357  0
H  H14  1  0.87242262  0.12732673  0.26324174  1  0  0.072284  0  0.942555  0  0  0.085437  0  1.003832  0  0  0.087269  0  1.002605  0  0.09381  0  0.105019  0.084005  0  1.004888  0
H  H15  1  0.12757816  0.87266849  0.73675979  1  0  0.072326  0  0.942532  0  0  0.08547  0  1.003794  0  0  0.087302  0  1.002568  0  0.093856  0  0.105041  0.084038  0  1.004854  0
H  H16  1  0.13958355  0.40653536  0.42473414  1  0  0.112777  0  0.936834  0  0  0.135053  0  0.993266  0  0  0.137018  0  0.992538  0  0.041393  0  0.092785  0.13362  0  0.993779  0
H  H17  1  0.86041430  0.59345886  0.57526516  1  0  0.112846  0  0.936832  0  0  0.135131  0  0.993246  0  0  0.13709  0  0.992524  0  0.041353  0  0.0928  0.133697  0  0.993761  0
H  H18  1  0.18632477  0.29863429  0.32917398  1  0  0.134006  0  0.940549  0  0  0.15289  0  1.004687  0  0  0.154765  0  1.00434  0  0.085223  0  0.104027  0.151522  0  1.004948  0
H  H19  1  0.81367698  0.70136292  0.67082583  1  0  0.134048  0  0.940534  0  0  0.15294  0  1.00466  0  0  0.1548  0  1.004329  0  0.085226  0  0.104044  0.151573  0  1.00492  0
H  H20  1  0.14450548  0.24910997  0.43786147  1  0  0.114829  0  0.952705  0  0  0.136476  0  1.014006  0  0  0.136721  0  1.016101  0  0.063219  0  0.09657  0.136275  0  1.012524  0
H  H21  1  0.85549969  0.75088924  0.56213858  1  0  0.11482  0  0.952695  0  0  0.136487  0  1.013987  0  0  0.136732  0  1.016079  0  0.063252  0  0.096567  0.136279  0  1.012513  0
H  H22  1  0.88128460  0.85880527  0.21770964  1  0  0.117268  0  0.988685  0  0  0.120102  0  1.06009  0  0  0.123715  0  1.060055  0  0.10816  0  0.103421  0.117581  0  1.060238  0
H  H23  1  0.11871471  0.14119194  0.78229342  1  0  0.117277  0  0.9887  0  0  0.120129  0  1.060081  0  0  0.123746  0  1.060042  0  0.108212  0  0.103436  0.117605  0  1.060233  0
H  H24  1  0.24700940  0.00463171  0.40493146  1  0  0.073687  0  0.985347  0  0  0.08165  0  1.053289  0  0  0.084153  0  1.051951  0  0.119233  0  0.100071  0.079828  0  1.054303  0
H  H25  1  0.75298843  0.99536749  0.59506567  1  0  0.073739  0  0.985308  0  0  0.08166  0  1.053298  0  0  0.084164  0  1.05196  0  0.119249  0  0.100079  0.07984  0  1.054308  0
H  H26  1  0.90110919  0.79085984  0.38548112  1  0  0.104197  0  0.967671  0  0  0.122088  0  1.03179  0  0  0.123107  0  1.033002  0  0.055525  0  0.087972  0.121322  0  1.031043  0
H  H27  1  0.09888939  0.20913837  0.61452122  1  0  0.104201  0  0.96767  0  0  0.122086  0  1.031792  0  0  0.123105  0  1.033004  0  0.055775  0  0.087993  0.12132  0  1.031047  0
H  H28  1  0.05803493  0.91964801  0.50974901  1  0  0.107983  0  0.957315  0  0  0.130844  0  1.016994  0  0  0.131263  0  1.018567  0  0.060828  0  0.093866  0.130592  0  1.015808  0
H  H29  1  0.94196999  0.08035320  0.49025207  1  0  0.107983  0  0.957288  0  0  0.130846  0  1.016963  0  0  0.131262  0  1.018538  0  0.060695  0  0.093861  0.130593  0  1.015777  0
H  H30  1  0.11750004  0.79255969  0.45104726  1  0  0.116125  0  0.934702  0  0  0.138547  0  0.992471  0  0  0.139915  0  0.992501  0  0.063824  0  0.097047  0.137577  0  0.992523  0
H  H31  1  0.88250414  0.20744250  0.54895607  1  0  0.116138  0  0.934721  0  0  0.138558  0  0.992488  0  0  0.139925  0  0.992518  0  0.063844  0  0.097046  0.137586  0  0.992542  0
H  H32  1  0.11302392  0.81971752  0.94754208  1  0  0.449081  0  0.844682  0  0  0.417583  0  0.908568  0  0  0.428441  0  0.892921  0  0.650231  0  0.305396  0.409902  0  0.919631  0
H  H33  1  0.88697586  0.18028568  0.05245832  1  0  0.449085  0  0.844678  0  0  0.417582  0  0.908575  0  0  0.428442  0  0.892924  0  0.650221  0  0.305388  0.409901  0  0.919637  0
H  H34  1  0.32771435  0.85632930  0.99941514  1  0  0.447058  0  0.833239  0  0  0.422564  0  0.885559  0  0  0.432976  0  0.870193  0  0.636308  0  0.311233  0.415015  0  0.896746  0
H  H35  1  0.67228446  0.14367190  0.00058326  1  0  0.447065  0  0.833172  0  0  0.422565  0  0.885554  0  0  0.432979  0  0.870186  0  0.63628  0  0.311211  0.415015  0  0.896744  0
H  H36  1  0.40671912  0.02715882  0.90061436  1  0  0.432331  0  0.872621  0  0  0.402402  0  0.936046  0  0  0.413546  0  0.919598  0  0.642071  0  0.299563  0.394376  0  0.947927  0
H  H37  1  0.59327699  0.97284438  0.09938385  1  0  0.432322  0  0.872638  0  0  0.402388  0  0.93607  0  0  0.413556  0  0.919599  0  0.64199  0  0.299564  0.39436  0  0.947951  0
H  H38  1  0.41767700  0.17074094  0.88982167  1  0  0.402011  0  0.916156  0  0  0.360387  0  0.997628  0  0  0.372309  0  0.98077  0  0.621338  0  0.28313  0.351872  0  1.00971  0
H  H39  1  0.58232351  0.82926126  0.11017424  1  0  0.402021  0  0.916149  0  0  0.360386  0  0.997639  0  0  0.372309  0  0.980779  0  0.621388  0  0.283141  0.351872  0  1.009719  0
H  H40  1  0.48214364  0.58600802  0.57574134  1  0  0.318869  0  0.927914  0  0  0.294277  0  1.00857  0  0  0.302838  0  1.00068  0  0.500791  0  0.288624  0.288295  0  1.014005  0
H  H41  1  0.51785516  0.41399318  0.42425557  1  0  0.318788  0  0.927913  0  0  0.294229  0  1.008543  0  0  0.302792  0  1.000648  0  0.50076  0  0.288613  0.288248  0  1.013974  0
H  H42  1  0.51672230  0.75282851  0.62828144  1  0  0.33311  0  0.898118  0  0  0.317881  0  0.959339  0  0  0.324689  0  0.95394  0  0.467348  0  0.303893  0.312999  0  0.963291  0
H  H43  1  0.48327480  0.24717169  0.37171647  1  0  0.333085  0  0.898126  0  0  0.317857  0  0.959349  0  0  0.324666  0  0.953952  0  0.467338  0  0.303912  0.312975  0  0.963302  0
H  H44  1  0.52188355  0.03441414  0.41946327  1  0  0.322129  0  0.917605  0  0  0.297229  0  0.997169  0  0  0.306272  0  0.988746  0  0.496085  0  0.296155  0.290993  0  1.002786  0
H  H45  1  0.47811575  0.96558806  0.58053539  1  0  0.32214  0  0.917571  0  0  0.297226  0  0.997144  0  0  0.306274  0  0.988719  0  0.496082  0  0.296169  0.29099  0  1.002762  0
H  H46  1  0.53801891  0.98983697  0.29155081  1  0  0.340033  0  0.885343  0  0  0.324206  0  0.94267  0  0  0.33143  0  0.93736  0  0.490789  0  0.309658  0.31887  0  0.946889  0
H  H47  1  0.46198283  0.01016523  0.70844832  1  0  0.340046  0  0.885348  0  0  0.324228  0  0.942657  0  0  0.331451  0  0.93735  0  0.490811  0  0.309675  0.318891  0  0.946877  0
H  H48  1  0.61085750  0.59049508  0.08959967  1  0  0.097132  0  0.95631  0  0  0.10585  0  1.020374  0  0  0.109596  0  1.015435  0  0.181692  0  0.133223  0.10304  0  1.023987  0
H  H49  1  0.38914375  0.40950612  0.91039920  1  0  0.097161  0  0.956309  0  0  0.105873  0  1.020374  0  0  0.109589  0  1.015476  0  0.181719  0  0.133221  0.103061  0  1.023992  0
H  H50  1  0.55746818  0.45408150  0.22107780  1  0  0.331039  0  0.919638  0  0  0.312091  0  0.976744  0  0  0.32176  0  0.96884  0  0.552944  0  0.313613  0.305089  0  0.982483  0
H  H51  1  0.44253356  0.54592070  0.77892208  1  0  0.331032  0  0.919643  0  0  0.312078  0  0.976754  0  0  0.321744  0  0.968854  0  0.552916  0  0.313596  0.305077  0  0.982492  0
C  C52  1  0.17696725  0.33759934  0.06880081  1  0  0.684383  0  3.926  0  0  0.639836  0  4.217518  0  0  0.675559  0  4.207898  0  1.501684  0  0.187223  0.615676  0  4.223071  0
C  C53  1  0.82303571  0.66240286  0.93119781  1  0  0.684422  0  3.925981  0  0  0.639878  0  4.217488  0  0  0.675601  0  4.207868  0  1.501309  0  0.187231  0.615716  0  4.223042  0
C  C54  1  0.15601124  0.46678654  0.08881539  1  0  -0.280552  0  3.720712  0  0  -0.29733  0  3.98274  0  0  -0.311566  0  4.001826  0  0.006157  0  -0.113694  -0.288077  0  3.970086  0
C  C55  1  0.84399147  0.53321766  0.91118575  1  0  -0.280516  0  3.72082  0  0  -0.297314  0  3.982832  0  0  -0.311549  0  4.001916  0  0.00619  0  -0.113699  -0.288061  0  3.970178  0
C  C56  1  0.09387037  0.50734670  0.16465379  1  0  0.093564  0  3.671132  0  0  0.078017  0  3.928394  0  0  0.084949  0  3.944978  0  -0.114477  0  -0.064264  0.073595  0  3.916906  0
C  C57  1  0.90612892  0.49265550  0.83534635  1  0  0.09361  0  3.671169  0  0  0.078074  0  3.928415  0  0  0.085007  0  3.944994  0  -0.114441  0  -0.06422  0.073651  0  3.916926  0
C  C58  1  0.07992395  0.63965230  0.19563248  1  0  -0.311429  0  3.761305  0  0  -0.384233  0  4.001636  0  0  -0.387774  0  4.013345  0  -0.060008  0  -0.240694  -0.381555  0  3.993441  0
C  C59  1  0.92007535  0.36034990  0.80437140  1  0  -0.311412  0  3.761189  0  0  -0.38424  0  4.001535  0  0  -0.387789  0  4.013259  0  -0.060146  0  -0.240711  -0.381561  0  3.993342  0
C  C60  1  0.61516254  0.22250779  0.21355763  1  0  0.6995  0  3.916963  0  0  0.653366  0  4.206489  0  0  0.689523  0  4.196217  0  1.515879  0  0.199349  0.628867  0  4.212468  0
C  C61  1  0.38483679  0.77748443  0.78644462  1  0  0.699626  0  3.91701  0  0  0.653584  0  4.206407  0  0  0.689743  0  4.196134  0  1.515955  0  0.199427  0.629087  0  4.212395  0
C  C62  1  0.79925617  0.29343795  0.28889458  1  0  -0.30724  0  3.720964  0  0  -0.323324  0  3.981652  0  0  -0.338459  0  3.998414  0  -0.070907  0  -0.117145  -0.313457  0  3.970432  0
C  C63  1  0.20074510  0.70655826  0.71110572  1  0  -0.307136  0  3.721052  0  0  -0.32326  0  3.981704  0  0  -0.338399  0  3.998471  0  -0.071054  0  -0.117095  -0.313393  0  3.970482  0
C  C64  1  0.91731129  0.23393295  0.30664487  1  0  0.125373  0  3.663256  0  0  0.107825  0  3.926572  0  0  0.116395  0  3.942348  0  -0.077355  0  -0.053231  0.102227  0  3.915688  0
C  C65  1  0.08269095  0.76606526  0.69335669  1  0  0.125246  0  3.663329  0  0  0.10772  0  3.926656  0  0  0.116291  0  3.942427  0  -0.077311  0  -0.053321  0.102122  0  3.915773  0
C  C66  1  0.10574684  0.30207989  0.37900295  1  0  -0.323446  0  3.740009  0  0  -0.398818  0  3.981671  0  0  -0.402786  0  3.9915  0  -0.047077  0  -0.241468  -0.395795  0  3.974657  0
C  C67  1  0.89425491  0.69791732  0.62099612  1  0  -0.323549  0  3.740011  0  0  -0.398945  0  3.981629  0  0  -0.402897  0  3.991471  0  -0.047031  0  -0.241479  -0.395917  0  3.974616  0
C  C68  1  0.09732357  0.99679102  0.19612692  1  0  0.735783  0  3.868421  0  0  0.694997  0  4.148745  0  0  0.731538  0  4.137372  0  1.503498  0  0.209641  0.670244  0  4.155419  0
C  C69  1  0.90267500  0.00320718  0.80387318  1  0  0.735843  0  3.868356  0  0  0.695047  0  4.148655  0  0  0.731586  0  4.137287  0  1.503613  0  0.209676  0.6703  0  4.155339  0
C  C70  1  0.01839124  0.92596561  0.26114977  1  0  -0.28904  0  3.676962  0  0  -0.300349  0  3.929935  0  0  -0.315391  0  3.94772  0  -0.144961  0  -0.1098  -0.290419  0  3.917879  0
C  C71  1  0.98160733  0.07403260  0.73885033  1  0  -0.289144  0  3.677089  0  0  -0.300437  0  3.930032  0  0  -0.315484  0  3.947816  0  -0.144973  0  -0.109826  -0.290512  0  3.917981  0
C  C72  1  0.11006476  0.93536271  0.36519292  1  0  0.104209  0  3.645488  0  0  0.089588  0  3.900822  0  0  0.096743  0  3.917133  0  0.015872  0  -0.060749  0.085  0  3.889503  0
C  C73  1  0.88993381  0.06463550  0.63480644  1  0  0.104232  0  3.645516  0  0  0.089635  0  3.900855  0  0  0.096792  0  3.917164  0  0.015849  0  -0.060728  0.085047  0  3.889536  0
C  C74  1  0.04038449  0.85512324  0.42994132  1  0  -0.316998  0  3.752519  0  0  -0.389263  0  3.989955  0  0  -0.392583  0  3.999967  0  -0.113437  0  -0.240205  -0.386769  0  3.982906  0
C  C75  1  0.95961628  0.14487696  0.57006102  1  0  -0.317002  0  3.752533  0  0  -0.389253  0  3.989966  0  0  -0.392569  0  3.999979  0  -0.113588  0  -0.240196  -0.386757  0  3.98292  0
C  C76  1  0.49445947  0.69495554  0.47043346  1  0  0.633055  0  3.851288  0  0  0.588989  0  4.138262  0  0  0.615727  0  4.143893  0  1.526241  0  0.330013  0.571251  0  4.133606  0
C  C77  1  0.50554105  0.30504666  0.52956544  1  0  0.633097  0  3.851249  0  0  0.589084  0  4.138166  0  0  0.615824  0  4.143794  0  1.525931  0  0.330046  0.571346  0  4.133511  0
C  C78  1  0.53518323  0.62773733  0.31498173  1  0  0.348132  0  3.901894  0  0  0.310014  0  4.17879  0  0  0.326367  0  4.195718  0  0.968842  0  0.213584  0.299356  0  4.167102  0
C  C79  1  0.46482046  0.37226387  0.68501836  1  0  0.348178  0  3.90183  0  0  0.310097  0  4.178662  0  0  0.326445  0  4.195593  0  0.969427  0  0.213629  0.299438  0  4.166975  0
C  C80  1  0.54444289  0.74818682  0.29203298  1  0  -0.103875  0  3.822806  0  0  -0.097517  0  4.076397  0  0  -0.10829  0  4.101391  0  0.463598  0  0.057938  -0.090955  0  4.060027  0
C  C81  1  0.45556056  0.25181637  0.70796590  1  0  -0.103892  0  3.822762  0  0  -0.097539  0  4.076338  0  0  -0.108309  0  4.101331  0  0.463238  0  0.057949  -0.090976  0  4.059969  0
C  C82  1  0.52827915  0.84666784  0.37038995  1  0  0.47183  0  3.886562  0  0  0.434108  0  4.161747  0  0  0.457436  0  4.172186  0  1.039545  0  0.237345  0.418633  0  4.15409  0
C  C83  1  0.47172552  0.15333535  0.62960917  1  0  0.471816  0  3.886562  0  0  0.434112  0  4.161741  0  0  0.457442  0  4.172177  0  1.039828  0  0.237351  0.418638  0  4.154084  0
C  C84  1  0.58546766  0.62484638  0.16275446  1  0  0.233076  0  3.670443  0  0  0.168813  0  3.956538  0  0  0.184406  0  3.964179  0  0.954393  0  0.147267  0.158685  0  3.950932  0
C  C85  1  0.41453408  0.37515582  0.83724467  1  0  0.233009  0  3.670693  0  0  0.168755  0  3.956785  0  0  0.184368  0  3.96444  0  0.954146  0  0.147244  0.158624  0  3.951181  0
N  N86  1  0.50348290  0.81685948  0.45903604  1  0  -0.592242  0  2.968611  0  0  -0.541415  0  3.235438  0  0  -0.564079  0  3.241977  0  -1.228994  0  -0.346363  -0.526252  0  3.230443  0
N  N87  1  0.49651762  0.18314272  0.54096211  1  0  -0.592262  0  2.968654  0  0  -0.541489  0  3.235497  0  0  -0.564153  0  3.24203  0  -1.228914  0  -0.346364  -0.526326  0  3.230503  0
N  N88  1  0.46725428  0.67105577  0.56088405  1  0  -0.706034  0  3.055367  0  0  -0.674985  0  3.299959  0  0  -0.695599  0  3.293695  0  -1.281071  0  -0.588499  -0.660533  0  3.303765  0
N  N89  1  0.53274623  0.32894642  0.43911336  1  0  -0.705967  0  3.05534  0  0  -0.674971  0  3.299863  0  0  -0.695589  0  3.293603  0  -1.280758  0  -0.588546  -0.660517  0  3.303667  0
N  N90  1  0.50802330  0.59468787  0.40077970  1  0  -0.547932  0  2.986507  0  0  -0.503268  0  3.252243  0  0  -0.523556  0  3.260368  0  -1.255529  0  -0.347299  -0.489705  0  3.24651  0
N  N91  1  0.49198063  0.40531633  0.59922018  1  0  -0.548008  0  2.986394  0  0  -0.503377  0  3.252108  0  0  -0.523663  0  3.260229  0  -1.255595  0  -0.347358  -0.489815  0  3.246378  0
N  N92  1  0.54051319  0.96874437  0.36234185  1  0  -0.637682  0  3.100518  0  0  -0.596697  0  3.339693  0  0  -0.617861  0  3.335222  0  -1.29766  0  -0.562982  -0.581966  0  3.342467  0
N  N93  1  0.45948562  0.03125683  0.63765655  1  0  -0.637691  0  3.100539  0  0  -0.596696  0  3.339723  0  0  -0.617865  0  3.335239  0  -1.297808  0  -0.562986  -0.581965  0  3.342499  0
N  N94  1  0.57531821  0.74343241  0.19544150  1  0  -0.384992  0  3.118864  0  0  -0.329672  0  3.375824  0  0  -0.342708  0  3.388574  0  -1.220563  0  -0.331979  -0.320527  0  3.367398  0
N  N95  1  0.42468305  0.25656879  0.80455737  1  0  -0.384988  0  3.118813  0  0  -0.329685  0  3.375782  0  0  -0.342721  0  3.388524  0  -1.220426  0  -0.331982  -0.32054  0  3.367359  0
N  N96  1  0.56440301  0.55234505  0.23269050  1  0  -0.38009  0  3.3502  0  0  -0.315079  0  3.590281  0  0  -0.333793  0  3.598592  0  -1.302411  0  -0.37876  -0.302321  0  3.584268  0
N  N97  1  0.43560166  0.44765815  0.76730936  1  0  -0.380037  0  3.350351  0  0  -0.315021  0  3.590388  0  0  -0.33373  0  3.598694  0  -1.30263  0  -0.378737  -0.302261  0  3.584371  0
O  O98  1  0.11216649  0.25148219  0.11295503  1  0  -0.739982  0  2.029584  0  0  -0.67952  0  2.263548  0  0  -0.705697  0  2.254766  0  -1.195229  0  -0.389009  -0.66082  0  2.268838  0
O  O99  1  0.88783183  0.74851801  0.88704087  1  0  -0.740003  0  2.029506  0  0  -0.679559  0  2.263518  0  0  -0.705735  0  2.254733  0  -1.194974  0  -0.389028  -0.660878  0  2.268832  0
O  O100  1  0.26345832  0.31005346  0.01098303  1  0  -0.686198  0  1.953604  0  0  -0.638108  0  2.194962  0  0  -0.66383  0  2.186773  0  -1.172022  0  -0.373365  -0.619782  0  2.199813  0
O  O101  1  0.73654024  0.68994973  0.98901564  1  0  -0.686187  0  1.953606  0  0  -0.638098  0  2.194969  0  0  -0.663827  0  2.186785  0  -1.172006  0  -0.373349  -0.619775  0  2.19982  0
O  O102  1  0.54778035  0.09573471  0.16686097  1  0  -0.721505  0  2.041248  0  0  -0.656192  0  2.271097  0  0  -0.682451  0  2.260557  0  -1.225703  0  -0.355894  -0.637545  0  2.278142  0
O  O103  1  0.45221775  0.90425751  0.83314403  1  0  -0.721531  0  2.041188  0  0  -0.656249  0  2.271005  0  0  -0.6825  0  2.260456  0  -1.225624  0  -0.355916  -0.637599  0  2.27803  0
O  O104  1  0.51492021  0.28951351  0.19302369  1  0  -0.705388  0  2.030015  0  0  -0.647355  0  2.263004  0  0  -0.673291  0  2.253782  0  -1.20154  0  -0.378128  -0.628673  0  2.268566  0
O  O105  1  0.48507838  0.71047971  0.80697635  1  0  -0.7055  0  2.030116  0  0  -0.647473  0  2.263067  0  0  -0.673408  0  2.253842  0  -1.201682  0  -0.378159  -0.6288  0  2.268629  0
O  O106  1  0.25710124  0.07558881  0.23342751  1  0  -0.695252  0  1.973534  0  0  -0.648142  0  2.214564  0  0  -0.672787  0  2.20647  0  -1.188784  0  -0.371172  -0.630826  0  2.219655  0
O  O107  1  0.74289733  0.92440940  0.76657333  1  0  -0.695257  0  1.973459  0  0  -0.648177  0  2.214581  0  0  -0.672819  0  2.206482  0  -1.188812  0  -0.371194  -0.630874  0  2.219671  0
O  O108  1  0.00047360  0.97471881  0.09404038  1  0  -0.845819  0  2.140172  0  0  -0.781355  0  2.401025  0  0  -0.80879  0  2.390243  0  -1.213303  0  -0.455807  -0.761381  0  2.407192  0
O  O109  1  0.99952277  0.02528239  0.90596276  1  0  -0.845795  0  2.14001  0  0  -0.7814  0  2.401024  0  0  -0.808839  0  2.39025  0  -1.213477  0  -0.455852  -0.761377  0  2.407085  0
O  O110  1  0.23055716  0.88655565  0.99998724  1  0  -0.919098  0  1.86934  0  0  -0.867549  0  2.057489  0  0  -0.886583  0  2.025936  0  -1.278446  0  -0.645395  -0.853639  0  2.07967  0
O  O111  1  0.76944190  0.11344356  0.00001386  1  0  -0.919093  0  1.869267  0  0  -0.867527  0  2.057436  0  0  -0.886567  0  2.025886  0  -1.278418  0  -0.645347  -0.853627  0  2.07961  0
O  O112  1  0.41896547  0.11642230  0.94438811  1  0  -0.936723  0  1.90811  0  0  -0.881653  0  2.112787  0  0  -0.902275  0  2.079579  0  -1.283276  0  -0.639554  -0.866687  0  2.136355  0
O  O113  1  0.58103138  0.88357990  0.05561007  1  0  -0.936722  0  1.908184  0  0  -0.88163  0  2.112855  0  0  -0.902284  0  2.079584  0  -1.283239  0  -0.639553  -0.866671  0  2.136421  0
