# generated using pymatgen
data_AlH2C6IO5
_symmetry_space_group_name_H-M   'P 1'
_cell_length_a   6.70040882
_cell_length_b   14.46013370
_cell_length_c   17.10501037
_cell_angle_alpha   93.25915522
_cell_angle_beta   89.40070776
_cell_angle_gamma   89.58251251
_symmetry_Int_Tables_number   1
_chemical_formula_structural   AlH2C6IO5
_chemical_formula_sum   'Al4 H8 C24 I4 O20'
_cell_volume   1654.46149665
_cell_formula_units_Z   4
loop_
 _symmetry_equiv_pos_site_id
 _symmetry_equiv_pos_as_xyz
  1  'x, y, z'
loop_
 _atom_site_type_symbol
 _atom_site_label
 _atom_site_symmetry_multiplicity
 _atom_site_fract_x
 _atom_site_fract_y
 _atom_site_fract_z
 _atom_site_occupancy
 _atom_site_pbe_bader_charge
 _atom_site_pbe_bader_spin_density
 _atom_site_pbe_cm5_charge
 _atom_site_pbe_ddec_charge
 _atom_site_pbe_ddec_spin_density
 _atom_site_pbe_ddec_sum_bond_order
 _atom_site_pbe_magmom
Al  Al0  1  0.89197226  0.50383081  0.50203030  1  2.50021  0  0.404687  1.645648  0  2.565052  0
Al  Al1  1  0.39137628  0.49993594  0.50019672  1  2.501767  0  0.404887  1.647782  0  2.561971  0
Al  Al2  1  0.37160286  0.99898857  0.99793204  1  2.504911  0  0.397228  1.648413  0  2.569681  0
Al  Al3  1  0.87154551  0.00265282  0.00054260  1  2.49901  0  0.398189  1.647084  0  2.561518  0
H  H4  1  0.97758980  0.22486413  0.18280011  1  0.069375  0  0.097209  0.13189  0  1.033285  0
H  H5  1  0.48092844  0.79391708  0.80811536  1  0.128964  0  0.086969  0.116702  0  1.089086  0
H  H6  1  0.36506836  0.35091794  0.27187135  1  0.128322  0  0.119845  0.1429  0  0.963679  0
H  H7  1  0.85242065  0.74175393  0.65196211  1  0.124794  0  0.11262  0.130856  0  0.993043  0
H  H8  1  0.65112186  0.38071721  0.48130393  1  0.604122  0  0.354009  0.437242  0  0.847153  0
H  H9  1  0.14574460  0.61695051  0.47503247  1  0.66023  0  0.356348  0.437025  0  0.842427  0
H  H10  1  0.61383797  0.11842816  0.02684727  1  0.618415  0  0.341629  0.419232  0  0.877975  0
H  H11  1  0.11855918  0.88463557  0.96884792  1  0.625615  0  0.34907  0.427624  0  0.860987  0
C  C12  1  0.64772166  0.60987822  0.39815601  1  1.665267  0  0.277281  0.711782  0  4.165243  0
C  C13  1  0.13273331  0.39656325  0.60410214  1  1.6973  0  0.275836  0.702005  0  4.176359  0
C  C14  1  0.62916093  0.60554306  0.61442959  1  1.626451  0  0.265822  0.659208  0  4.105882  0
C  C15  1  0.15132244  0.37909906  0.39932441  1  1.614997  0  0.261081  0.661128  0  4.112862  0
C  C16  1  0.27572512  0.21922259  0.21551916  1  -0.32421  0  -0.033523  0.11623  0  3.927445  0
C  C17  1  0.77551605  0.79913343  0.76830257  1  -0.238664  0  -0.03114  0.120083  0  3.903352  0
C  C18  1  0.12117067  0.19031738  0.17085561  1  0.163136  0  -0.105409  -0.2934  0  3.883951  0
C  C19  1  0.62747944  0.82380584  0.81990364  1  0.010161  0  -0.108561  -0.292647  0  3.887303  0
C  C20  1  0.26328252  0.29259256  0.27754490  1  -0.002801  0  -0.0934  -0.130959  0  4.013413  0
C  C21  1  0.75283870  0.73278623  0.70206240  1  0.036264  0  -0.092197  -0.12967  0  3.995546  0
C  C22  1  0.14883710  0.29584215  0.34290440  1  -0.2025  0  -0.050678  -0.07962  0  3.823413  0
C  C23  1  0.63051822  0.65889902  0.69243179  1  -0.248682  0  -0.042029  -0.068081  0  3.778887  0
C  C24  1  0.12387997  0.16767940  0.83038575  1  0.19823  0  0.00121  -0.131733  0  3.838919  0
C  C25  1  0.62214704  0.83511479  0.16913493  1  0.159182  0  0.003519  -0.126585  0  3.830876  0
C  C26  1  0.12789659  0.22114157  0.77752361  1  -0.301261  0  -0.007688  0.025858  0  4.224703  0
C  C27  1  0.62782161  0.78273717  0.22278808  1  -0.23967  0  -0.008486  0.020501  0  4.227131  0
C  C28  1  0.13155955  0.28053594  0.71946050  1  -0.35855  0  -0.002226  0.04273  0  4.223148  0
C  C29  1  0.63474757  0.72456862  0.28176103  1  -0.231195  0  -0.001495  0.047217  0  4.229177  0
C  C30  1  0.13460355  0.33458419  0.66701087  1  0.263378  0  -0.004175  -0.154204  0  3.853631  0
C  C31  1  0.64202260  0.67165314  0.33501643  1  0.132966  0  -0.009646  -0.164453  0  3.856155  0
C  C32  1  0.62912026  0.88803717  0.88950378  1  1.563036  0  0.261709  0.706755  0  4.066287  0
C  C33  1  0.11984599  0.11803217  0.10642537  1  1.561196  0  0.26372  0.708517  0  4.065569  0
C  C34  1  0.62117226  0.89526295  0.10435433  1  1.707882  0  0.272052  0.690159  0  4.196618  0
C  C35  1  0.12330167  0.10719144  0.89477525  1  1.683401  0  0.269014  0.687313  0  4.202812  0
I  I36  1  0.56822542  0.16513647  0.20553094  1  0.185503  0  0.142152  0.03173  0  1.690612  0
I  I37  1  0.06392019  0.85749400  0.77219775  1  0.155707  0  0.124855  0.022466  0  1.532716  0
I  I38  1  0.96629767  0.18806869  0.37759621  1  0.155491  0  0.090412  0.007148  0  1.463523  0
I  I39  1  0.43469592  0.60624289  0.77491388  1  0.187813  0  0.123619  0.042375  0  1.45202  0
O  O40  1  0.46222135  0.57440634  0.59146889  1  -1.250771  0  -0.229104  -0.574756  0  2.379091  0
O  O41  1  0.98491577  0.40364046  0.43047258  1  -1.257376  0  -0.236372  -0.599735  0  2.385177  0
O  O42  1  0.81908157  0.57972306  0.41666305  1  -1.231401  0  -0.226812  -0.580083  0  2.268997  0
O  O43  1  0.29806261  0.40874041  0.56883937  1  -1.233972  0  -0.224665  -0.576876  0  2.289529  0
O  O44  1  0.79445926  0.59744479  0.57721903  1  -1.251113  0  -0.230577  -0.576341  0  2.315735  0
O  O45  1  0.31979426  0.41714733  0.41146207  1  -1.248598  0  -0.23308  -0.579832  0  2.297104  0
O  O46  1  0.96476552  0.43229103  0.58856566  1  -1.223311  0  -0.22028  -0.563337  0  2.28159  0
O  O47  1  0.48022344  0.59201734  0.42985996  1  -1.237362  0  -0.227138  -0.586483  0  2.279139  0
O  O48  1  0.64402408  0.44594631  0.49768546  1  -1.403372  0  -0.44638  -0.993366  0  2.18354  0
O  O49  1  0.14218305  0.55889790  0.50076113  1  -1.460957  0  -0.445488  -0.987201  0  2.163538  0
O  O50  1  0.79195238  0.91998970  0.08044351  1  -1.226024  0  -0.22401  -0.568045  0  2.291311  0
O  O51  1  0.29399760  0.08165515  0.91765430  1  -1.211858  0  -0.225846  -0.568849  0  2.289821  0
O  O52  1  0.45609720  0.91136426  0.91693484  1  -1.2571  0  -0.240295  -0.601505  0  2.310333  0
O  O53  1  0.94768244  0.09170008  0.08279813  1  -1.25986  0  -0.238326  -0.593489  0  2.311123  0
O  O54  1  0.45102466  0.91595554  0.07785800  1  -1.225202  0  -0.2244  -0.568974  0  2.285018  0
O  O55  1  0.95297481  0.08723893  0.92243943  1  -1.224833  0  -0.226321  -0.573839  0  2.295341  0
O  O56  1  0.28547650  0.08826001  0.07781923  1  -1.269094  0  -0.234396  -0.597119  0  2.408759  0
O  O57  1  0.79442732  0.91455656  0.91873583  1  -1.258488  0  -0.234908  -0.598336  0  2.384429  0
O  O58  1  0.61949050  0.05658374  0.00169554  1  -1.425307  0  -0.448707  -0.988166  0  2.206175  0
O  O59  1  0.12113610  0.94494193  0.99674995  1  -1.429561  0  -0.447216  -0.987918  0  2.18909  0
