# generated using pymatgen
data_NaH11C6SO8
_symmetry_space_group_name_H-M   'P 1'
_cell_length_a   5.59033537
_cell_length_b   6.45549024
_cell_length_c   14.99114596
_cell_angle_alpha   77.71328348
_cell_angle_beta   85.18173579
_cell_angle_gamma   83.81900460
_symmetry_Int_Tables_number   1
_chemical_formula_structural   NaH11C6SO8
_chemical_formula_sum   'Na2 H22 C12 S2 O16'
_cell_volume   524.50104641
_cell_formula_units_Z   2
loop_
 _symmetry_equiv_pos_site_id
 _symmetry_equiv_pos_as_xyz
  1  'x, y, z'
loop_
 _atom_site_type_symbol
 _atom_site_label
 _atom_site_symmetry_multiplicity
 _atom_site_fract_x
 _atom_site_fract_y
 _atom_site_fract_z
 _atom_site_occupancy
 _atom_site_hle17_bader_spin_density
 _atom_site_hle17_ddec_charge
 _atom_site_hle17_ddec_spin_density
 _atom_site_hle17_ddec_sum_bond_order
 _atom_site_hle17_magmom
 _atom_site_hse06_10hf_bader_spin_density
 _atom_site_hse06_10hf_ddec_charge
 _atom_site_hse06_10hf_ddec_spin_density
 _atom_site_hse06_10hf_ddec_sum_bond_order
 _atom_site_hse06_10hf_magmom
 _atom_site_hse06_bader_spin_density
 _atom_site_hse06_ddec_charge
 _atom_site_hse06_ddec_spin_density
 _atom_site_hse06_ddec_sum_bond_order
 _atom_site_hse06_magmom
 _atom_site_pbe_bader_spin_density
 _atom_site_pbe_cm5_charge
 _atom_site_pbe_ddec_charge
 _atom_site_pbe_ddec_spin_density
 _atom_site_pbe_ddec_sum_bond_order
 _atom_site_pbe_magmom
Na  Na0  1  0.65610327  0.72708116  0.50330543  1  0  0.91462  0  0.361321  0  0  0.881689  0  0.498979  0  0  0.89043  0  0.478331  0  0  0.698222  0.875091  0  0.513925  0
Na  Na1  1  0.34388251  0.27292373  0.49669367  1  0  0.914594  0  0.361347  0  0  0.881689  0  0.498955  0  0  0.890428  0  0.478308  0  0  0.698226  0.87509  0  0.513902  0
H  H2  1  0.00985763  0.88055331  0.78604227  1  0  0.127771  0  0.945918  0  0  0.130013  0  1.014728  0  0  0.134495  0  1.012078  0  0  0.120341  0.126816  0  1.016734  0
H  H3  1  0.99015759  0.11944342  0.21396138  1  0  0.12779  0  0.94595  0  0  0.130056  0  1.014764  0  0  0.134544  0  1.012105  0  0  0.120356  0.126853  0  1.016781  0
H  H4  1  0.39635535  0.05928015  0.74637084  1  0  0.135272  0  0.928178  0  0  0.145153  0  0.994464  0  0  0.14874  0  0.991958  0  0  0.116207  0.142558  0  0.996346  0
H  H5  1  0.60363315  0.94071518  0.25362904  1  0  0.135335  0  0.928205  0  0  0.145235  0  0.994474  0  0  0.148826  0  0.99197  0  0  0.116217  0.142638  0  0.99636  0
H  H6  1  0.55211929  0.82009623  0.72501781  1  0  0.146815  0  0.926315  0  0  0.153287  0  0.995141  0  0  0.157306  0  0.992303  0  0  0.117843  0.150364  0  0.997259  0
H  H7  1  0.44790197  0.17987501  0.27498798  1  0  0.146695  0  0.926494  0  0  0.153224  0  0.995256  0  0  0.157242  0  0.992419  0  0  0.117833  0.150302  0  0.997382  0
H  H8  1  0.71811155  0.28934964  0.85904524  1  0  0.104669  0  0.941388  0  0  0.118678  0  1.0107  0  0  0.120248  0  1.00874  0  0  0.10575  0.117496  0  1.012097  0
H  H9  1  0.28191229  0.71065022  0.14096121  1  0  0.104531  0  0.941401  0  0  0.118596  0  1.010663  0  0  0.120165  0  1.008705  0  0  0.105663  0.117415  0  1.012059  0
H  H10  1  0.90559339  0.24580661  0.75956791  1  0  0.102446  0  0.961223  0  0  0.118602  0  1.027042  0  0  0.119121  0  1.026632  0  0  0.105519  0.118043  0  1.027584  0
H  H11  1  0.09440717  0.75419341  0.24043453  1  0  0.102471  0  0.961189  0  0  0.118648  0  1.027001  0  0  0.119169  0  1.026589  0  0  0.105544  0.118088  0  1.027541  0
H  H12  1  0.03361711  0.20340809  0.86845405  1  0  0.083292  0  0.951861  0  0  0.102799  0  1.017931  0  0  0.102385  0  1.018532  0  0  0.100648  0.102988  0  1.017597  0
H  H13  1  0.96639844  0.79658546  0.13154788  1  0  0.083397  0  0.951789  0  0  0.102845  0  1.017919  0  0  0.102433  0  1.018517  0  0  0.100652  0.103035  0  1.017588  0
H  H14  1  0.91197256  0.84876523  0.97698559  1  0  0.09509  0  0.961526  0  0  0.110881  0  1.030686  0  0  0.111573  0  1.030218  0  0  0.101633  0.110285  0  1.031124  0
H  H15  1  0.08803257  0.15122521  0.02301426  1  0  0.094984  0  0.961485  0  0  0.110856  0  1.030578  0  0  0.111546  0  1.030112  0  0  0.101585  0.110267  0  1.031015  0
H  H16  1  0.60596369  0.84577460  0.02678204  1  0  0.082404  0  0.966755  0  0  0.095751  0  1.042168  0  0  0.096413  0  1.04119  0  0  0.096555  0.095194  0  1.042921  0
H  H17  1  0.39403880  0.15420633  0.97321608  1  0  0.08251  0  0.966628  0  0  0.095752  0  1.042176  0  0  0.096413  0  1.041198  0  0  0.096553  0.09519  0  1.042945  0
H  H18  1  0.75244244  0.61650877  0.98904992  1  0  0.117188  0  0.947393  0  0  0.132867  0  1.010588  0  0  0.134291  0  1.009092  0  0  0.10727  0.131781  0  1.011701  0
H  H19  1  0.24756124  0.38347851  0.01094692  1  0  0.117189  0  0.947444  0  0  0.132852  0  1.010648  0  0  0.134275  0  1.009154  0  0  0.107241  0.131781  0  1.011747  0
H  H20  1  0.47843705  0.59059484  0.34546661  1  0  0.428562  0  0.866234  0  0  0.401406  0  0.924165  0  0  0.410573  0  0.910524  0  0  0.298534  0.394966  0  0.933755  0
H  H21  1  0.52152669  0.40941496  0.65453402  1  0  0.42828  0  0.866536  0  0  0.401127  0  0.924467  0  0  0.410295  0  0.910825  0  0  0.298378  0.394687  0  0.934058  0
H  H22  1  0.25845628  0.71438559  0.39201339  1  0  0.434793  0  0.861751  0  0  0.408414  0  0.917949  0  0  0.418027  0  0.90371  0  0  0.298039  0.401605  0  0.928027  0
H  H23  1  0.74151149  0.28561941  0.60798888  1  0  0.434907  0  0.861645  0  0  0.408541  0  0.917796  0  0  0.418151  0  0.90356  0  0  0.2981  0.401735  0  0.927869  0
C  C24  1  0.16276602  0.81216197  0.74756581  1  0  -0.27732  0  3.633881  0  0  -0.283562  0  3.881481  0  0  -0.292509  0  3.889284  0  0  -0.08169  -0.277444  0  3.876095  0
C  C25  1  0.83724553  0.18783639  0.25243246  1  0  -0.27739  0  3.63393  0  0  -0.28374  0  3.881624  0  0  -0.292686  0  3.889425  0  0  -0.081745  -0.277617  0  3.87624  0
C  C26  1  0.40084515  0.88471839  0.76592694  1  0  -0.273941  0  3.685841  0  0  -0.322409  0  3.940295  0  0  -0.327353  0  3.946318  0  0  -0.157645  -0.318782  0  3.935983  0
C  C27  1  0.59916884  0.11527360  0.23406984  1  0  -0.273871  0  3.685966  0  0  -0.322391  0  3.940427  0  0  -0.327343  0  3.946466  0  0  -0.157644  -0.318755  0  3.936081  0
C  C28  1  0.15622542  0.57293134  0.77038807  1  0  0.643438  0  3.745466  0  0  0.586891  0  4.050035  0  0  0.621121  0  4.040886  0  0  0.246761  0.563573  0  4.05589  0
C  C29  1  0.84379388  0.42706060  0.22961389  1  0  0.643556  0  3.744952  0  0  0.58721  0  4.049348  0  0  0.621437  0  4.040202  0  0  0.246937  0.563888  0  4.055205  0
C  C30  1  0.44922782  0.81538963  0.86577420  1  0  0.643892  0  3.731151  0  0  0.595299  0  4.033714  0  0  0.627147  0  4.026465  0  0  0.240018  0.57362  0  4.038196  0
C  C31  1  0.55078074  0.18462148  0.13422099  1  0  0.643858  0  3.731568  0  0  0.595364  0  4.03405  0  0  0.627216  0  4.026802  0  0  0.239912  0.573661  0  4.03854  0
C  C32  1  0.89754257  0.29882013  0.82459176  1  0  -0.062735  0  3.568645  0  0  -0.167834  0  3.837327  0  0  -0.15896  0  3.839034  0  0  -0.141716  -0.173705  0  3.83629  0
C  C33  1  0.10245807  0.70117828  0.17541549  1  0  -0.062802  0  3.568592  0  0  -0.167871  0  3.837224  0  0  -0.158999  0  3.838937  0  0  -0.141701  -0.173746  0  3.836197  0
C  C34  1  0.73601645  0.79074329  0.97592997  1  0  -0.08148  0  3.579714  0  0  -0.189219  0  3.854614  0  0  -0.180752  0  3.85557  0  0  -0.147732  -0.194733  0  3.854036  0
C  C35  1  0.26399722  0.20925188  0.02406786  1  0  -0.081512  0  3.579763  0  0  -0.189215  0  3.854757  0  0  -0.180747  0  3.85571  0  0  -0.147686  -0.194773  0  3.854169  0
S  S36  1  0.09314536  0.91139441  0.62784746  1  0  1.333612  0  5.627705  0  0  1.244989  0  6.15452  0  0  1.290099  0  6.132816  0  0  0.510112  1.213812  0  6.16855  0
S  S37  1  0.90683739  0.08862323  0.37215123  1  0  1.333445  0  5.627695  0  0  1.244824  0  6.154559  0  0  1.289929  0  6.132857  0  0  0.509961  1.213646  0  6.168595  0
O  O38  1  0.40721044  0.61806112  0.40448476  1  0  -0.91718  0  1.742814  0  0  -0.878397  0  1.90366  0  0  -0.893451  0  1.872137  0  0  -0.693373  -0.867707  0  1.925731  0
O  O39  1  0.59278880  0.38193575  0.59550734  1  0  -0.916967  0  1.743014  0  0  -0.878204  0  1.903918  0  0  -0.893255  0  1.872401  0  0  -0.693233  -0.867514  0  1.925987  0
O  O40  1  0.89407133  0.79414961  0.61481353  1  0  -0.696546  0  1.956818  0  0  -0.657092  0  2.212787  0  0  -0.675323  0  2.196785  0  0  -0.385586  -0.644226  0  2.223463  0
O  O41  1  0.10591321  0.20585053  0.38518003  1  0  -0.696489  0  1.957129  0  0  -0.656992  0  2.213022  0  0  -0.675218  0  2.197021  0  0  -0.385484  -0.644127  0  2.223699  0
O  O42  1  0.02858924  0.14259194  0.62106734  1  0  -0.71447  0  1.958292  0  0  -0.661389  0  2.199833  0  0  -0.681143  0  2.184055  0  0  -0.36263  -0.647381  0  2.210335  0
O  O43  1  0.97138109  0.85740509  0.37893626  1  0  -0.71446  0  1.95797  0  0  -0.661365  0  2.199514  0  0  -0.681121  0  2.183738  0  0  -0.362604  -0.64736  0  2.210019  0
O  O44  1  0.31492674  0.87305500  0.57228233  1  0  -0.72658  0  1.971804  0  0  -0.684529  0  2.235047  0  0  -0.703466  0  2.219726  0  0  -0.420376  -0.671111  0  2.245121  0
O  O45  1  0.68505803  0.12696105  0.42771178  1  0  -0.726436  0  1.971836  0  0  -0.684379  0  2.235049  0  0  -0.703323  0  2.219753  0  0  -0.420301  -0.670965  0  2.245125  0
O  O46  1  0.32481986  0.44201733  0.75680417  1  0  -0.544881  0  1.966048  0  0  -0.488984  0  2.17846  0  0  -0.510221  0  2.170464  0  0  -0.267345  -0.474689  0  2.184017  0
O  O47  1  0.67518511  0.55799219  0.24320062  1  0  -0.544957  0  1.965581  0  0  -0.489138  0  2.177962  0  0  -0.510368  0  2.169956  0  0  -0.267442  -0.474856  0  2.183526  0
O  O48  1  0.31630138  0.71405754  0.92442770  1  0  -0.533335  0  1.945055  0  0  -0.486586  0  2.159553  0  0  -0.507007  0  2.153935  0  0  -0.2741  -0.472525  0  2.163105  0
O  O49  1  0.68368747  0.28598869  0.07557622  1  0  -0.533318  0  1.945149  0  0  -0.48661  0  2.159617  0  0  -0.507036  0  2.154001  0  0  -0.274003  -0.472549  0  2.163169  0
O  O50  1  0.93866765  0.52147546  0.80709940  1  0  -0.267215  0  2.317356  0  0  -0.188296  0  2.55992  0  0  -0.21072  0  2.56  0  0  -0.159382  -0.172926  0  2.55944  0
O  O51  1  0.06134726  0.47852446  0.19290397  1  0  -0.267175  0  2.317284  0  0  -0.188434  0  2.559905  0  0  -0.210862  0  2.559991  0  0  -0.159435  -0.173069  0  2.559432  0
O  O52  1  0.65951092  0.87735725  0.88414614  1  0  -0.298214  0  2.315369  0  0  -0.218456  0  2.563282  0  0  -0.241093  0  2.563719  0  0  -0.171923  -0.20299  0  2.562654  0
O  O53  1  0.34051012  0.12263629  0.11584896  1  0  -0.29813  0  2.315683  0  0  -0.218447  0  2.563593  0  0  -0.24108  0  2.564023  0  0  -0.171833  -0.202918  0  2.562927  0
