# generated using pymatgen
data_HgH7C9(SN2)2
_symmetry_space_group_name_H-M   'P 1'
_cell_length_a   8.07210739
_cell_length_b   11.84331233
_cell_length_c   14.77463786
_cell_angle_alpha   112.15916962
_cell_angle_beta   90.03846610
_cell_angle_gamma   109.87947973
_symmetry_Int_Tables_number   1
_chemical_formula_structural   HgH7C9(SN2)2
_chemical_formula_sum   'Hg4 H28 C36 S8 N16'
_cell_volume   1216.63204554
_cell_formula_units_Z   4
loop_
 _symmetry_equiv_pos_site_id
 _symmetry_equiv_pos_as_xyz
  1  'x, y, z'
loop_
 _atom_site_type_symbol
 _atom_site_label
 _atom_site_symmetry_multiplicity
 _atom_site_fract_x
 _atom_site_fract_y
 _atom_site_fract_z
 _atom_site_occupancy
 _atom_site_hle17_bader_spin_density
 _atom_site_hle17_ddec_charge
 _atom_site_hle17_ddec_spin_density
 _atom_site_hle17_ddec_sum_bond_order
 _atom_site_hle17_magmom
 _atom_site_hse06_10hf_bader_spin_density
 _atom_site_hse06_10hf_ddec_charge
 _atom_site_hse06_10hf_ddec_spin_density
 _atom_site_hse06_10hf_ddec_sum_bond_order
 _atom_site_hse06_10hf_magmom
 _atom_site_hse06_bader_spin_density
 _atom_site_hse06_ddec_charge
 _atom_site_hse06_ddec_spin_density
 _atom_site_hse06_ddec_sum_bond_order
 _atom_site_hse06_magmom
 _atom_site_pbe_bader_spin_density
 _atom_site_pbe_cm5_charge
 _atom_site_pbe_ddec_charge
 _atom_site_pbe_ddec_spin_density
 _atom_site_pbe_ddec_sum_bond_order
 _atom_site_pbe_magmom
Hg  Hg0  1  0.34279053  0.83155392  0.79580128  1  0  0.647381  0  2.130902  0  0  0.494209  0  2.620357  0  0  0.536047  0  2.595233  0  0  0.546673  0.465851  0  2.637303  0
Hg  Hg1  1  0.51122910  0.16877939  0.70444387  1  0  0.646633  0  2.131317  0  0  0.493018  0  2.621595  0  0  0.534886  0  2.596424  0  0  0.546636  0.464968  0  2.637713  0
Hg  Hg2  1  0.65720928  0.16844794  0.20420019  1  0  0.647407  0  2.130913  0  0  0.494222  0  2.620388  0  0  0.536059  0  2.595262  0  0  0.546667  0.465864  0  2.637342  0
Hg  Hg3  1  0.48877022  0.83122149  0.29555730  1  0  0.646575  0  2.131355  0  0  0.492991  0  2.621622  0  0  0.534862  0  2.59645  0  0  0.546616  0.464942  0  2.637747  0
H  H4  1  0.08665099  0.51041741  0.69386413  1  0  0.082886  0  0.942557  0  0  0.090004  0  1.007125  0  0  0.092457  0  1.004873  0  0  0.113228  0.088187  0  1.008862  0
H  H5  1  0.57615671  0.48947880  0.80622731  1  0  0.08271  0  0.941972  0  0  0.089023  0  1.00759  0  0  0.091555  0  1.005218  0  0  0.112906  0.087308  0  1.009116  0
H  H6  1  0.91334040  0.48958248  0.30614080  1  0  0.082906  0  0.942703  0  0  0.090011  0  1.007254  0  0  0.092463  0  1.005003  0  0  0.113243  0.088188  0  1.008995  0
H  H7  1  0.42384733  0.51051913  0.19377365  1  0  0.082719  0  0.941944  0  0  0.089035  0  1.00757  0  0  0.091567  0  1.005198  0  0  0.112909  0.087318  0  1.009096  0
H  H8  1  0.80935464  0.35482551  0.57750921  1  0  0.100548  0  0.97178  0  0  0.106872  0  1.038979  0  0  0.108574  0  1.040087  0  0  0.101775  0.105637  0  1.0383  0
H  H9  1  0.45448861  0.64533208  0.92240010  1  0  0.10046  0  0.972032  0  0  0.107124  0  1.038632  0  0  0.108746  0  1.03993  0  0  0.101659  0.105626  0  1.038562  0
H  H10  1  0.19064568  0.64517243  0.42248566  1  0  0.100578  0  0.971729  0  0  0.106915  0  1.038923  0  0  0.108612  0  1.040042  0  0  0.10182  0.105689  0  1.03822  0
H  H11  1  0.54552284  0.35467074  0.07760708  1  0  0.100441  0  0.972117  0  0  0.107174  0  1.038631  0  0  0.10879  0  1.039934  0  0  0.101681  0.105675  0  1.038563  0
H  H12  1  0.65095283  0.43874468  0.48539837  1  0  0.093315  0  0.943132  0  0  0.100679  0  1.008137  0  0  0.103431  0  1.006484  0  0  0.101987  0.098724  0  1.009269  0
H  H13  1  0.21242019  0.56174566  0.01451045  1  0  0.093791  0  0.94389  0  0  0.101495  0  1.008576  0  0  0.104205  0  1.006993  0  0  0.10233  0.099585  0  1.009627  0
H  H14  1  0.34904649  0.56125620  0.51459941  1  0  0.093309  0  0.943185  0  0  0.10069  0  1.008151  0  0  0.103444  0  1.006498  0  0  0.102022  0.098735  0  1.009294  0
H  H15  1  0.78758632  0.43825227  0.98549186  1  0  0.093755  0  0.943904  0  0  0.101468  0  1.008586  0  0  0.104178  0  1.007006  0  0  0.102319  0.09956  0  1.009632  0
H  H16  1  0.77883648  0.67649669  0.51581203  1  0  0.107376  0  0.975779  0  0  0.114641  0  1.043129  0  0  0.117543  0  1.042435  0  0  0.101941  0.112548  0  1.043798  0
H  H17  1  0.10250670  0.32401017  0.98422285  1  0  0.106894  0  0.978352  0  0  0.114153  0  1.045535  0  0  0.116994  0  1.044893  0  0  0.101837  0.112165  0  1.046028  0
H  H18  1  0.22116283  0.32350419  0.48418711  1  0  0.107351  0  0.975819  0  0  0.114612  0  1.043175  0  0  0.117511  0  1.042483  0  0  0.101941  0.11252  0  1.04384  0
H  H19  1  0.89749486  0.67598777  0.01577811  1  0  0.106896  0  0.978376  0  0  0.114157  0  1.045549  0  0  0.117002  0  1.04491  0  0  0.101823  0.11217  0  1.046045  0
H  H20  1  0.87759236  0.93532744  0.61574002  1  0  0.131734  0  0.950745  0  0  0.149223  0  1.017693  0  0  0.150798  0  1.018056  0  0  0.093168  0.148043  0  1.017551  0
H  H21  1  0.94229221  0.06499742  0.88426351  1  0  0.131829  0  0.951704  0  0  0.149169  0  1.018707  0  0  0.150701  0  1.019105  0  0  0.093224  0.148076  0  1.018411  0
H  H22  1  0.12240992  0.06467442  0.38425536  1  0  0.131707  0  0.950744  0  0  0.149212  0  1.017663  0  0  0.150789  0  1.018026  0  0  0.093187  0.148035  0  1.017521  0
H  H23  1  0.05770612  0.93500149  0.11573977  1  0  0.131798  0  0.951715  0  0  0.149115  0  1.018778  0  0  0.150647  0  1.019175  0  0  0.09321  0.148022  0  1.018487  0
H  H24  1  0.97395897  0.85646992  0.51412338  1  0  0.136974  0  0.969477  0  0  0.155378  0  1.030969  0  0  0.157067  0  1.03096  0  0  0.094582  0.154149  0  1.031029  0
H  H25  1  0.11743353  0.14407171  0.98597257  1  0  0.136196  0  0.970349  0  0  0.154681  0  1.031859  0  0  0.156361  0  1.031847  0  0  0.094315  0.153409  0  1.031961  0
H  H26  1  0.02604507  0.14352802  0.48587284  1  0  0.136966  0  0.969451  0  0  0.155328  0  1.030989  0  0  0.157017  0  1.030982  0  0  0.094584  0.154104  0  1.031043  0
H  H27  1  0.88257371  0.85593015  0.01402890  1  0  0.136159  0  0.97043  0  0  0.154651  0  1.03193  0  0  0.156331  0  1.031916  0  0  0.094287  0.153384  0  1.032025  0
H  H28  1  0.10012975  0.01724028  0.60509427  1  0  0.131616  0  0.963362  0  0  0.145304  0  1.032832  0  0  0.146933  0  1.033379  0  0  0.094814  0.144044  0  1.032671  0
H  H29  1  0.08309074  0.98320647  0.89526825  1  0  0.131394  0  0.963981  0  0  0.145045  0  1.033443  0  0  0.146685  0  1.033985  0  0  0.094701  0.143925  0  1.032964  0
H  H30  1  0.89987478  0.98275864  0.39490225  1  0  0.131552  0  0.963369  0  0  0.145212  0  1.032891  0  0  0.146841  0  1.03344  0  0  0.094782  0.143955  0  1.032733  0
H  H31  1  0.91691180  0.01679342  0.10473330  1  0  0.131402  0  0.963972  0  0  0.145053  0  1.033436  0  0  0.146693  0  1.033979  0  0  0.094719  0.143936  0  1.032956  0
C  C32  1  0.01317525  0.54503620  0.65508578  1  0  0.134087  0  3.70511  0  0  0.105026  0  3.956158  0  0  0.111312  0  3.974353  0  0  0.052068  0.100944  0  3.943653  0
C  C33  1  0.46788218  0.45497488  0.84486938  1  0  0.134595  0  3.702307  0  0  0.105938  0  3.953169  0  0  0.11221  0  3.971311  0  0  0.052239  0.101927  0  3.940861  0
C  C34  1  0.98681787  0.45496468  0.34491539  1  0  0.134106  0  3.705266  0  0  0.105084  0  3.956258  0  0  0.11137  0  3.974449  0  0  0.052103  0.101008  0  3.943747  0
C  C35  1  0.53212335  0.54502109  0.15513234  1  0  0.134562  0  3.702431  0  0  0.105896  0  3.953329  0  0  0.112168  0  3.971472  0  0  0.052234  0.101887  0  3.941018  0
C  C36  1  0.85782129  0.45752728  0.58904618  1  0  -0.102634  0  3.72295  0  0  -0.117694  0  3.973616  0  0  -0.123587  0  3.997069  0  0  -0.078587  -0.113995  0  3.957946  0
C  C37  1  0.40015622  0.54263557  0.91086429  1  0  -0.102925  0  3.723346  0  0  -0.117603  0  3.97325  0  0  -0.123519  0  3.996741  0  0  -0.078357  -0.114021  0  3.957918  0
C  C38  1  0.14217036  0.54247066  0.41095275  1  0  -0.102646  0  3.723071  0  0  -0.117744  0  3.973733  0  0  -0.123635  0  3.997185  0  0  -0.078621  -0.114045  0  3.958066  0
C  C39  1  0.59984954  0.45736334  0.08914170  1  0  -0.103036  0  3.723605  0  0  -0.11775  0  3.973465  0  0  -0.123662  0  3.996957  0  0  -0.078408  -0.114169  0  3.958132  0
C  C40  1  0.77159228  0.50465235  0.53836130  1  0  -0.004066  0  3.711341  0  0  -0.019329  0  3.958258  0  0  -0.017353  0  3.977244  0  0  -0.064837  -0.020356  0  3.94531  0
C  C41  1  0.26687905  0.49567985  0.96152988  1  0  -0.004909  0  3.713377  0  0  -0.021101  0  3.961038  0  0  -0.019079  0  3.979913  0  0  -0.065629  -0.022113  0  3.947701  0
C  C42  1  0.22840553  0.49535048  0.46163911  1  0  -0.004094  0  3.711268  0  0  -0.019365  0  3.958206  0  0  -0.017384  0  3.977182  0  0  -0.064914  -0.020396  0  3.945263  0
C  C43  1  0.73312251  0.50431808  0.03847513  1  0  -0.004707  0  3.713398  0  0  -0.020907  0  3.961047  0  0  -0.018881  0  3.979917  0  0  -0.065564  -0.021917  0  3.947705  0
C  C44  1  0.84219936  0.63729520  0.55540764  1  0  -0.117434  0  3.678599  0  0  -0.136745  0  3.921928  0  0  -0.142267  0  3.943406  0  0  -0.072942  -0.133193  0  3.907557  0
C  C45  1  0.20482953  0.36304874  0.94453338  1  0  -0.116454  0  3.683529  0  0  -0.135716  0  3.926968  0  0  -0.141127  0  3.948465  0  0  -0.072164  -0.131808  0  3.912167  0
C  C46  1  0.15779699  0.36270470  0.44459390  1  0  -0.117397  0  3.678461  0  0  -0.136704  0  3.921774  0  0  -0.142226  0  3.943259  0  0  -0.072908  -0.133145  0  3.90741  0
C  C47  1  0.79517128  0.63695018  0.05546990  1  0  -0.116634  0  3.683626  0  0  -0.135903  0  3.927069  0  0  -0.141325  0  3.948575  0  0  -0.0722  -0.131999  0  3.912271  0
C  C48  1  0.99542439  0.71973294  0.62500088  1  0  0.15418  0  3.745067  0  0  0.153378  0  3.985179  0  0  0.156632  0  4.006733  0  0  0.1192  0.151114  0  3.970617  0
C  C49  1  0.27531360  0.28039365  0.87492335  1  0  0.152666  0  3.745901  0  0  0.152328  0  3.986379  0  0  0.155588  0  4.007971  0  0  0.119259  0.150297  0  3.971522  0
C  C50  1  0.00456899  0.28026597  0.37500105  1  0  0.154209  0  3.745187  0  0  0.153424  0  3.985292  0  0  0.156671  0  4.006864  0  0  0.119247  0.151155  0  3.970738  0
C  C51  1  0.72468399  0.71960624  0.12507752  1  0  0.152765  0  3.745699  0  0  0.152419  0  3.98615  0  0  0.155681  0  4.007736  0  0  0.11929  0.150392  0  3.971293  0
C  C52  1  0.06461396  0.86315702  0.65337546  1  0  0.279429  0  3.63387  0  0  0.268925  0  3.892518  0  0  0.28377  0  3.903243  0  0  0.162231  0.258888  0  3.885112  0
C  C53  1  0.20131582  0.13702423  0.84668737  1  0  0.279995  0  3.633564  0  0  0.268009  0  3.894277  0  0  0.28276  0  3.905102  0  0  0.162139  0.257821  0  3.887015  0
C  C54  1  0.93538461  0.13684484  0.34662398  1  0  0.279377  0  3.633851  0  0  0.268802  0  3.892562  0  0  0.283653  0  3.903279  0  0  0.162166  0.258763  0  3.885168  0
C  C55  1  0.79868845  0.86297665  0.15331244  1  0  0.27991  0  3.633512  0  0  0.268047  0  3.894087  0  0  0.282798  0  3.904911  0  0  0.162172  0.257863  0  3.886824  0
C  C56  1  0.00115079  0.92071318  0.59298570  1  0  -0.38874  0  3.681432  0  0  -0.465026  0  3.912037  0  0  -0.470042  0  3.918468  0  0  -0.243392  -0.461321  0  3.907686  0
C  C57  1  0.08049584  0.07966565  0.90712992  1  0  -0.388547  0  3.683194  0  0  -0.464118  0  3.91374  0  0  -0.469048  0  3.920157  0  0  -0.243377  -0.460438  0  3.909241  0
C  C58  1  0.99885373  0.07928574  0.40701285  1  0  -0.388591  0  3.681234  0  0  -0.464809  0  3.911903  0  0  -0.469819  0  3.918318  0  0  -0.243349  -0.461102  0  3.907547  0
C  C59  1  0.91950745  0.92033327  0.09286930  1  0  -0.388418  0  3.683263  0  0  -0.464019  0  3.913775  0  0  -0.46895  0  3.92019  0  0  -0.243337  -0.460341  0  3.909274  0
C  C60  1  0.69278713  0.75415465  0.78962912  1  0  0.229786  0  3.944979  0  0  0.224836  0  4.246142  0  0  0.240842  0  4.262484  0  0  0.127835  0.213872  0  4.235201  0
C  C61  1  0.93833386  0.24553060  0.71016453  1  0  0.228828  0  3.942283  0  0  0.223927  0  4.243545  0  0  0.239943  0  4.259902  0  0  0.127698  0.213057  0  4.232581  0
C  C62  1  0.30720620  0.24585409  0.21036360  1  0  0.229887  0  3.944883  0  0  0.224933  0  4.246048  0  0  0.240936  0  4.262389  0  0  0.127918  0.213965  0  4.235123  0
C  C63  1  0.06166225  0.75446636  0.28983139  1  0  0.228835  0  3.942512  0  0  0.223932  0  4.243767  0  0  0.239949  0  4.26012  0  0  0.127704  0.213064  0  4.232799  0
C  C64  1  0.36856109  0.86650794  0.02212259  1  0  0.260192  0  3.939662  0  0  0.248544  0  4.236677  0  0  0.267751  0  4.252232  0  0  0.13967  0.235493  0  4.226011  0
C  C65  1  0.50266725  0.13337924  0.47793998  1  0  0.258792  0  3.942093  0  0  0.247102  0  4.239114  0  0  0.266294  0  4.254695  0  0  0.138474  0.234063  0  4.228392  0
C  C66  1  0.63143897  0.13349196  0.97787829  1  0  0.26013  0  3.939611  0  0  0.248476  0  4.236642  0  0  0.267685  0  4.252194  0  0  0.139612  0.23543  0  4.225962  0
C  C67  1  0.49733357  0.86661968  0.52205992  1  0  0.258757  0  3.942471  0  0  0.247064  0  4.239489  0  0  0.266256  0  4.255072  0  0  0.138464  0.234024  0  4.228766  0
S  S68  1  0.60337093  0.80142972  0.71563149  1  0  -0.238892  0  2.33664  0  0  -0.206227  0  2.697462  0  0  -0.224095  0  2.694009  0  0  -0.1064  -0.194126  0  2.699844  0
S  S69  1  0.80206199  0.19847902  0.78432732  1  0  -0.238896  0  2.336574  0  0  -0.206199  0  2.697714  0  0  -0.224043  0  2.694203  0  0  -0.106417  -0.194155  0  2.69988  0
S  S70  1  0.39662712  0.19857606  0.28436643  1  0  -0.238908  0  2.336397  0  0  -0.206241  0  2.697213  0  0  -0.224108  0  2.693761  0  0  -0.106389  -0.194134  0  2.699599  0
S  S71  1  0.19794055  0.80152088  0.21567017  1  0  -0.238883  0  2.336599  0  0  -0.206181  0  2.69773  0  0  -0.224028  0  2.694218  0  0  -0.10642  -0.194138  0  2.699893  0
S  S72  1  0.19499547  0.77959489  0.93418611  1  0  -0.215737  0  2.278669  0  0  -0.179891  0  2.624633  0  0  -0.195873  0  2.617688  0  0  -0.080619  -0.169063  0  2.629368  0
S  S73  1  0.41597669  0.22051442  0.56565078  1  0  -0.216021  0  2.278568  0  0  -0.18013  0  2.624339  0  0  -0.196062  0  2.617371  0  0  -0.08078  -0.169076  0  2.628765  0
S  S74  1  0.80500707  0.22040500  0.06581612  1  0  -0.215695  0  2.278628  0  0  -0.179857  0  2.624609  0  0  -0.195839  0  2.61766  0  0  -0.080587  -0.169032  0  2.629344  0
S  S75  1  0.58402090  0.77948548  0.43435009  1  0  -0.21598  0  2.278623  0  0  -0.180083  0  2.624391  0  0  -0.196017  0  2.617422  0  0  -0.080749  -0.16903  0  2.628822  0
N  N76  1  0.07859278  0.67228340  0.67276084  1  0  -0.315202  0  3.258801  0  0  -0.249563  0  3.519677  0  0  -0.268471  0  3.542103  0  0  -0.304926  -0.236542  0  3.504  0
N  N77  1  0.40589639  0.32771807  0.82719815  1  0  -0.314143  0  3.256036  0  0  -0.248237  0  3.516545  0  0  -0.267154  0  3.538982  0  0  -0.304947  -0.235408  0  3.50085  0
N  N78  1  0.92139836  0.32771846  0.32724469  1  0  -0.315272  0  3.258841  0  0  -0.249628  0  3.519687  0  0  -0.268533  0  3.542114  0  0  -0.304993  -0.236605  0  3.504008  0
N  N79  1  0.59410172  0.67227790  0.17280221  1  0  -0.314072  0  3.255936  0  0  -0.248224  0  3.516525  0  0  -0.26714  0  3.538961  0  0  -0.304966  -0.235396  0  3.500831  0
N  N80  1  0.17421422  0.93405776  0.73542089  1  0  -0.204008  0  3.231847  0  0  -0.146769  0  3.501455  0  0  -0.165147  0  3.523804  0  0  -0.197807  -0.134167  0  3.485774  0
N  N81  1  0.24010916  0.06608097  0.76472412  1  0  -0.200045  0  3.228139  0  0  -0.1427  0  3.497994  0  0  -0.161097  0  3.520483  0  0  -0.196413  -0.130372  0  3.482455  0
N  N82  1  0.82578412  0.06594115  0.26457901  1  0  -0.20402  0  3.231796  0  0  -0.146693  0  3.501391  0  0  -0.165076  0  3.523741  0  0  -0.197774  -0.134095  0  3.485724  0
N  N83  1  0.75988696  0.93391599  0.23527450  1  0  -0.200006  0  3.22806  0  0  -0.142761  0  3.497937  0  0  -0.161158  0  3.520424  0  0  -0.196462  -0.130435  0  3.482405  0
N  N84  1  0.76432270  0.72092181  0.83901143  1  0  -0.439144  0  2.61565  0  0  -0.413241  0  2.838659  0  0  -0.425474  0  2.850196  0  0  -0.34321  -0.405026  0  2.830958  0
N  N85  1  0.04282322  0.27857643  0.66065912  1  0  -0.438265  0  2.614448  0  0  -0.412549  0  2.837618  0  0  -0.424785  0  2.849172  0  0  -0.342805  -0.404333  0  2.830039  0
N  N86  1  0.23567039  0.27908398  0.16098378  1  0  -0.439236  0  2.615853  0  0  -0.413316  0  2.838859  0  0  -0.425547  0  2.85039  0  0  -0.343273  -0.405089  0  2.831145  0
N  N87  1  0.95717364  0.72141955  0.33933380  1  0  -0.438279  0  2.614674  0  0  -0.41257  0  2.837864  0  0  -0.424804  0  2.849415  0  0  -0.34281  -0.404354  0  2.830285  0
N  N88  1  0.48950615  0.92644743  0.08729638  1  0  -0.464875  0  2.784607  0  0  -0.423392  0  3.047398  0  0  -0.441729  0  3.058612  0  0  -0.357114  -0.410928  0  3.039664  0
N  N89  1  0.56365930  0.07327485  0.41287921  1  0  -0.463355  0  2.786154  0  0  -0.421824  0  3.048779  0  0  -0.440161  0  3.060053  0  0  -0.355885  -0.409327  0  3.040933  0
N  N90  1  0.51049613  0.07355442  0.91270441  1  0  -0.464838  0  2.78458  0  0  -0.423353  0  3.047373  0  0  -0.44169  0  3.058586  0  0  -0.357081  -0.410888  0  3.039626  0
N  N91  1  0.43634350  0.92672308  0.58711971  1  0  -0.46334  0  2.786426  0  0  -0.42179  0  3.04902  0  0  -0.440125  0  3.060294  0  0  -0.355897  -0.409291  0  3.041171  0
