# generated using pymatgen
data_CsH52C49N8ClO3
_symmetry_space_group_name_H-M   'P 1'
_cell_length_a   13.54412034
_cell_length_b   13.92522044
_cell_length_c   14.42244242
_cell_angle_alpha   84.66352217
_cell_angle_beta   82.93342347
_cell_angle_gamma   71.50217300
_symmetry_Int_Tables_number   1
_chemical_formula_structural   CsH52C49N8ClO3
_chemical_formula_sum   'Cs2 H104 C98 N16 Cl2 O6'
_cell_volume   2555.80007565
_cell_formula_units_Z   2
loop_
 _symmetry_equiv_pos_site_id
 _symmetry_equiv_pos_as_xyz
  1  'x, y, z'
loop_
 _atom_site_type_symbol
 _atom_site_label
 _atom_site_symmetry_multiplicity
 _atom_site_fract_x
 _atom_site_fract_y
 _atom_site_fract_z
 _atom_site_occupancy
 _atom_site_pbe_bader_charge
 _atom_site_pbe_bader_spin_density
 _atom_site_pbe_cm5_charge
 _atom_site_pbe_ddec_charge
 _atom_site_pbe_ddec_spin_density
 _atom_site_pbe_ddec_sum_bond_order
 _atom_site_pbe_magmom
Cs  Cs0  1  0.67654361  0.49156738  0.95315338  1  0.903217  0  0.835228  0.852259  0  0.856811  0
Cs  Cs1  1  0.32345790  0.50843194  0.04684650  1  0.903241  0  0.835227  0.852264  0  0.856792  0
H  H2  1  0.82659206  0.71178573  0.78366797  1  0.473049  0  0.282707  0.247054  0  1.019951  0
H  H3  1  0.17340696  0.28821207  0.21633233  1  0.473093  0  0.282693  0.24706  0  1.019961  0
H  H4  1  0.98281832  0.92983695  0.78973937  1  0.032866  0  0.090162  0.108692  0  1.039783  0
H  H5  1  0.01717701  0.07016313  0.21026256  1  0.032793  0  0.090148  0.10871  0  1.039705  0
H  H6  1  0.65089019  0.73916893  0.74642592  1  0.472855  0  0.289661  0.252322  0  1.005314  0
H  H7  1  0.34910959  0.26083115  0.25357479  1  0.472911  0  0.289663  0.252341  0  1.005316  0
H  H8  1  0.79262309  0.99539820  0.88876718  1  0.079365  0  0.087997  0.108636  0  1.053828  0
H  H9  1  0.20737395  0.00459884  0.11123550  1  0.079516  0  0.088014  0.108642  0  1.053836  0
H  H10  1  0.70252418  0.65885492  0.59550815  1  0.486387  0  0.291448  0.253132  0  1.001849  0
H  H11  1  0.29747460  0.34114593  0.40449122  1  0.486362  0  0.291485  0.253168  0  1.001865  0
H  H12  1  0.88212243  0.65273978  0.63249411  1  0.473243  0  0.282562  0.248877  0  1.018342  0
H  H13  1  0.11787439  0.34726258  0.36750536  1  0.47323  0  0.282575  0.248869  0  1.018355  0
H  H14  1  0.94307354  0.48456962  0.86970356  1  0.477699  0  0.320894  0.280187  0  0.945109  0
H  H15  1  0.05693146  0.51543274  0.13029703  1  0.477627  0  0.320936  0.280206  0  0.945168  0
H  H16  1  0.47290310  0.01970333  0.85630855  1  0.040756  0  0.092647  0.110628  0  1.069633  0
H  H17  1  0.52709519  0.98029447  0.14369392  1  0.040766  0  0.092666  0.11064  0  1.069593  0
H  H18  1  0.38129606  0.98991812  0.70887595  1  0.039389  0  0.09567  0.115625  0  1.03982  0
H  H19  1  0.61870373  0.01008195  0.29112546  1  0.03938  0  0.095645  0.115577  0  1.039849  0
H  H20  1  0.39689418  0.51739795  0.70026531  1  0.451333  0  0.328208  0.283656  0  0.917059  0
H  H21  1  0.60310632  0.48259986  0.29973412  1  0.451357  0  0.328197  0.283648  0  0.91692  0
H  H22  1  0.51481061  0.90819038  0.44003554  1  0.077187  0  0.097036  0.118593  0  1.035982  0
H  H23  1  0.48518668  0.09181047  0.55996332  1  0.077232  0  0.09708  0.118618  0  1.035985  0
H  H24  1  0.70685305  0.83845140  0.34413286  1  0.041014  0  0.091094  0.107667  0  1.042211  0
H  H25  1  0.29314425  0.16154945  0.65586669  1  0.041402  0  0.091103  0.107686  0  1.042126  0
H  H26  1  0.01547833  0.75913308  0.38001505  1  0.054585  0  0.090277  0.104949  0  1.070823  0
H  H27  1  0.98451921  0.24086701  0.61998315  1  0.054597  0  0.090299  0.10499  0  1.070825  0
H  H28  1  0.10882999  0.79492811  0.52318881  1  0.038502  0  0.092042  0.112537  0  1.031592  0
H  H29  1  0.89116803  0.20507046  0.47680877  1  0.038484  0  0.092019  0.112486  0  1.031588  0
H  H30  1  0.98235947  0.58408620  0.74021965  1  0.040227  0  0.085217  0.079389  0  1.050729  0
H  H31  1  0.01764376  0.41591238  0.25977939  1  0.040266  0  0.085222  0.079395  0  1.050704  0
H  H32  1  0.11720279  0.56587038  0.71732831  1  0.013742  0  0.090943  0.092655  0  0.98785  0
H  H33  1  0.88279749  0.43413275  0.28266930  1  0.01363  0  0.090955  0.092607  0  0.987861  0
H  H34  1  0.11115374  0.63359991  0.88034902  1  0.045102  0  0.102508  0.114883  0  0.996892  0
H  H35  1  0.88884876  0.36640095  0.11964852  1  0.045062  0  0.102494  0.114882  0  0.996913  0
H  H36  1  0.97762980  0.63998543  0.89793908  1  0.040357  0  0.103334  0.121277  0  0.990817  0
H  H37  1  0.02237442  0.36001238  0.10205991  1  0.040303  0  0.103354  0.121278  0  0.990782  0
H  H38  1  0.19433797  0.28146141  0.87696405  1  0.137079  0  0.113026  0.13334  0  1.013511  0
H  H39  1  0.80566503  0.71853792  0.12303565  1  0.137127  0  0.112973  0.133257  0  1.013496  0
H  H40  1  0.19650936  0.09982877  0.90998677  1  0.064059  0  0.105866  0.097475  0  1.017283  0
H  H41  1  0.80348796  0.90017206  0.09001694  1  0.064416  0  0.105847  0.097417  0  1.017282  0
H  H42  1  0.02797214  0.06306991  0.95518599  1  0.071902  0  0.100884  0.107296  0  1.03278  0
H  H43  1  0.97202571  0.93693394  0.04481948  1  0.07173  0  0.10091  0.107338  0  1.032672  0
H  H44  1  0.88184757  0.11471582  0.09458969  1  0.056348  0  0.101332  0.099535  0  1.02136  0
H  H45  1  0.11815517  0.88528427  0.90540859  1  0.056332  0  0.101337  0.099549  0  1.02135  0
H  H46  1  0.70885827  0.08417312  0.14015548  1  0.081903  0  0.099418  0.098592  0  1.025318  0
H  H47  1  0.29114545  0.91582394  0.85984294  1  0.081889  0  0.09941  0.098574  0  1.025348  0
H  H48  1  0.56587250  0.15431010  0.03974456  1  0.067651  0  0.101556  0.099026  0  1.046176  0
H  H49  1  0.43412951  0.84568999  0.96025519  1  0.06765  0  0.101545  0.099034  0  1.046186  0
H  H50  1  0.57779015  0.11112053  0.83955686  1  0.110637  0  0.103401  0.112182  0  1.046522  0
H  H51  1  0.42221359  0.88887880  0.16044275  1  0.11067  0  0.103417  0.112204  0  1.046475  0
H  H52  1  0.44309884  0.17552913  0.72490611  1  0.114976  0  0.109048  0.110502  0  1.015594  0
H  H53  1  0.55690663  0.82446944  0.27509337  1  0.11505  0  0.109033  0.110501  0  1.015557  0
H  H54  1  0.37064252  0.36127961  0.69032151  1  0.067446  0  0.10699  0.120117  0  1.00914  0
H  H55  1  0.62936119  0.63871746  0.30967552  1  0.067403  0  0.106994  0.120148  0  1.009063  0
H  H56  1  0.40415943  0.74116056  0.78986441  1  0.081565  0  0.104634  0.123967  0  1.010629  0
H  H57  1  0.59584257  0.25883725  0.21013554  1  0.081525  0  0.104629  0.12394  0  1.010635  0
H  H58  1  0.33571196  0.69501222  0.71641167  1  0.041663  0  0.097768  0.106425  0  1.02001  0
H  H59  1  0.66428981  0.30498862  0.28358874  1  0.041639  0  0.09775  0.106428  0  1.020001  0
H  H60  1  0.57425073  0.63987638  0.68785482  1  0.031551  0  0.088765  0.082358  0  1.031377  0
H  H61  1  0.42575002  0.36012295  0.31214306  1  0.031593  0  0.088739  0.082365  0  1.031374  0
H  H62  1  0.48997460  0.63744540  0.60465961  1  0.011737  0  0.087337  0.083406  0  0.985715  0
H  H63  1  0.51002618  0.36255620  0.39533877  1  0.011863  0  0.087339  0.083395  0  0.985743  0
H  H64  1  0.38392725  0.92123907  0.55859367  1  0.068795  0  0.095889  0.13614  0  0.998095  0
H  H65  1  0.61607155  0.07876176  0.44140917  1  0.068801  0  0.095887  0.136136  0  0.998063  0
H  H66  1  0.32438199  0.85290516  0.64514759  1  0.005407  0  0.086929  0.119737  0  1.013649  0
H  H67  1  0.67561780  0.14709492  0.35485381  1  0.005348  0  0.086925  0.119722  0  1.013684  0
H  H68  1  0.37317991  0.80269621  0.53310560  1  0.031142  0  0.087873  0.121705  0  0.997153  0
H  H69  1  0.62681915  0.19730614  0.46689638  1  0.031099  0  0.087852  0.121661  0  0.997151  0
H  H70  1  0.83106619  0.63520020  0.29969940  1  0.01518  0  0.079946  0.107205  0  1.02691  0
H  H71  1  0.16893334  0.36480065  0.70029988  1  0.015447  0  0.079949  0.107196  0  1.026925  0
H  H72  1  0.96385651  0.61226465  0.32120210  1  0.056939  0  0.086676  0.12424  0  1.006261  0
H  H73  1  0.03614179  0.38773771  0.67879720  1  0.056896  0  0.08667  0.124258  0  1.006204  0
H  H74  1  0.87852231  0.73858655  0.30941384  1  0.024459  0  0.083361  0.111724  0  1.025555  0
H  H75  1  0.12147647  0.26141430  0.69058484  1  0.024471  0  0.083366  0.111765  0  1.0255  0
H  H76  1  0.84334645  0.53488882  0.55100782  1  0.058062  0  0.077474  0.113997  0  1.046348  0
H  H77  1  0.15665111  0.46511354  0.44899296  1  0.058065  0  0.077471  0.114006  0  1.046345  0
H  H78  1  0.93719776  0.49491214  0.45426848  1  0.052216  0  0.089143  0.132282  0  1.02906  0
H  H79  1  0.06280079  0.50508946  0.54573154  1  0.052146  0  0.089179  0.132325  0  1.029023  0
H  H80  1  0.80187672  0.52240513  0.44193298  1  0.007944  0  0.077356  0.106058  0  1.016055  0
H  H81  1  0.19812058  0.47759571  0.55806657  1  0.007989  0  0.07735  0.106076  0  1.016033  0
H  H82  1  0.18837221  0.70262661  0.67028544  1  0.00787  0  0.082633  0.107054  0  1.026652  0
H  H83  1  0.81162536  0.29737803  0.32971305  1  0.007824  0  0.082653  0.107066  0  1.026559  0
H  H84  1  0.14462238  0.75210603  0.78348545  1  0.017611  0  0.084687  0.113872  0  1.030431  0
H  H85  1  0.85537394  0.24789785  0.21651395  1  0.01759  0  0.084677  0.11387  0  1.030476  0
H  H86  1  0.11303804  0.83184596  0.68088567  1  0.037883  0  0.093391  0.129171  0  0.996466  0
H  H87  1  0.88695631  0.16815943  0.31911314  1  0.038155  0  0.093426  0.12927  0  0.996435  0
H  H88  1  0.68205720  0.89806895  0.02783477  1  0.0435  0  0.086216  0.118699  0  1.032739  0
H  H89  1  0.31794283  0.10193037  0.97216736  1  0.043555  0  0.086176  0.118634  0  1.032775  0
H  H90  1  0.55164726  0.91720497  0.00377249  1  0.022238  0  0.085096  0.110455  0  1.054742  0
H  H91  1  0.44835227  0.08279358  0.99623046  1  0.022193  0  0.085098  0.110422  0  1.054808  0
H  H92  1  0.62232627  0.99832290  0.94848074  1  0.024054  0  0.084188  0.110214  0  1.054696  0
H  H93  1  0.37767251  0.00167566  0.05152161  1  0.024006  0  0.084188  0.110208  0  1.054706  0
H  H94  1  0.70627822  0.68286580  0.88480366  1  0.039995  0  0.066344  0.0842  0  1.122805  0
H  H95  1  0.29372131  0.31713276  0.11519860  1  0.040009  0  0.066331  0.08418  0  1.122782  0
H  H96  1  0.60373339  0.73570249  0.97298862  1  0.020295  0  0.086378  0.117078  0  1.025603  0
H  H97  1  0.39626662  0.26429455  0.02701372  1  0.020341  0  0.086355  0.117037  0  1.02558  0
H  H98  1  0.73681068  0.71738436  0.99044665  1  0.043001  0  0.087762  0.128645  0  1.041944  0
H  H99  1  0.26318835  0.28261344  0.00955573  1  0.043008  0  0.087732  0.128599  0  1.042008  0
H  H100  1  0.91156619  0.22158516  0.77524272  1  0.066794  0  0.094067  0.091553  0  1.024388  0
H  H101  1  0.08843310  0.77841415  0.22475950  1  0.066789  0  0.094074  0.091554  0  1.024388  0
H  H102  1  0.83305814  0.32078631  0.70265504  1  0.084972  0  0.110236  0.120453  0  0.98839  0
H  H103  1  0.16694336  0.67921302  0.29734414  1  0.084972  0  0.11025  0.120474  0  0.988406  0
H  H104  1  0.80544139  0.20192791  0.72435090  1  0.067455  0  0.099623  0.102966  0  0.972856  0
H  H105  1  0.19455766  0.79807216  0.27565197  1  0.067573  0  0.099613  0.102984  0  0.97287  0
C  C106  1  0.93461815  0.79684751  0.76843225  1  0.345142  0  0.067121  0.125396  0  3.91992  0
C  C107  1  0.06537939  0.20315258  0.23156664  1  0.345104  0  0.067102  0.125405  0  3.920064  0
C  C108  1  0.92457645  0.89033162  0.80158558  1  -0.067147  0  -0.143777  -0.24638  0  4.080381  0
C  C109  1  0.07542159  0.10966694  0.19841616  1  -0.067168  0  -0.143741  -0.246403  0  4.080307  0
C  C110  1  0.82412422  0.92526867  0.85285983  1  -0.057102  0  -0.14396  -0.241077  0  4.072001  0
C  C111  1  0.17587308  0.07472988  0.14714200  1  -0.057247  0  -0.144005  -0.241102  0  4.072058  0
C  C112  1  0.77469502  0.85223748  0.85052054  1  0.334437  0  0.06771  0.12261  0  3.910105  0
C  C113  1  0.22530326  0.14776032  0.14948193  1  0.334696  0  0.067784  0.122642  0  3.910009  0
C  C114  1  0.66893129  0.84648018  0.89435783  1  0.115624  0  -0.001259  0.142227  0  3.888862  0
C  C115  1  0.33106600  0.15351837  0.10564400  1  0.115494  0  -0.00121  0.142277  0  3.888892  0
C  C116  1  0.58947143  0.87257570  0.82317311  1  0.358711  0  0.070907  0.125523  0  3.908693  0
C  C117  1  0.41052711  0.12742362  0.17682989  1  0.358333  0  0.070862  0.125475  0  3.908776  0
C  C118  1  0.50105534  0.95556127  0.81252361  1  -0.092032  0  -0.141884  -0.247381  0  4.065607  0
C  C119  1  0.49894321  0.04443804  0.18748009  1  -0.09217  0  -0.141859  -0.247335  0  4.065558  0
C  C120  1  0.45197032  0.93940282  0.73598146  1  -0.008703  0  -0.139545  -0.247311  0  4.07382  0
C  C121  1  0.54802922  0.06059802  0.26401990  1  -0.008547  0  -0.139524  -0.24728  0  4.073898  0
C  C122  1  0.51108876  0.84660985  0.70144458  1  0.322213  0  0.070261  0.125384  0  3.93628  0
C  C123  1  0.48891201  0.15338947  0.29855677  1  0.322147  0  0.070258  0.12538  0  3.936306  0
C  C124  1  0.49461832  0.78905966  0.62363644  1  0.0976  0  0.00092  0.091717  0  3.879332  0
C  C125  1  0.50538071  0.21094043  0.37636297  1  0.097614  0  0.000929  0.091765  0  3.879274  0
C  C126  1  0.57923142  0.78297868  0.54308118  1  0.314444  0  0.06395  0.114835  0  3.940725  0
C  C127  1  0.42076664  0.21702444  0.45691808  1  0.314279  0  0.063837  0.114703  0  3.940737  0
C  C128  1  0.57959116  0.84421478  0.46144535  1  -0.067905  0  -0.14058  -0.246371  0  4.079597  0
C  C129  1  0.42040763  0.15578607  0.53855472  1  -0.067706  0  -0.14058  -0.246336  0  4.079539  0
C  C130  1  0.68022668  0.80774343  0.41099977  1  -0.004896  0  -0.142902  -0.25014  0  4.091409  0
C  C131  1  0.31976962  0.19225817  0.58899845  1  -0.005178  0  -0.142891  -0.250126  0  4.091339  0
C  C132  1  0.73968322  0.72489345  0.46231771  1  0.308457  0  0.068281  0.125084  0  3.922953  0
C  C133  1  0.26031532  0.27510816  0.53768093  1  0.308593  0  0.068204  0.124986  0  3.922895  0
C  C134  1  0.85131639  0.65689674  0.44269237  1  0.094638  0  -0.002622  0.13013  0  3.888296  0
C  C135  1  0.14868041  0.34310563  0.55730572  1  0.094544  0  -0.002576  0.130054  0  3.888373  0
C  C136  1  0.92524802  0.69349296  0.49077823  1  0.313122  0  0.070151  0.126966  0  3.915017  0
C  C137  1  0.07475052  0.30650864  0.50922041  1  0.313339  0  0.070213  0.127066  0  3.914901  0
C  C138  1  0.99897515  0.74017667  0.45355596  1  -0.062265  0  -0.142892  -0.242199  0  4.079098  0
C  C139  1  0.00102289  0.25982418  0.54644280  1  -0.06235  0  -0.142952  -0.242315  0  4.079134  0
C  C140  1  0.04754749  0.75934779  0.52890191  1  0.016029  0  -0.142779  -0.242099  0  4.085271  0
C  C141  1  0.95245031  0.24065381  0.47109682  1  0.015632  0  -0.142745  -0.241985  0  4.085274  0
C  C142  1  0.00208952  0.72464036  0.61123209  1  0.294112  0  0.065249  0.115517  0  3.939083  0
C  C143  1  0.99790927  0.27536048  0.38876797  1  0.294478  0  0.065252  0.11546  0  3.939097  0
C  C144  1  0.02424793  0.72395327  0.71188593  1  0.123281  0  0.001068  0.096828  0  3.868722  0
C  C145  1  0.97575160  0.27604758  0.28811335  1  0.123315  0  0.001088  0.096875  0  3.868654  0
C  C146  1  0.04496454  0.61337547  0.75478565  1  -0.024381  0  -0.161782  -0.182068  0  3.874648  0
C  C147  1  0.95503721  0.38662538  0.24521198  1  -0.024439  0  -0.16182  -0.182036  0  3.874563  0
C  C148  1  0.05370029  0.60081219  0.86056733  1  -0.005491  0  -0.165323  -0.298773  0  3.938562  0
C  C149  1  0.94630172  0.39919019  0.13942876  1  -0.00525  0  -0.165294  -0.298769  0  3.938442  0
C  C150  1  0.08864679  0.48967413  0.89197681  1  1.37626  0  0.244249  0.551953  0  4.057586  0
C  C151  1  0.91136512  0.51032293  0.10802203  1  1.376115  0  0.244237  0.552089  0  4.057212  0
C  C152  1  0.02570554  0.33793014  0.90482376  1  0.872695  0  0.227261  0.392696  0  4.029807  0
C  C153  1  0.97429598  0.66206919  0.09517681  1  0.872676  0  0.227222  0.392616  0  4.029933  0
C  C154  1  0.12296691  0.26172860  0.89729312  1  -0.013412  0  -0.087443  -0.216057  0  3.920778  0
C  C155  1  0.87703682  0.73827073  0.10270579  1  -0.013233  0  -0.087382  -0.215974  0  3.92089  0
C  C156  1  0.12332106  0.16187190  0.91563337  1  -0.013057  0  -0.068331  -0.005321  0  4.004798  0
C  C157  1  0.87667946  0.83812590  0.08436953  1  -0.013266  0  -0.068248  -0.005133  0  4.004809  0
C  C158  1  0.02941624  0.14071928  0.94045766  1  -0.020621  0  -0.093984  -0.193256  0  3.965369  0
C  C159  1  0.97058232  0.85928231  0.05954515  1  -0.020739  0  -0.094056  -0.193446  0  3.965338  0
C  C160  1  0.93617257  0.22143971  0.94385644  1  0.485268  0  0.118791  0.231707  0  4.045778  0
C  C161  1  0.06382773  0.77856341  0.05614394  1  0.485231  0  0.118771  0.231774  0  4.045649  0
C  C162  1  0.83424409  0.20200110  0.96769911  1  0.026642  0  -0.018969  -0.069973  0  4.010379  0
C  C163  1  0.16575720  0.79800125  0.03230330  1  0.026545  0  -0.019035  -0.070045  0  4.010313  0
C  C164  1  0.81836042  0.14370912  0.04956918  1  -0.023027  0  -0.088057  -0.113928  0  3.994603  0
C  C165  1  0.18164110  0.85629249  0.95042911  1  -0.022951  0  -0.088019  -0.113934  0  3.994456  0
C  C166  1  0.72231936  0.12683781  0.07513003  1  -0.047654  0  -0.094616  -0.088671  0  4.028972  0
C  C167  1  0.27768313  0.87316077  0.92486840  1  -0.047567  0  -0.094569  -0.088579  0  4.028872  0
C  C168  1  0.64095195  0.16709848  0.01827896  1  -0.005413  0  -0.080106  -0.097  0  3.974026  0
C  C169  1  0.35905030  0.83290085  0.98172013  1  -0.005478  0  -0.080148  -0.097098  0  3.97415  0
C  C170  1  0.65448720  0.22443729  0.93545289  1  -0.026673  0  -0.0139  -0.062521  0  3.991038  0
C  C171  1  0.34551110  0.77556507  0.06454641  1  -0.026673  0  -0.013884  -0.062471  0  3.991096  0
C  C172  1  0.75145793  0.24195988  0.91060919  1  0.431506  0  0.060979  0.149178  0  4.036353  0
C  C173  1  0.24854360  0.75804171  0.08939187  1  0.431445  0  0.061044  0.149261  0  4.036389  0
C  C174  1  0.57154004  0.26211997  0.87012434  1  0.488652  0  0.124692  0.236849  0  4.020452  0
C  C175  1  0.42845974  0.73788011  0.12987637  1  0.488713  0  0.124684  0.236849  0  4.020469  0
C  C176  1  0.54121973  0.19214119  0.82627685  1  -0.068883  0  -0.092352  -0.192972  0  3.94628  0
C  C177  1  0.45878227  0.80785662  0.17372310  1  -0.06865  0  -0.092335  -0.193002  0  3.946337  0
C  C178  1  0.46741752  0.22788348  0.76152749  1  -0.018768  0  -0.06777  -9e-05  0  3.982592  0
C  C179  1  0.53258644  0.77211282  0.23847097  1  -0.019043  0  -0.067784  -0.000101  0  3.982542  0
C  C180  1  0.42733483  0.33158884  0.74178668  1  0.025613  0  -0.09127  -0.231659  0  3.946366  0
C  C181  1  0.57266913  0.66840747  0.25821178  1  0.025589  0  -0.091294  -0.231706  0  3.946229  0
C  C182  1  0.46385593  0.39615283  0.78831663  1  0.882238  0  0.22389  0.382493  0  4.056691  0
C  C183  1  0.53614383  0.60384498  0.21168358  1  0.882245  0  0.223889  0.382548  0  4.056567  0
C  C184  1  0.43730458  0.58265214  0.80384759  1  1.372948  0  0.245659  0.565519  0  4.043015  0
C  C185  1  0.56269617  0.41734720  0.19614960  1  1.373234  0  0.245651  0.565634  0  4.043047  0
C  C186  1  0.41176861  0.68046293  0.74358704  1  -0.050966  0  -0.165122  -0.302894  0  3.922858  0
C  C187  1  0.58823238  0.31953565  0.25641088  1  -0.051022  0  -0.165126  -0.302943  0  3.92288  0
C  C188  1  0.49744423  0.68005733  0.66265690  1  -0.008047  0  -0.158022  -0.177911  0  3.878109  0
C  C189  1  0.50255679  0.31994352  0.33734151  1  -0.00832  0  -0.157978  -0.177899  0  3.87811  0
C  C190  1  0.38752352  0.84481304  0.58805166  1  -0.076124  0  -0.237995  -0.400588  0  3.911024  0
C  C191  1  0.61247528  0.15518779  0.41195048  1  -0.076015  0  -0.237954  -0.400513  0  3.910963  0
C  C192  1  0.88313207  0.66125302  0.33678027  1  -0.084826  0  -0.242695  -0.401261  0  3.928372  0
C  C193  1  0.11686573  0.33874858  0.66321915  1  -0.085032  0  -0.242696  -0.401303  0  3.928351  0
C  C194  1  0.85891771  0.54596934  0.47484686  1  -0.096382  0  -0.2475  -0.408374  0  3.890885  0
C  C195  1  0.14107959  0.45403151  0.52515269  1  -0.096434  0  -0.247502  -0.408388  0  3.890945  0
C  C196  1  0.12350436  0.75473572  0.71201804  1  -0.063013  0  -0.239103  -0.40335  0  3.937282  0
C  C197  1  0.87649370  0.24526740  0.28798122  1  -0.063239  0  -0.239148  -0.403489  0  3.937276  0
C  C198  1  0.62878573  0.91991801  0.97290175  1  -0.080183  0  -0.24252  -0.403061  0  3.914523  0
C  C199  1  0.37121306  0.08008054  0.02710060  1  -0.080126  0  -0.242497  -0.40296  0  3.914498  0
C  C200  1  0.67978294  0.73887454  0.93851421  1  -0.111629  0  -0.271967  -0.435369  0  3.917379  0
C  C201  1  0.32021485  0.26112249  0.06148908  1  -0.111695  0  -0.271916  -0.435292  0  3.9174  0
C  C202  1  0.83223710  0.25815809  0.75424667  1  0.34403  0  -0.134282  -0.154363  0  3.879263  0
C  C203  1  0.16776342  0.74184199  0.24575395  1  0.34388  0  -0.134297  -0.154394  0  3.879288  0
N  N204  1  0.84284331  0.77540803  0.79882203  1  -1.275767  0  -0.403922  -0.267132  0  3.642705  0
N  N205  1  0.15715497  0.22458977  0.20117905  1  -1.275758  0  -0.403928  -0.267118  0  3.642813  0
N  N206  1  0.59407483  0.80764724  0.75500928  1  -1.267437  0  -0.398847  -0.263146  0  3.628309  0
N  N207  1  0.40592445  0.19235207  0.24499294  1  -1.267155  0  -0.398862  -0.263203  0  3.628405  0
N  N208  1  0.67708920  0.71131104  0.54225494  1  -1.292146  0  -0.404115  -0.277332  0  3.657956  0
N  N209  1  0.32290884  0.28868980  0.45774382  1  -1.292385  0  -0.404103  -0.277268  0  3.658039  0
N  N210  1  0.92793661  0.68520598  0.58655787  1  -1.257658  0  -0.403213  -0.274923  0  3.653298  0
N  N211  1  0.07205996  0.31479714  0.41344156  1  -1.257679  0  -0.403251  -0.274901  0  3.653272  0
N  N212  1  0.01531958  0.44131065  0.88716075  1  -1.24636  0  -0.392673  -0.406924  0  3.524356  0
N  N213  1  0.98468540  0.55868944  0.11283795  1  -1.246446  0  -0.392702  -0.406936  0  3.524487  0
N  N214  1  0.93433015  0.31880146  0.92648381  1  -1.197446  0  -0.346344  -0.419392  0  3.30496  0
N  N215  1  0.06567014  0.68120167  0.07351519  1  -1.197394  0  -0.346298  -0.419342  0  3.304936  0
N  N216  1  0.53306205  0.36329714  0.85184286  1  -1.164586  0  -0.344729  -0.394972  0  3.28653  0
N  N217  1  0.46694020  0.63670220  0.14815554  1  -1.164592  0  -0.344721  -0.395011  0  3.286485  0
N  N218  1  0.42924598  0.50075475  0.76199329  1  -1.248966  0  -0.395502  -0.407834  0  3.510098  0
N  N219  1  0.57075599  0.49924307  0.23800319  1  -1.249066  0  -0.395516  -0.407884  0  3.509992  0
Cl  Cl220  1  0.78243366  0.57955769  0.73889100  1  -0.771675  0  -0.35615  -0.627247  0  0.891519  0
Cl  Cl221  1  0.21756685  0.42044241  0.26110685  1  -0.77169  0  -0.356149  -0.627262  0  0.891523  0
O  O222  1  0.17675938  0.44542887  0.91764701  1  -1.171412  0  -0.342185  -0.535596  0  2.134621  0
O  O223  1  0.82324261  0.55457353  0.08234491  1  -1.171192  0  -0.342253  -0.535782  0  2.134121  0
O  O224  1  0.75986646  0.30308275  0.83138463  1  -1.098138  0  -0.259952  -0.215175  0  2.668534  0
O  O225  1  0.24013456  0.69691809  0.16861517  1  -1.098093  0  -0.259961  -0.215237  0  2.668529  0
O  O226  1  0.46411003  0.57737414  0.88370030  1  -1.168635  0  -0.433152  -0.555203  0  2.214713  0
O  O227  1  0.53589047  0.42262367  0.11629914  1  -1.168705  0  -0.433117  -0.555227  0  2.214817  0
