# generated using pymatgen
data_MnH28C34(N3O2)2
_symmetry_space_group_name_H-M   'P 1'
_cell_length_a   9.55340975
_cell_length_b   10.91443184
_cell_length_c   15.98500000
_cell_angle_alpha   93.43461208
_cell_angle_beta   101.42261003
_cell_angle_gamma   111.76057564
_symmetry_Int_Tables_number   1
_chemical_formula_structural   MnH28C34(N3O2)2
_chemical_formula_sum   'Mn2 H56 C68 N12 O8'
_cell_volume   1500.96247450
_cell_formula_units_Z   2
loop_
 _symmetry_equiv_pos_site_id
 _symmetry_equiv_pos_as_xyz
  1  'x, y, z'
loop_
 _atom_site_type_symbol
 _atom_site_label
 _atom_site_symmetry_multiplicity
 _atom_site_fract_x
 _atom_site_fract_y
 _atom_site_fract_z
 _atom_site_occupancy
 _atom_site_pbe_bader_charge
 _atom_site_pbe_bader_spin_density
 _atom_site_pbe_cm5_charge
 _atom_site_pbe_ddec_charge
 _atom_site_pbe_ddec_spin_density
 _atom_site_pbe_ddec_sum_bond_order
 _atom_site_pbe_magmom
Mn  Mn0  1  0.41218096  0.10488291  0.43373010  1  1.482747  -4.51069  0.608089  0.857279  -4.655645  2.445931  -4.421
Mn  Mn1  1  0.58781834  0.89511884  0.56626889  1  1.482733  -4.510969  0.608147  0.857373  -4.655878  2.445873  -4.421
H  H2  1  0.56894727  0.39067862  0.54287596  1  0.095477  -0.001084  0.118482  0.092183  -0.000229  1.002129  0.0
H  H3  1  0.43105145  0.60931715  0.45712083  1  0.095459  -0.001084  0.118429  0.09214  -0.000229  1.002184  0.0
H  H4  1  0.67795785  0.21350159  0.34341870  1  0.146236  -0.000954  0.120991  0.095413  -5.2e-05  1.008836  0.0
H  H5  1  0.32203948  0.78649816  0.65657684  1  0.146289  -0.000954  0.120991  0.095395  -5.2e-05  1.008866  0.0
H  H6  1  0.21653105  0.66762255  0.17055547  1  0.492023  -5e-06  0.27759  0.260173  6e-06  1.076783  0.0
H  H7  1  0.78346689  0.33237620  0.82944637  1  0.492433  -5e-06  0.277612  0.260212  6e-06  1.076788  0.0
H  H8  1  0.38615057  0.65512277  0.22694060  1  0.450433  -4.8e-05  0.28986  0.282297  -2e-06  0.99667  0.0
H  H9  1  0.61384617  0.34487100  0.77306026  1  0.450546  -4.8e-05  0.289864  0.282269  -2e-06  0.996704  0.0
H  H10  1  0.31399189  0.02767225  0.96632630  1  0.452179  -1.4e-05  0.29872  0.293359  -1e-06  0.964545  0.0
H  H11  1  0.68600682  0.97232351  0.03367300  1  0.452164  -1.5e-05  0.298732  0.293407  -1e-06  0.964509  0.0
H  H12  1  0.39017498  0.93653048  0.90947361  1  0.491859  5e-06  0.28411  0.271185  9e-06  1.057058  0.0
H  H13  1  0.60982648  0.06346428  0.09052285  1  0.491873  5e-06  0.284075  0.271133  9e-06  1.057227  0.0
H  H14  1  0.27248876  0.80648744  0.33687279  1  0.083495  -0.001258  0.116056  0.080161  -0.00042  1.02539  0.0
H  H15  1  0.72750812  0.19351131  0.66312454  1  0.083608  -0.001259  0.116012  0.080048  -0.00042  1.02546  0.0
H  H16  1  0.92273616  0.78998761  0.52706968  1  0.150389  -0.00075  0.11002  0.129789  -5e-05  1.053654  0.0
H  H17  1  0.07727139  0.21001115  0.47293017  1  0.150469  -0.000749  0.109989  0.129727  -5e-05  1.053661  0.0
H  H18  1  0.06069339  0.59192775  0.33351390  1  0.096769  -0.000657  0.104105  0.1096  -0.00037  1.045652  0.0
H  H19  1  0.93929953  0.40806702  0.66647967  1  0.096959  -0.000658  0.104105  0.109593  -0.000371  1.045541  0.0
H  H20  1  0.38640199  0.44922835  0.27907047  1  0.069084  -9.2e-05  0.101713  0.116443  5.1e-05  1.000608  0.0
H  H21  1  0.61359459  0.55076741  0.72092732  1  0.069038  -9.2e-05  0.101744  0.116491  5e-05  1.00062  0.0
H  H22  1  0.88301468  0.42544146  0.33034642  1  0.09207  -0.000537  0.102562  0.108455  -0.000275  1.055583  0.0
H  H23  1  0.11698738  0.57455929  0.66965223  1  0.092131  -0.000537  0.102565  0.108484  -0.000276  1.055581  0.0
H  H24  1  0.14214373  0.99649734  0.52081778  1  0.093547  -0.001329  0.121207  0.089677  -0.000529  1.00116  0.0
H  H25  1  0.85786107  0.00350241  0.47918303  1  0.093522  -0.00133  0.121205  0.089653  -0.000529  1.001182  0.0
H  H26  1  0.96397523  0.48692716  0.15159016  1  0.047015  -9.9e-05  0.094793  0.102818  -5.2e-05  1.024983  0.0
H  H27  1  0.03601615  0.51307359  0.84841223  1  0.046862  -9.9e-05  0.094785  0.102758  -5.2e-05  1.025029  0.0
H  H28  1  0.76583541  0.61435436  0.53787616  1  0.135611  -0.000777  0.107372  0.120873  -0.000148  1.052349  0.0
H  H29  1  0.23416269  0.38564240  0.46212310  1  0.135544  -0.000777  0.107409  0.120878  -0.000148  1.052353  0.0
H  H30  1  0.31048908  0.27644131  0.65028358  1  0.073471  -0.00028  0.093033  0.101034  0.000154  1.044889  0.0
H  H31  1  0.68951326  0.72356243  0.34971710  1  0.073467  -0.000279  0.093045  0.101027  0.000154  1.044848  0.0
H  H32  1  0.94235759  0.13393638  0.26661155  1  0.074072  -0.000136  0.096159  0.107674  -1.2e-05  1.020055  0.0
H  H33  1  0.05763589  0.86607135  0.73339575  1  0.074246  -0.000136  0.096135  0.107655  -1.3e-05  1.02013  0.0
H  H34  1  0.44421398  0.98241389  0.77187985  1  0.083589  -0.00019  0.105924  0.123735  0.000375  1.012131  0.0
H  H35  1  0.55578228  0.01758586  0.22811807  1  0.083575  -0.00019  0.105927  0.123743  0.000375  1.012089  0.0
H  H36  1  0.81122733  0.26393155  0.18358451  1  0.12688  -1.3e-05  0.093955  0.087053  2.4e-05  1.066757  0.0
H  H37  1  0.18876297  0.73606920  0.81642025  1  0.127008  -1.4e-05  0.09394  0.087011  2.3e-05  1.066758  0.0
H  H38  1  0.22070139  0.32653818  0.78103486  1  0.049329  -9.9e-05  0.094149  0.094683  -3e-05  1.0019  0.0
H  H39  1  0.77930082  0.67346057  0.21896623  1  0.049283  -9.9e-05  0.094124  0.094658  -3e-05  1.001932  0.0
H  H40  1  0.24275052  0.20544265  0.90535674  1  0.053831  -6e-05  0.090323  0.096206  -2.5e-05  1.037432  0.0
H  H41  1  0.75724651  0.79455411  0.09464428  1  0.053889  -6e-05  0.090326  0.09623  -2.5e-05  1.037418  0.0
H  H42  1  0.98104172  0.62664073  0.00833932  1  0.066151  -4.1e-05  0.11055  0.077091  -3.2e-05  0.996439  0.0
H  H43  1  0.01896243  0.37336700  0.99166425  1  0.066093  -4.1e-05  0.110557  0.0771  -3.2e-05  0.996301  0.0
H  H44  1  0.23955505  0.92875776  0.21441982  1  0.123021  -3.2e-05  0.117312  0.089172  0.000219  1.011539  0.0
H  H45  1  0.76044503  0.07124100  0.78558415  1  0.123055  -3.2e-05  0.117335  0.089195  0.000218  1.011623  0.0
H  H46  1  0.90056763  0.77907248  0.92272686  1  0.077953  -1.3e-05  0.106255  0.114553  -5e-06  1.036226  0.0
H  H47  1  0.09943349  0.22093325  0.07727501  1  0.077889  -1.3e-05  0.106243  0.114528  -5e-06  1.036206  0.0
H  H48  1  0.16573401  0.09214278  0.14093640  1  0.099213  -0.000267  0.106726  0.11118  -7.7e-05  1.054185  0.0
H  H49  1  0.83426302  0.90785398  0.85906900  1  0.099182  -0.000267  0.106739  0.111131  -7.7e-05  1.054284  0.0
H  H50  1  0.65819546  0.41675424  0.93506474  1  0.119614  5e-06  0.098001  0.101525  1.1e-05  1.073687  0.0
H  H51  1  0.34181466  0.58325249  0.06493886  1  0.11986  5e-06  0.097973  0.101479  1.1e-05  1.07373  0.0
H  H52  1  0.38795992  0.43910406  0.11976409  1  0.091265  -2.2e-05  0.101841  0.106192  -2.1e-05  1.056813  0.0
H  H53  1  0.61204258  0.56089768  0.88023027  1  0.091011  -2.2e-05  0.101838  0.106161  -2.1e-05  1.056883  0.0
H  H54  1  0.70261985  0.23654751  0.00484064  1  0.066273  -1e-06  0.107469  0.071264  3e-06  1.014233  0.0
H  H55  1  0.29739133  0.76345922  0.99516121  1  0.066305  -1e-06  0.107464  0.071276  3e-06  1.014194  0.0
H  H56  1  0.44470144  0.25587162  0.18170362  1  0.117006  -0.000244  0.107087  0.085073  8.7e-05  1.043671  0.0
H  H57  1  0.55529802  0.74412814  0.81828717  1  0.116701  -0.000245  0.107137  0.085104  8.6e-05  1.04365  0.0
C  C58  1  0.64087688  0.40449081  0.49621923  1  0.488845  -0.010257  0.049529  0.091506  -0.007999  3.948344  -0.006
C  C59  1  0.35913387  0.59550795  0.50378224  1  0.488518  -0.010261  0.049711  0.091622  -0.008001  3.948276  -0.006
C  C60  1  0.70235713  0.30523250  0.38517498  1  0.455567  -0.009906  0.050755  0.100353  -0.007671  3.93999  -0.006
C  C61  1  0.29764310  0.69476426  0.61482391  1  0.455937  -0.009908  0.050743  0.100411  -0.007674  3.94011  -0.006
C  C62  1  0.84586792  0.54105201  0.43407951  1  -0.022222  -0.010787  0.008736  0.099064  -0.008415  3.969695  -0.006
C  C63  1  0.15412543  0.45895074  0.56591318  1  -0.022229  -0.010793  0.008829  0.099273  -0.008419  3.969588  -0.006
C  C64  1  0.97132875  0.66914040  0.43119090  1  0.011364  -0.008901  0.012871  0.105173  -0.006856  3.963952  -0.005
C  C65  1  0.02867162  0.33086135  0.56880633  1  0.011782  -0.008901  0.012817  0.105062  -0.006857  3.964049  -0.005
C  C66  1  0.17238188  0.28453216  0.27703504  1  -0.021569  0.00082  -0.021884  -0.004803  0.001795  4.052335  0.002
C  C67  1  0.82761027  0.71546559  0.72296732  1  -0.015987  0.000823  -0.02195  -0.004812  0.001795  4.052223  0.002
C  C68  1  0.25499526  0.20883736  0.32590017  1  1.558688  -0.008727  0.204317  0.56001  -0.01038  4.209791  -0.006
C  C69  1  0.74499811  0.79115840  0.67409850  1  1.552631  -0.008731  0.204435  0.560167  -0.010379  4.209637  -0.006
C  C70  1  0.38183168  0.12597916  0.70422829  1  -0.075874  -0.002579  -0.032023  -0.043419  -0.001203  4.063712  -0.001
C  C71  1  0.61816824  0.87402159  0.29577073  1  -0.075799  -0.002578  -0.032029  -0.043451  -0.001203  4.063637  -0.001
C  C72  1  0.43284640  0.09129311  0.62662612  1  1.552772  -0.023252  0.219372  0.571062  -0.023437  4.214744  -0.02
C  C73  1  0.56715671  0.90870764  0.37337265  1  1.552663  -0.023251  0.21926  0.57091  -0.023436  4.214971  -0.02
C  C74  1  0.19202277  0.79893412  0.37781865  1  0.495908  -0.009193  0.053724  0.102202  -0.007418  3.956799  -0.006
C  C75  1  0.80798753  0.20106364  0.62218648  1  0.49517  -0.009197  0.053717  0.102315  -0.007421  3.956798  -0.006
C  C76  1  0.99665747  0.78715037  0.48355974  1  -0.099933  -0.001852  -0.079146  -0.172751  -0.001075  3.908493  -0.001
C  C77  1  0.00334322  0.21284738  0.51643987  1  -0.099902  -0.001854  -0.07907  -0.172569  -0.001077  3.908455  -0.001
C  C78  1  0.07191059  0.67801111  0.37649612  1  -0.003404  -0.001738  -0.079456  -0.167341  -0.001021  3.930348  -0.001
C  C79  1  0.92809667  0.32198465  0.62350294  1  -0.003257  -0.00174  -0.079385  -0.167332  -0.001023  3.930556  -0.001
C  C80  1  0.25990313  0.40941333  0.25828038  1  -0.062523  -0.004438  -0.113915  -0.257288  -0.003306  3.952459  -0.003
C  C81  1  0.74009160  0.59058542  0.74172357  1  -0.062612  -0.004438  -0.113943  -0.257435  -0.003307  3.952524  -0.003
C  C82  1  0.81686263  0.42513630  0.37853916  1  -0.037475  -0.001524  -0.083688  -0.172851  -0.000825  3.934738  0.0
C  C83  1  0.18314233  0.57486146  0.62146158  1  -0.037855  -0.001526  -0.08376  -0.173033  -0.000826  3.934828  0.0
C  C84  1  0.11940575  0.90389481  0.48038857  1  0.475504  -0.008904  0.054868  0.105406  -0.006672  3.931809  -0.006
C  C85  1  0.88059983  0.09610195  0.51961533  1  0.475274  -0.008907  0.054817  0.10533  -0.006674  3.931889  -0.006
C  C86  1  0.02305122  0.43021639  0.18676331  1  0.058656  -0.003926  -0.120643  -0.239707  -0.003086  3.987475  -0.002
C  C87  1  0.97694274  0.56978536  0.81323755  1  0.058558  -0.003926  -0.120676  -0.239647  -0.003086  3.987502  -0.002
C  C88  1  0.75231194  0.52878359  0.49339639  1  -0.038543  -0.001053  -0.080383  -0.170275  -0.000334  3.914855  0.0
C  C89  1  0.24769286  0.47121616  0.50660254  1  -0.038521  -0.001052  -0.080485  -0.170377  -0.000333  3.914732  0.0
C  C90  1  0.32039940  0.22472088  0.70590770  1  -0.053887  -0.004929  -0.119977  -0.169031  -0.003572  4.04111  -0.003
C  C91  1  0.67960051  0.77527987  0.29409257  1  -0.05379  -0.00493  -0.119987  -0.168971  -0.003572  4.040981  -0.003
C  C92  1  0.00993598  0.23124004  0.25146959  1  -0.078983  -0.003586  -0.116403  -0.169  -0.00267  4.014076  -0.002
C  C93  1  0.99005766  0.76876570  0.74853640  1  -0.079178  -0.003587  -0.116369  -0.169063  -0.002671  4.014086  -0.002
C  C94  1  0.39475351  0.05753651  0.77453890  1  -0.036148  -0.004923  -0.104935  -0.224618  -0.00347  3.91383  -0.003
C  C95  1  0.60524291  0.94246125  0.22545896  1  -0.035927  -0.004923  -0.104934  -0.224599  -0.00347  3.913818  -0.003
C  C96  1  0.18702958  0.48591692  0.21390612  1  0.330069  0.00042  0.09078  0.302177  0.000576  4.124424  0.001
C  C97  1  0.81296470  0.51408083  0.78609587  1  0.330637  0.00042  0.090828  0.302262  0.000576  4.124407  0.001
C  C98  1  0.34543794  0.08456353  0.84838985  1  0.456223  0.00053  0.096642  0.309453  0.000642  4.110861  0.001
C  C99  1  0.65456321  0.91543523  0.15161111  1  0.455953  0.000531  0.09661  0.309349  0.000643  4.11087  0.001
C  C100  1  0.93737442  0.30477376  0.20530711  1  -0.178429  0.000572  -0.102658  -0.06805  0.000686  4.084283  0.001
C  C101  1  0.06261618  0.69522998  0.79469969  1  -0.178168  0.000571  -0.10257  -0.067875  0.000686  4.084202  0.001
C  C102  1  0.27056954  0.25148363  0.77881615  1  -0.037512  0.000837  -0.100388  -0.068111  0.000945  4.067972  0.001
C  C103  1  0.72942811  0.74851214  0.22118490  1  -0.03767  0.000837  -0.100385  -0.068154  0.000946  4.068015  0.001
C  C104  1  0.28235206  0.18304596  0.84904778  1  -0.072608  -0.00481  -0.108776  -0.20144  -0.003818  3.960613  -0.003
C  C105  1  0.71765060  0.81695379  0.15095340  1  -0.072647  -0.004811  -0.108762  -0.201396  -0.003819  3.960491  -0.003
C  C106  1  0.02363889  0.95196124  0.02380671  1  -0.035701  -5.9e-05  0.007038  0.090289  -5.5e-05  3.977945  0.0
C  C107  1  0.97635414  0.04804549  0.97619862  1  -0.072744  -6e-05  0.006966  0.090095  -5.5e-05  3.978287  0.0
C  C108  1  0.01965312  0.73121349  0.03582592  1  0.451122  -4.2e-05  0.04135  0.082376  -3.7e-05  4.007816  0.0
C  C109  1  0.98034877  0.26878926  0.96417779  1  0.449382  -4.2e-05  0.041352  0.082434  -3.8e-05  4.007509  0.0
C  C110  1  0.16243443  0.89749334  0.14996407  1  0.480141  -9.8e-05  0.048694  0.099302  -1.1e-05  3.956214  0.0
C  C111  1  0.83756031  0.10250542  0.85003488  1  0.480091  -9.8e-05  0.048646  0.099292  -1.2e-05  3.956186  0.0
C  C112  1  0.97348522  0.81760002  0.98771167  1  0.026783  -3.8e-05  -0.082611  -0.176895  -3e-05  3.949371  0.0
C  C113  1  0.02650631  0.18239873  0.01229129  1  0.028072  -3.8e-05  -0.082603  -0.17684  -3e-05  3.949652  0.0
C  C114  1  0.12083855  0.99078497  0.10728731  1  -0.041056  -0.000244  -0.081158  -0.166098  -0.000129  3.926436  0.0
C  C115  1  0.87916165  0.00921877  0.89271499  1  -0.040908  -0.000244  -0.081131  -0.165962  -0.000129  3.926532  0.0
C  C116  1  0.60875456  0.38730385  0.99017710  1  -0.133193  -3.8e-05  -0.087585  -0.174424  -3.4e-05  3.944137  0.0
C  C117  1  0.39125571  0.61270088  0.00982206  1  -0.133113  -3.8e-05  -0.087558  -0.174355  -3.4e-05  3.944149  0.0
C  C118  1  0.51711552  0.44653971  0.02064079  1  -0.000111  -5.5e-05  0.005433  0.096267  -4.7e-05  3.97206  0.0
C  C119  1  0.48289307  0.55346603  0.97935570  1  0.035984  -5.5e-05  0.005489  0.096249  -4.7e-05  3.97223  0.0
C  C120  1  0.45864989  0.39798462  0.09142366  1  -0.117424  -4.4e-05  -0.087937  -0.179208  -3.9e-05  3.944163  0.0
C  C121  1  0.54135216  0.60201613  0.90856873  1  -0.117718  -4.5e-05  -0.087974  -0.179267  -3.9e-05  3.944259  0.0
C  C122  1  0.63333592  0.28420107  0.02909804  1  0.544083  -4.2e-05  0.039672  0.094873  -3e-05  3.998212  0.0
C  C123  1  0.36666934  0.71579968  0.97090036  1  0.543878  -4.2e-05  0.039757  0.094983  -3e-05  3.998201  0.0
C  C124  1  0.49008793  0.29438121  0.12667401  1  0.527014  -0.000221  0.035299  0.078409  -0.000166  3.979212  0.0
C  C125  1  0.50991594  0.70562353  0.87331939  1  0.52755  -0.000221  0.035277  0.078517  -0.000166  3.978947  0.0
N  N126  1  0.61614768  0.29354250  0.44372038  1  -1.272597  -0.053723  -0.320681  -0.239198  -0.03438  3.510688  -0.019
N  N127  1  0.38385117  0.70645825  0.55627726  1  -1.272393  -0.05373  -0.320758  -0.239267  -0.034389  3.510755  -0.019
N  N128  1  0.21787440  0.91090363  0.42931039  1  -1.261326  -0.053223  -0.318759  -0.249318  -0.034992  3.52035  -0.015
N  N129  1  0.78212157  0.08909313  0.57068862  1  -1.26129  -0.053236  -0.318709  -0.249279  -0.035002  3.520244  -0.015
N  N130  1  0.27294873  0.60833284  0.19493919  1  -1.297722  8.9e-05  -0.598981  -0.609205  0.00021  3.407264  0.0
N  N131  1  0.72704694  0.39166093  0.80506029  1  -1.29837  8.8e-05  -0.599078  -0.609306  0.000209  3.407296  0.0
N  N132  1  0.36389497  0.01881151  0.91735806  1  -1.300693  0.000348  -0.596152  -0.614063  0.0004  3.396747  0.0
N  N133  1  0.63610436  0.98118326  0.08264127  1  -1.300641  0.000348  -0.596099  -0.614027  0.0004  3.396918  0.0
N  N134  1  0.11270764  0.76897014  0.11571188  1  -1.203697  -6e-05  -0.312001  -0.254277  -3.1e-05  3.37784  0.0
N  N135  1  0.88729303  0.23103460  0.88428677  1  -1.203302  -6e-05  -0.312002  -0.254397  -3.1e-05  3.377506  0.0
N  N136  1  0.57530270  0.23635703  0.09586359  1  -1.234501  -4e-05  -0.319029  -0.267745  -1.8e-05  3.380011  0.0
N  N137  1  0.42469951  0.76364172  0.90413437  1  -1.234294  -4.1e-05  -0.319146  -0.267985  -1.8e-05  3.380076  0.0
O  O138  1  0.47492597  0.99329909  0.62621795  1  -1.219333  -0.077871  -0.311156  -0.569599  -0.055671  2.435723  -0.035
O  O139  1  0.52507303  0.00669966  0.37377963  1  -1.219277  -0.077862  -0.311117  -0.569546  -0.055664  2.43576  -0.035
O  O140  1  0.34033527  0.16553389  0.29222347  1  -1.183436  -0.041066  -0.302166  -0.542333  -0.02875  2.17797  -0.023
O  O141  1  0.65966526  0.83446586  0.70777684  1  -1.18346  -0.041066  -0.302214  -0.542423  -0.028751  2.178003  -0.023
O  O142  1  0.23902807  0.19242728  0.40281477  1  -1.183981  -0.05556  -0.309453  -0.539723  -0.037598  2.247951  -0.027
O  O143  1  0.76096106  0.80756150  0.59718373  1  -1.183927  -0.055552  -0.309466  -0.539731  -0.037601  2.24785  -0.027
O  O144  1  0.43060704  0.16100629  0.56553554  1  -1.208911  -0.075762  -0.311607  -0.553216  -0.05253  2.368667  -0.036
O  O145  1  0.56940065  0.83899745  0.43446453  1  -1.208838  -0.075767  -0.311523  -0.553105  -0.052534  2.368664  -0.036
