# generated using pymatgen
data_AlH7C16N2O13
_symmetry_space_group_name_H-M   'P 1'
_cell_length_a   6.62112349
_cell_length_b   23.56920137
_cell_length_c   26.26927626
_cell_angle_alpha   101.62078542
_cell_angle_beta   90.00041032
_cell_angle_gamma   90.00133704
_symmetry_Int_Tables_number   1
_chemical_formula_structural   AlH7C16N2O13
_chemical_formula_sum   'Al4 H28 C64 N8 O52'
_cell_volume   4015.41184554
_cell_formula_units_Z   4
loop_
 _symmetry_equiv_pos_site_id
 _symmetry_equiv_pos_as_xyz
  1  'x, y, z'
loop_
 _atom_site_type_symbol
 _atom_site_label
 _atom_site_symmetry_multiplicity
 _atom_site_fract_x
 _atom_site_fract_y
 _atom_site_fract_z
 _atom_site_occupancy
 _atom_site_pbe_bader_charge
 _atom_site_pbe_bader_spin_density
 _atom_site_pbe_cm5_charge
 _atom_site_pbe_ddec_charge
 _atom_site_pbe_ddec_spin_density
 _atom_site_pbe_ddec_sum_bond_order
 _atom_site_pbe_magmom
Al  Al0  1  0.24496045  0.25054732  0.25093756  1  2.503555  0  0.39995  1.647068  0  2.582774  0
Al  Al1  1  0.74860690  0.74804891  0.74784791  1  2.501368  0  0.399234  1.643585  0  2.57855  0
Al  Al2  1  0.74496012  0.24945410  0.24905715  1  2.503429  0  0.399926  1.647201  0  2.582471  0
Al  Al3  1  0.24861041  0.75195171  0.75215060  1  2.501219  0  0.399267  1.643681  0  2.578349  0
H  H4  1  0.73236285  0.50885632  0.56648202  1  0.07525  0  0.11432  0.119258  0  0.977618  0
H  H5  1  0.27183123  0.49299149  0.43213513  1  0.081245  0  0.115739  0.12114  0  0.975359  0
H  H6  1  0.23227842  0.99114333  0.93352225  1  0.075229  0  0.114356  0.119254  0  0.977415  0
H  H7  1  0.77171770  0.00698624  0.06788049  1  0.081881  0  0.115654  0.120926  0  0.975542  0
H  H8  1  0.72071535  0.42925596  0.48806974  1  0.090329  0  0.114258  0.119014  0  0.979284  0
H  H9  1  0.28398016  0.57247279  0.51061043  1  0.096402  0  0.113285  0.117362  0  0.980943  0
H  H10  1  0.22066663  0.07074630  0.01193344  1  0.090558  0  0.114261  0.119101  0  0.979236  0
H  H11  1  0.78384904  0.92751007  0.98940090  1  0.097399  0  0.113293  0.117213  0  0.981262  0
H  H12  1  0.63325713  0.70787877  0.92526352  1  0.658041  0  0.319771  0.347114  0  0.980414  0
H  H13  1  0.36783159  0.29104688  0.07122848  1  0.638615  0  0.319431  0.347041  0  0.979276  0
H  H14  1  0.13324103  0.79214057  0.57475220  1  0.658617  0  0.319743  0.347103  0  0.980743  0
H  H15  1  0.86785845  0.20894361  0.42875723  1  0.638889  0  0.319582  0.347205  0  0.979096  0
H  H16  1  0.39401655  0.54143675  0.87457652  1  0.647601  0  0.317298  0.34928  0  0.963078  0
H  H17  1  0.74865015  0.48883632  0.08331580  1  0.630966  0  0.325101  0.354173  0  0.905381  0
H  H18  1  0.89405020  0.95858036  0.62543690  1  0.646661  0  0.317229  0.349088  0  0.963388  0
H  H19  1  0.24864379  0.01115858  0.41667811  1  0.630938  0  0.32499  0.354033  0  0.905431  0
H  H20  1  0.69700508  0.43779396  0.91447640  1  0.623031  0  0.330719  0.366493  0  0.882764  0
H  H21  1  0.29690083  0.56528143  0.08815761  1  0.6198  0  0.328561  0.361482  0  0.889459  0
H  H22  1  0.19705130  0.06221939  0.58551802  1  0.622755  0  0.330561  0.366522  0  0.882682  0
H  H23  1  0.79691016  0.93471177  0.41184626  1  0.619567  0  0.328532  0.36137  0  0.889525  0
H  H24  1  0.64590447  0.40030610  0.99215651  1  0.642276  0  0.297105  0.328999  0  1.012941  0
H  H25  1  0.35269234  0.60012018  0.00840390  1  0.646316  0  0.297692  0.332043  0  1.006375  0
H  H26  1  0.14592455  0.09968854  0.50783338  1  0.642127  0  0.297108  0.329023  0  1.012965  0
H  H27  1  0.85271904  0.89988828  0.49160604  1  0.646085  0  0.297712  0.331971  0  1.006424  0
H  H28  1  0.49713102  0.32642641  0.26317870  1  0.627264  0  0.360563  0.444174  0  0.834019  0
H  H29  1  0.48848151  0.67507322  0.72746928  1  0.64427  0  0.35795  0.440088  0  0.841699  0
H  H30  1  0.99711333  0.17357150  0.23687422  1  0.626909  0  0.360442  0.44375  0  0.834689  0
H  H31  1  0.98849880  0.82492861  0.77252765  1  0.644253  0  0.35794  0.440133  0  0.841791  0
C  C32  1  0.49298948  0.17148151  0.17493991  1  1.660909  0  0.279077  0.724221  0  4.152943  0
C  C33  1  0.50430385  0.82650464  0.82674891  1  1.67239  0  0.277897  0.724138  0  4.152362  0
C  C34  1  0.99301608  0.32852014  0.32505829  1  1.661233  0  0.279241  0.724684  0  4.15228  0
C  C35  1  0.00431663  0.67349306  0.67325309  1  1.672451  0  0.277939  0.724167  0  4.152322  0
C  C36  1  0.49559003  0.19167700  0.31598495  1  1.637065  0  0.273719  0.667581  0  4.098451  0
C  C37  1  0.49928706  0.81229170  0.68730176  1  1.665812  0  0.269155  0.659751  0  4.121343  0
C  C38  1  0.99558837  0.30831974  0.18400624  1  1.637906  0  0.273793  0.667737  0  4.098346  0
C  C39  1  0.99926813  0.68771326  0.81269950  1  1.665196  0  0.269002  0.659347  0  4.122079  0
C  C40  1  0.84264060  0.66116115  0.89187411  1  0.638647  0  0.115199  0.27546  0  4.02992  0
C  C41  1  0.15283868  0.33517890  0.10406742  1  0.670819  0  0.124203  0.294786  0  4.010814  0
C  C42  1  0.34265809  0.83885296  0.60813291  1  0.638953  0  0.11528  0.275553  0  4.03023  0
C  C43  1  0.65285182  0.16481260  0.39592151  1  0.670789  0  0.124119  0.295038  0  4.010801  0
C  C44  1  0.83027300  0.62312253  0.92802916  1  0.305725  0  0.086117  -0.078334  0  3.86457  0
C  C45  1  0.16963164  0.37546603  0.07009445  1  0.280335  0  0.085588  -0.075809  0  3.860911  0
C  C46  1  0.33028215  0.87689363  0.57198172  1  0.30616  0  0.086062  -0.078471  0  3.86438  0
C  C47  1  0.66965135  0.12452560  0.42989454  1  0.28039  0  0.085511  -0.076802  0  3.861956  0
C  C48  1  0.97732330  0.58042800  0.93028839  1  0.116359  0  0.009761  0.012909  0  3.92097  0
C  C49  1  0.02520941  0.42005205  0.07061197  1  0.107212  0  -0.001084  -0.010487  0  3.96654  0
C  C50  1  0.47735112  0.91958657  0.56971867  1  0.116557  0  0.009673  0.013077  0  3.920437  0
C  C51  1  0.52522683  0.07993710  0.42937578  1  0.106732  0  -0.001045  -0.009941  0  3.966745  0
C  C52  1  0.13869903  0.57471283  0.89476195  1  0.624974  0  0.096644  0.218311  0  4.049343  0
C  C53  1  0.86802328  0.42521011  0.10669282  1  0.568915  0  0.086758  0.198983  0  4.08219  0
C  C54  1  0.63873836  0.92530018  0.60524405  1  0.624621  0  0.096665  0.218389  0  4.049105  0
C  C55  1  0.36804282  0.07477426  0.39329014  1  0.569412  0  0.086439  0.198462  0  4.082535  0
C  C56  1  0.13463257  0.60698059  0.85466634  1  0.2547  0  0.086227  -0.037284  0  3.906256  0
C  C57  1  0.86170304  0.38823208  0.14262731  1  0.210463  0  0.097216  0.007334  0  3.889141  0
C  C58  1  0.63467781  0.89302509  0.64533339  1  0.254021  0  0.086359  -0.037134  0  3.906013  0
C  C59  1  0.36171718  0.11175480  0.35735953  1  0.211119  0  0.097296  0.0077  0  3.888978  0
C  C60  1  0.99191487  0.65020918  0.85284321  1  0.088489  0  -0.003281  -0.150818  0  3.902475  0
C  C61  1  0.00096659  0.34439756  0.14291698  1  0.136465  0  -0.0028  -0.163235  0  3.895351  0
C  C62  1  0.49194041  0.84980252  0.64716194  1  0.088688  0  -0.003447  -0.151229  0  3.902606  0
C  C63  1  0.50097637  0.15558930  0.35707068  1  0.136265  0  -0.002834  -0.16344  0  3.895145  0
C  C64  1  0.87166402  0.48923383  0.95773488  1  0.513008  0  0.063278  0.162973  0  4.111718  0
C  C65  1  0.12540295  0.51323228  0.04452358  1  0.533864  0  0.061894  0.153901  0  4.134774  0
C  C66  1  0.37171374  0.01077303  0.54226354  1  0.512677  0  0.063312  0.162843  0  4.111611  0
C  C67  1  0.62540582  0.98676352  0.45547007  1  0.534844  0  0.061902  0.153711  0  4.134874  0
C  C68  1  0.88727042  0.44967184  0.99097779  1  0.548026  0  0.052862  0.126519  0  4.103765  0
C  C69  1  0.10999589  0.55244728  0.01102220  1  0.583551  0  0.053224  0.139863  0  4.08679  0
C  C70  1  0.38729238  0.05032842  0.50901327  1  0.548872  0  0.052689  0.126343  0  4.103764  0
C  C71  1  0.61002656  0.94755640  0.48898076  1  0.583213  0  0.053234  0.139744  0  4.087015  0
C  C72  1  0.01748385  0.46083760  0.03425711  1  0.006618  0  -0.035812  -0.135638  0  4.086467  0
C  C73  1  0.98089255  0.54123087  0.96793088  1  0.043664  0  -0.029717  -0.098361  0  4.03509  0
C  C74  1  0.51749278  0.03915676  0.46573336  1  0.006463  0  -0.035639  -0.135308  0  4.086549  0
C  C75  1  0.48093323  0.95877710  0.53207499  1  0.04358  0  -0.029694  -0.098128  0  4.035077  0
C  C76  1  0.84310989  0.46081126  0.49324587  1  0.013442  0  -0.074462  -0.117359  0  3.953231  0
C  C77  1  0.16144969  0.54095588  0.50544499  1  -0.011979  0  -0.075  -0.117592  0  3.957894  0
C  C78  1  0.34305532  0.03918728  0.00676000  1  0.013351  0  -0.074602  -0.117539  0  3.953618  0
C  C79  1  0.66133197  0.95902534  0.99456828  1  -0.012708  0  -0.075071  -0.117416  0  3.957781  0
C  C80  1  0.99561198  0.45601637  0.45504677  1  0.075001  0  0.006991  0.130539  0  4.107185  0
C  C81  1  0.00888870  0.54575724  0.54361540  1  0.078743  0  0.00375  0.124026  0  4.114715  0
C  C82  1  0.49553924  0.04397416  0.04496263  1  0.074561  0  0.007315  0.130827  0  4.10769  0
C  C83  1  0.50876801  0.95423198  0.95639628  1  0.079278  0  0.003573  0.123563  0  4.114454  0
C  C84  1  0.15472630  0.49675700  0.46177763  1  -0.011715  0  -0.074022  -0.116034  0  3.948249  0
C  C85  1  0.84961580  0.50505672  0.53687389  1  -0.007617  0  -0.074652  -0.116932  0  3.95269  0
C  C86  1  0.65463126  0.00322907  0.03823301  1  -0.012179  0  -0.073818  -0.1157  0  3.948207  0
C  C87  1  0.34952193  0.99493927  0.96313539  1  -0.008123  0  -0.07455  -0.11667  0  3.952204  0
C  C88  1  0.99038376  0.41115609  0.41032699  1  -0.423995  0  -0.017076  -0.029073  0  4.083514  0
C  C89  1  0.01357472  0.59068501  0.58828081  1  -0.51558  0  -0.015956  -0.021961  0  4.085547  0
C  C90  1  0.49032059  0.08883653  0.08967852  1  -0.423042  0  -0.017357  -0.02952  0  4.08371  0
C  C91  1  0.51344596  0.90930765  0.91173090  1  -0.514241  0  -0.015808  -0.021463  0  4.084475  0
C  C92  1  0.01323404  0.62901308  0.62706654  1  0.229627  0  -0.037834  -0.196799  0  3.950975  0
C  C93  1  0.98955999  0.37300990  0.37141997  1  0.162728  0  -0.031736  -0.183218  0  3.939275  0
C  C94  1  0.51320214  0.87098035  0.87293702  1  0.228853  0  -0.038021  -0.197283  0  3.950257  0
C  C95  1  0.48950718  0.12698943  0.12858519  1  0.160938  0  -0.031562  -0.182904  0  3.939347  0
N  N96  1  0.66105627  0.62989832  0.96305631  1  0.285247  0  0.050754  0.52387  0  4.141019  0
N  N97  1  0.34101427  0.37057520  0.03660186  1  0.275452  0  0.047652  0.527522  0  4.146141  0
N  N98  1  0.16106690  0.87011501  0.53695248  1  0.285748  0  0.050952  0.523794  0  4.141312  0
N  N99  1  0.84103533  0.12941781  0.46338650  1  0.27164  0  0.047745  0.527556  0  4.14605  0
N  N100  1  0.27943299  0.59056172  0.81209248  1  0.366064  0  0.064812  0.535867  0  4.167859  0
N  N101  1  0.69865317  0.39920328  0.18197427  1  0.417111  0  0.067898  0.538199  0  4.216041  0
N  N102  1  0.77948836  0.90944507  0.68790810  1  0.367481  0  0.064633  0.535577  0  4.167753  0
N  N103  1  0.19866076  0.10078405  0.31800974  1  0.418453  0  0.068004  0.538553  0  4.214992  0
O  O104  1  0.66422930  0.20259106  0.29771513  1  -1.226933  0  -0.218933  -0.561432  0  2.363651  0
O  O105  1  0.33190751  0.80326258  0.70731420  1  -1.234358  0  -0.222286  -0.564171  0  2.360577  0
O  O106  1  0.16422170  0.29740231  0.20227424  1  -1.226946  0  -0.219052  -0.561548  0  2.36349  0
O  O107  1  0.83187671  0.69675164  0.79269357  1  -1.234109  0  -0.222267  -0.564042  0  2.360758  0
O  O108  1  0.32315528  0.18916412  0.19462998  1  -1.240541  0  -0.225338  -0.582996  0  2.293147  0
O  O109  1  0.67142092  0.80762465  0.80593791  1  -1.249397  0  -0.226373  -0.586839  0  2.296639  0
O  O110  1  0.82317681  0.31083972  0.30536964  1  -1.240594  0  -0.225306  -0.583158  0  2.293101  0
O  O111  1  0.17142683  0.69238248  0.69406156  1  -1.249407  0  -0.226332  -0.586892  0  2.296748  0
O  O112  1  0.32219390  0.20607215  0.30237561  1  -1.234798  0  -0.229181  -0.584862  0  2.352622  0
O  O113  1  0.67129345  0.79330013  0.69678942  1  -1.24264  0  -0.232338  -0.5838  0  2.355058  0
O  O114  1  0.82219592  0.29392404  0.19761814  1  -1.235124  0  -0.229181  -0.584914  0  2.352583  0
O  O115  1  0.17127942  0.70669205  0.80320375  1  -1.242404  0  -0.232184  -0.583615  0  2.355397  0
O  O116  1  0.16666290  0.31126675  0.30768988  1  -1.228989  0  -0.226827  -0.581399  0  2.28378  0
O  O117  1  0.82852964  0.68985433  0.68965710  1  -1.237087  0  -0.226474  -0.578204  0  2.28486  0
O  O118  1  0.66664225  0.18873666  0.19230653  1  -1.22873  0  -0.226696  -0.58115  0  2.28398  0
O  O119  1  0.32852158  0.81013667  0.81034355  1  -1.237073  0  -0.226353  -0.578102  0  2.284947  0
O  O120  1  0.49558857  0.28459860  0.25224877  1  -1.42268  0  -0.446509  -1.000055  0  2.214303  0
O  O121  1  0.49620420  0.71488009  0.74638078  1  -1.44084  0  -0.446432  -0.995437  0  2.204532  0
O  O122  1  0.99558077  0.21540366  0.24775216  1  -1.422366  0  -0.446395  -0.999545  0  2.215066  0
O  O123  1  0.99621306  0.78512119  0.75361734  1  -1.440851  0  -0.446379  -0.995481  0  2.204512  0
O  O124  1  0.71961357  0.70626877  0.89354776  1  -1.124866  0  -0.312622  -0.377789  0  2.319295  0
O  O125  1  0.27222882  0.28938270  0.10084123  1  -1.094836  0  -0.305983  -0.372072  0  2.319959  0
O  O126  1  0.21961661  0.79375008  0.60646318  1  -1.12551  0  -0.312637  -0.377768  0  2.319859  0
O  O127  1  0.77224443  0.21061041  0.39914769  1  -1.094916  0  -0.306054  -0.372182  0  2.319634  0
O  O128  1  0.56065244  0.67662884  0.97044260  1  -0.499417  0  -0.138974  -0.34967  0  1.918063  0
O  O129  1  0.61263558  0.58956883  0.98479650  1  -0.469785  0  -0.097851  -0.303397  0  2.018897  0
O  O130  1  0.38838078  0.41145796  0.01513018  1  -0.487197  0  -0.113175  -0.318106  0  1.996976  0
O  O131  1  0.44800314  0.32491393  0.02978383  1  -0.501229  0  -0.144231  -0.357913  0  1.929811  0
O  O132  1  0.06063321  0.82338862  0.52957056  1  -0.499577  0  -0.13916  -0.349732  0  1.918409  0
O  O133  1  0.11267471  0.91044085  0.51520475  1  -0.470027  0  -0.09788  -0.303341  0  2.018871  0
O  O134  1  0.88839443  0.08853496  0.48485833  1  -0.483096  0  -0.113135  -0.317966  0  1.997013  0
O  O135  1  0.94802071  0.17508163  0.47020526  1  -0.50143  0  -0.144311  -0.357783  0  1.929469  0
O  O136  1  0.28435702  0.53611435  0.89908747  1  -1.138433  0  -0.332966  -0.408854  0  2.341762  0
O  O137  1  0.72076152  0.46579884  0.10976307  1  -1.1307  0  -0.341648  -0.41246  0  2.312505  0
O  O138  1  0.78439951  0.96389952  0.60092015  1  -1.137895  0  -0.332785  -0.408605  0  2.341615  0
O  O139  1  0.22076091  0.03419119  0.39022684  1  -1.130982  0  -0.341328  -0.412154  0  2.312577  0
O  O140  1  0.45187602  0.57470503  0.82401738  1  -0.481313  0  -0.136149  -0.351249  0  1.91226  0
O  O141  1  0.22555331  0.59078018  0.76736590  1  -0.414797  0  -0.08777  -0.273418  0  1.912485  0
O  O142  1  0.74881686  0.41989564  0.22717233  1  -0.404857  0  -0.113425  -0.306183  0  1.856754  0
O  O143  1  0.52533899  0.38801640  0.16592923  1  -0.417026  0  -0.100556  -0.293231  0  1.934853  0
O  O144  1  0.95192033  0.92531582  0.67598808  1  -0.482165  0  -0.136136  -0.351241  0  1.912302  0
O  O145  1  0.72563859  0.90921213  0.73263405  1  -0.415315  0  -0.087615  -0.273154  0  1.912483  0
O  O146  1  0.24882899  0.08008856  0.27281337  1  -0.405249  0  -0.113554  -0.306437  0  1.856025  0
O  O147  1  0.02535099  0.11197981  0.33405196  1  -0.417773  0  -0.100521  -0.293355  0  1.934679  0
O  O148  1  0.75002041  0.47686101  0.91501520  1  -1.127272  0  -0.35387  -0.42199  0  2.272879  0
O  O149  1  0.24758273  0.52574607  0.08707438  1  -1.128985  0  -0.352869  -0.413666  0  2.280581  0
O  O150  1  0.25008444  0.02315476  0.58498483  1  -1.127142  0  -0.353634  -0.421946  0  2.272706  0
O  O151  1  0.74758034  0.97424389  0.41292000  1  -1.128978  0  -0.352959  -0.413599  0  2.28064  0
O  O152  1  0.78356358  0.39807706  0.97675590  1  -1.167171  0  -0.381713  -0.474512  0  2.330327  0
O  O153  1  0.21655268  0.60376166  0.02440762  1  -1.181185  0  -0.384036  -0.482799  0  2.321933  0
O  O154  1  0.28359182  0.10192187  0.52323017  1  -1.16751  0  -0.381658  -0.474497  0  2.330323  0
O  O155  1  0.71658618  0.89624354  0.47559723  1  -1.181029  0  -0.384068  -0.482714  0  2.321885  0
