# generated using pymatgen
data_Cd3H26C20(S2N3)4
_symmetry_space_group_name_H-M   'P 1'
_cell_length_a   9.66015551
_cell_length_b   12.10612620
_cell_length_c   14.51013360
_cell_angle_alpha   90.00018612
_cell_angle_beta   98.83427466
_cell_angle_gamma   90.00020664
_symmetry_Int_Tables_number   1
_chemical_formula_structural   Cd3H26C20(S2N3)4
_chemical_formula_sum   'Cd6 H52 C40 S16 N24'
_cell_volume   1676.78642829
_cell_formula_units_Z   2
loop_
 _symmetry_equiv_pos_site_id
 _symmetry_equiv_pos_as_xyz
  1  'x, y, z'
loop_
 _atom_site_type_symbol
 _atom_site_label
 _atom_site_symmetry_multiplicity
 _atom_site_fract_x
 _atom_site_fract_y
 _atom_site_fract_z
 _atom_site_occupancy
 _atom_site_hle17_bader_spin_density
 _atom_site_hle17_ddec_charge
 _atom_site_hle17_ddec_spin_density
 _atom_site_hle17_ddec_sum_bond_order
 _atom_site_hle17_magmom
 _atom_site_hse06_10hf_bader_spin_density
 _atom_site_hse06_10hf_ddec_charge
 _atom_site_hse06_10hf_ddec_spin_density
 _atom_site_hse06_10hf_ddec_sum_bond_order
 _atom_site_hse06_10hf_magmom
 _atom_site_hse06_bader_spin_density
 _atom_site_hse06_ddec_charge
 _atom_site_hse06_ddec_spin_density
 _atom_site_hse06_ddec_sum_bond_order
 _atom_site_hse06_magmom
 _atom_site_pbe_bader_spin_density
 _atom_site_pbe_cm5_charge
 _atom_site_pbe_ddec_charge
 _atom_site_pbe_ddec_spin_density
 _atom_site_pbe_ddec_sum_bond_order
 _atom_site_pbe_magmom
Cd  Cd0  1  0.36913432  0.63298505  0.86843881  1  0  1.077155  0  1.901266  0  0  0.902999  0  2.365592  0  0  0.94796  0  2.324419  0  0  0.795023  0.871827  0  2.393318  0
Cd  Cd1  1  0.13086652  0.13298203  0.63156195  1  0  1.077158  0  1.901305  0  0  0.903002  0  2.365634  0  0  0.94796  0  2.324463  0  0  0.795016  0.871824  0  2.393354  0
Cd  Cd2  1  0.63086472  0.36701783  0.13156094  1  0  1.077173  0  1.901228  0  0  0.903011  0  2.365555  0  0  0.947968  0  2.324384  0  0  0.795018  0.871835  0  2.393271  0
Cd  Cd3  1  0.86913460  0.86701672  0.36843871  1  0  1.077161  0  1.901264  0  0  0.903009  0  2.365585  0  0  0.947962  0  2.32442  0  0  0.795004  0.871819  0  2.393319  0
Cd  Cd4  1  0.50000057  0.49999979  0.49999895  1  0  0.653761  0  2.153462  0  0  0.516963  0  2.588248  0  0  0.552282  0  2.5701  0  0  0.492197  0.493752  0  2.596177  0
Cd  Cd5  1  0.99999996  0.00000062  0.00000052  1  0  0.653799  0  2.153458  0  0  0.517004  0  2.588244  0  0  0.552323  0  2.570095  0  0  0.492208  0.493772  0  2.596222  0
H  H6  1  0.16590005  0.66046550  0.66721678  1  0  0.081669  0  0.9717  0  0  0.088519  0  1.045611  0  0  0.08931  0  1.046227  0  0  0.096092  0.087158  0  1.046559  0
H  H7  1  0.33409885  0.16046549  0.83278178  1  0  0.081686  0  0.971675  0  0  0.088557  0  1.045577  0  0  0.089351  0  1.046193  0  0  0.096108  0.087197  0  1.046522  0
H  H8  1  0.83409794  0.33953573  0.33278286  1  0  0.081681  0  0.971669  0  0  0.088552  0  1.045568  0  0  0.089344  0  1.046182  0  0  0.096099  0.087191  0  1.046508  0
H  H9  1  0.66590124  0.83953326  0.16721670  1  0  0.081685  0  0.971658  0  0  0.088554  0  1.045558  0  0  0.089346  0  1.046175  0  0  0.096103  0.08719  0  1.04651  0
H  H10  1  0.11075532  0.75968640  0.74346292  1  0  0.090525  0  0.942705  0  0  0.102237  0  1.006715  0  0  0.102388  0  1.007746  0  0  0.106127  0.102094  0  1.005917  0
H  H11  1  0.38924515  0.25968461  0.75653469  1  0  0.090604  0  0.942584  0  0  0.102302  0  1.006637  0  0  0.102456  0  1.007666  0  0  0.106137  0.102152  0  1.005855  0
H  H12  1  0.88924372  0.24031482  0.25653682  1  0  0.090527  0  0.942704  0  0  0.102223  0  1.006743  0  0  0.102373  0  1.007773  0  0  0.106116  0.102074  0  1.005956  0
H  H13  1  0.61075389  0.74031414  0.24346368  1  0  0.090464  0  0.94275  0  0  0.102204  0  1.006727  0  0  0.102355  0  1.007761  0  0  0.106123  0.102056  0  1.00594  0
H  H14  1  0.87223762  0.72948201  0.68088948  1  0  0.087955  0  0.939015  0  0  0.097699  0  1.006649  0  0  0.098721  0  1.006759  0  0  0.103981  0.096217  0  1.008242  0
H  H15  1  0.62776160  0.22948218  0.81910982  1  0  0.087983  0  0.939038  0  0  0.097734  0  1.006651  0  0  0.098757  0  1.006758  0  0  0.103996  0.096256  0  1.008255  0
H  H16  1  0.12776037  0.27051922  0.31910947  1  0  0.087972  0  0.939016  0  0  0.097719  0  1.006635  0  0  0.09874  0  1.006745  0  0  0.103993  0.09624  0  1.008233  0
H  H17  1  0.37223639  0.77051656  0.18088913  1  0  0.087947  0  0.938968  0  0  0.097679  0  1.006611  0  0  0.098697  0  1.006727  0  0  0.104008  0.096195  0  1.008216  0
H  H18  1  0.93213699  0.64478432  0.59473900  1  0  0.085918  0  0.949197  0  0  0.095668  0  1.01917  0  0  0.096332  0  1.019711  0  0  0.104961  0.094837  0  1.019045  0
H  H19  1  0.56786074  0.14478383  0.90525992  1  0  0.085903  0  0.949192  0  0  0.095629  0  1.019194  0  0  0.096292  0  1.019734  0  0  0.104939  0.094802  0  1.019058  0
H  H20  1  0.06786100  0.35521608  0.40526063  1  0  0.085887  0  0.949192  0  0  0.095623  0  1.01919  0  0  0.096286  0  1.019728  0  0  0.104933  0.094794  0  1.01906  0
H  H21  1  0.43213935  0.85521575  0.09473718  1  0  0.085858  0  0.949175  0  0  0.095604  0  1.019169  0  0  0.096266  0  1.019709  0  0  0.104923  0.094769  0  1.019046  0
H  H22  1  0.13756171  0.42723012  0.82172903  1  0  0.09335  0  0.921193  0  0  0.107522  0  0.979347  0  0  0.107761  0  0.980255  0  0  0.11107  0.107481  0  0.97839  0
H  H23  1  0.36243754  0.92722743  0.67827097  1  0  0.093357  0  0.921137  0  0  0.10755  0  0.979245  0  0  0.107792  0  0.980154  0  0  0.111067  0.107506  0  0.978282  0
H  H24  1  0.86243837  0.57277110  0.17827082  1  0  0.093346  0  0.921198  0  0  0.107515  0  0.979325  0  0  0.107755  0  0.980233  0  0  0.111049  0.107472  0  0.97837  0
H  H25  1  0.63756359  0.07277131  0.32172761  1  0  0.093343  0  0.921207  0  0  0.107529  0  0.979321  0  0  0.107772  0  0.980231  0  0  0.111038  0.107484  0  0.978364  0
H  H26  1  0.20255187  0.46840504  0.71981807  1  0  0.083152  0  0.968445  0  0  0.092976  0  1.037461  0  0  0.092952  0  1.038954  0  0  0.102614  0.092383  0  1.037349  0
H  H27  1  0.29744760  0.96840339  0.78018068  1  0  0.083179  0  0.968415  0  0  0.092984  0  1.037433  0  0  0.092961  0  1.038924  0  0  0.102604  0.092386  0  1.037318  0
H  H28  1  0.79744717  0.53159619  0.28018098  1  0  0.083168  0  0.968425  0  0  0.092961  0  1.037451  0  0  0.092939  0  1.038941  0  0  0.102609  0.092369  0  1.03733  0
H  H29  1  0.70255353  0.03159454  0.21981721  1  0  0.083202  0  0.968382  0  0  0.092994  0  1.037428  0  0  0.092971  0  1.03892  0  0  0.102612  0.0924  0  1.037321  0
H  H30  1  0.97924478  0.45235378  0.62809746  1  0  0.078686  0  0.953452  0  0  0.087611  0  1.02564  0  0  0.088446  0  1.02603  0  0  0.098739  0.087003  0  1.024856  0
H  H31  1  0.52075352  0.95235251  0.87190166  1  0  0.078685  0  0.95347  0  0  0.087601  0  1.025658  0  0  0.088435  0  1.026044  0  0  0.098749  0.086989  0  1.024874  0
H  H32  1  0.02075321  0.54764745  0.37190148  1  0  0.078694  0  0.953473  0  0  0.087615  0  1.025659  0  0  0.088448  0  1.026046  0  0  0.098756  0.087  0  1.024873  0
H  H33  1  0.47924657  0.04764624  0.12809682  1  0  0.078679  0  0.95346  0  0  0.087603  0  1.025651  0  0  0.088439  0  1.026039  0  0  0.098737  0.086988  0  1.024867  0
H  H34  1  0.92156099  0.38867786  0.72608194  1  0  0.087977  0  0.941922  0  0  0.097461  0  1.010549  0  0  0.098474  0  1.010659  0  0  0.105264  0.096127  0  1.011804  0
H  H35  1  0.57843697  0.88867720  0.77391766  1  0  0.087967  0  0.94192  0  0  0.097437  0  1.010548  0  0  0.098453  0  1.010657  0  0  0.105256  0.0961  0  1.011801  0
H  H36  1  0.07843699  0.61132254  0.27391907  1  0  0.087997  0  0.94191  0  0  0.097467  0  1.010537  0  0  0.098481  0  1.010646  0  0  0.105268  0.096126  0  1.011793  0
H  H37  1  0.42156311  0.11132155  0.22608151  1  0  0.087952  0  0.941917  0  0  0.097421  0  1.010559  0  0  0.098434  0  1.010669  0  0  0.10524  0.096075  0  1.011817  0
H  H38  1  0.03039459  0.69837298  0.88419842  1  0  0.078528  0  0.972504  0  0  0.085082  0  1.048434  0  0  0.085848  0  1.049188  0  0  0.093505  0.084539  0  1.047934  0
H  H39  1  0.46960660  0.19836921  0.61580116  1  0  0.078539  0  0.972478  0  0  0.085085  0  1.048423  0  0  0.085852  0  1.049181  0  0  0.093513  0.08454  0  1.047926  0
H  H40  1  0.96960549  0.30162742  0.11580212  1  0  0.078543  0  0.972499  0  0  0.085092  0  1.048424  0  0  0.08586  0  1.049178  0  0  0.093508  0.08455  0  1.047921  0
H  H41  1  0.53039453  0.80162954  0.38419880  1  0  0.078535  0  0.972491  0  0  0.085086  0  1.048413  0  0  0.085853  0  1.049173  0  0  0.09351  0.084538  0  1.047906  0
H  H42  1  0.06068263  0.56007452  0.92282319  1  0  0.09156  0  0.928101  0  0  0.10494  0  0.987187  0  0  0.106007  0  0.986755  0  0  0.107715  0.104065  0  0.987684  0
H  H43  1  0.43931679  0.06007135  0.57717584  1  0  0.091523  0  0.928142  0  0  0.104908  0  0.987237  0  0  0.105974  0  0.986804  0  0  0.107703  0.104035  0  0.987726  0
H  H44  1  0.93931746  0.43992505  0.07717667  1  0  0.091555  0  0.92812  0  0  0.104932  0  0.987207  0  0  0.105999  0  0.986773  0  0  0.107719  0.104061  0  0.987706  0
H  H45  1  0.56068330  0.93992823  0.42282263  1  0  0.091566  0  0.928085  0  0  0.104934  0  0.987175  0  0  0.106  0  0.986744  0  0  0.107714  0.104053  0  0.987672  0
H  H46  1  0.83819743  0.50454410  0.84227567  1  0  0.095581  0  0.909053  0  0  0.108967  0  0.966843  0  0  0.109787  0  0.967226  0  0  0.113885  0.108196  0  0.966916  0
H  H47  1  0.66180166  0.00453961  0.65772438  1  0  0.095621  0  0.909066  0  0  0.109032  0  0.966803  0  0  0.109854  0  0.967184  0  0  0.113922  0.108265  0  0.966866  0
H  H48  1  0.16180056  0.49545961  0.15772465  1  0  0.095545  0  0.909045  0  0  0.108957  0  0.966805  0  0  0.109779  0  0.967187  0  0  0.113881  0.108187  0  0.966877  0
H  H49  1  0.33819843  0.99545831  0.34227478  1  0  0.095518  0  0.909099  0  0  0.108943  0  0.966836  0  0  0.109761  0  0.967221  0  0  0.113882  0.108171  0  0.966908  0
H  H50  1  0.80174450  0.64703219  0.81840177  1  0  0.085394  0  0.943564  0  0  0.092142  0  1.016825  0  0  0.093377  0  1.016894  0  0  0.102894  0.091359  0  1.016534  0
H  H51  1  0.69825639  0.14702955  0.68159748  1  0  0.08539  0  0.943543  0  0  0.092116  0  1.016814  0  0  0.093353  0  1.016879  0  0  0.102897  0.091332  0  1.016528  0
H  H52  1  0.19825558  0.35296987  0.18159877  1  0  0.085397  0  0.943511  0  0  0.092121  0  1.016797  0  0  0.093356  0  1.016865  0  0  0.102886  0.091339  0  1.016501  0
H  H53  1  0.30174474  0.85296837  0.31840110  1  0  0.085392  0  0.943511  0  0  0.09212  0  1.016779  0  0  0.093356  0  1.016846  0  0  0.102881  0.091335  0  1.016491  0
H  H54  1  0.78305285  0.54156132  0.67901632  1  0  0.240191  0  0.91499  0  0  0.220401  0  0.989302  0  0  0.226524  0  0.985887  0  0  0.293905  0.216604  0  0.991587  0
H  H55  1  0.71694433  0.04156176  0.82098365  1  0  0.240193  0  0.914993  0  0  0.220389  0  0.98931  0  0  0.226514  0  0.985891  0  0  0.293908  0.216591  0  0.991595  0
H  H56  1  0.21694513  0.45843908  0.32098401  1  0  0.240183  0  0.914989  0  0  0.220382  0  0.989304  0  0  0.226506  0  0.985884  0  0  0.293896  0.216583  0  0.991591  0
H  H57  1  0.28305471  0.95843782  0.17901541  1  0  0.240179  0  0.915019  0  0  0.22038  0  0.989324  0  0  0.2265  0  0.985912  0  0  0.293901  0.216576  0  0.991618  0
C  C58  1  0.27533932  0.89308973  0.93701920  1  0  0.275253  0  4.004791  0  0  0.256532  0  4.305642  0  0  0.277169  0  4.319004  0  0  0.143177  0.242112  0  4.294518  0
C  C59  1  0.22466185  0.39308340  0.56297815  1  0  0.275257  0  4.005  0  0  0.256537  0  4.305847  0  0  0.277171  0  4.319212  0  0  0.14314  0.242111  0  4.294734  0
C  C60  1  0.72465972  0.10691398  0.06297848  1  0  0.275241  0  4.004797  0  0  0.256516  0  4.305644  0  0  0.277152  0  4.319005  0  0  0.143146  0.242101  0  4.294505  0
C  C61  1  0.77534033  0.60691205  0.43701985  1  0  0.275294  0  4.00481  0  0  0.256581  0  4.305655  0  0  0.277217  0  4.319017  0  0  0.143178  0.242157  0  4.294526  0
C  C62  1  0.48048298  0.70656822  0.66456064  1  0  0.291213  0  3.998608  0  0  0.270565  0  4.302072  0  0  0.29227  0  4.315401  0  0  0.139978  0.255613  0  4.293699  0
C  C63  1  0.01952349  0.20656815  0.83544089  1  0  0.291254  0  3.998699  0  0  0.270603  0  4.302171  0  0  0.292308  0  4.315499  0  0  0.140007  0.255652  0  4.293792  0
C  C64  1  0.51951501  0.29342970  0.33544037  1  0  0.291025  0  3.998426  0  0  0.270378  0  4.301895  0  0  0.292084  0  4.315221  0  0  0.139868  0.255434  0  4.293503  0
C  C65  1  0.98047763  0.79343225  0.16456183  1  0  0.291249  0  3.998762  0  0  0.270596  0  4.302226  0  0  0.2923  0  4.315556  0  0  0.139973  0.255652  0  4.29384  0
C  C66  1  0.66225361  0.57259894  0.99307055  1  0  0.307342  0  3.99678  0  0  0.289375  0  4.29622  0  0  0.310463  0  4.311198  0  0  0.148301  0.275218  0  4.285194  0
C  C67  1  0.83775003  0.07259602  0.50692603  1  0  0.307398  0  3.997144  0  0  0.289435  0  4.29656  0  0  0.310522  0  4.311531  0  0  0.148341  0.275276  0  4.285527  0
C  C68  1  0.33774962  0.42739816  0.00692550  1  0  0.307228  0  3.996916  0  0  0.289259  0  4.296366  0  0  0.310349  0  4.311343  0  0  0.148294  0.2751  0  4.285344  0
C  C69  1  0.16225425  0.92740686  0.49307150  1  0  0.307394  0  3.997021  0  0  0.289429  0  4.296442  0  0  0.310519  0  4.311411  0  0  0.148321  0.275276  0  4.285408  0
C  C70  1  0.52238099  0.44381304  0.74339007  1  0  0.299479  0  3.955316  0  0  0.279646  0  4.256809  0  0  0.299821  0  4.271626  0  0  0.149019  0.2662  0  4.24649  0
C  C71  1  0.97761517  0.94381264  0.75660811  1  0  0.299459  0  3.95539  0  0  0.279626  0  4.256893  0  0  0.299797  0  4.27171  0  0  0.149041  0.266172  0  4.246556  0
C  C72  1  0.47761700  0.55618819  0.25660681  1  0  0.299471  0  3.955411  0  0  0.279634  0  4.256917  0  0  0.299805  0  4.271734  0  0  0.149049  0.266183  0  4.246601  0
C  C73  1  0.02238491  0.05618776  0.24339174  1  0  0.299506  0  3.955252  0  0  0.279676  0  4.25675  0  0  0.299851  0  4.271564  0  0  0.149033  0.266224  0  4.246429  0
C  C74  1  0.09333195  0.67540751  0.71688462  1  0  -0.046565  0  3.592324  0  0  -0.09614  0  3.836222  0  0  -0.093118  0  3.847903  0  0  -0.077253  -0.097912  0  3.828543  0
C  C75  1  0.40666702  0.17540752  0.78311399  1  0  -0.046559  0  3.592264  0  0  -0.096212  0  3.836278  0  0  -0.093195  0  3.847956  0  0  -0.077276  -0.097978  0  3.828604  0
C  C76  1  0.90666708  0.32459289  0.28311444  1  0  -0.046527  0  3.59236  0  0  -0.096118  0  3.836255  0  0  -0.0931  0  3.847947  0  0  -0.077249  -0.097882  0  3.828573  0
C  C77  1  0.59333411  0.82459288  0.21688597  1  0  -0.046485  0  3.592305  0  0  -0.096115  0  3.836231  0  0  -0.093086  0  3.847895  0  0  -0.077255  -0.097885  0  3.82856  0
C  C78  1  0.94035501  0.65990492  0.66977328  1  0  -0.020886  0  3.487726  0  0  -0.07708  0  3.732996  0  0  -0.074059  0  3.743215  0  0  -0.063127  -0.079257  0  3.727556  0
C  C79  1  0.55964699  0.15990494  0.83022544  1  0  -0.020935  0  3.487774  0  0  -0.077071  0  3.733015  0  0  -0.074045  0  3.743228  0  0  -0.063096  -0.079251  0  3.727585  0
C  C80  1  0.05964403  0.34009466  0.33022578  1  0  -0.020915  0  3.487759  0  0  -0.077089  0  3.733021  0  0  -0.074063  0  3.743232  0  0  -0.063111  -0.079272  0  3.727589  0
C  C81  1  0.44035519  0.84009298  0.16977326  1  0  -0.02078  0  3.48753  0  0  -0.076955  0  3.732822  0  0  -0.073931  0  3.743041  0  0  -0.063098  -0.079132  0  3.727396  0
C  C82  1  0.11889230  0.48249869  0.76132896  1  0  -0.042646  0  3.594464  0  0  -0.093889  0  3.840738  0  0  -0.090834  0  3.853245  0  0  -0.07576  -0.095606  0  3.831999  0
C  C83  1  0.38110724  0.98249712  0.73866985  1  0  -0.042652  0  3.594318  0  0  -0.093915  0  3.840619  0  0  -0.090866  0  3.85313  0  0  -0.075742  -0.095637  0  3.831872  0
C  C84  1  0.88110673  0.51750254  0.23867010  1  0  -0.042625  0  3.59442  0  0  -0.093828  0  3.840653  0  0  -0.090773  0  3.853157  0  0  -0.075711  -0.095551  0  3.831912  0
C  C85  1  0.61889389  0.01750246  0.26132874  1  0  -0.042696  0  3.594382  0  0  -0.093909  0  3.840628  0  0  -0.090861  0  3.853143  0  0  -0.07571  -0.095636  0  3.831902  0
C  C86  1  0.97451912  0.46110899  0.70272453  1  0  -0.024041  0  3.499048  0  0  -0.080346  0  3.746439  0  0  -0.077429  0  3.756669  0  0  -0.06542  -0.082185  0  3.740389  0
C  C87  1  0.52548027  0.96110909  0.79727610  1  0  -0.024003  0  3.498965  0  0  -0.080254  0  3.746275  0  0  -0.077336  0  3.756505  0  0  -0.065419  -0.082086  0  3.740217  0
C  C88  1  0.02547991  0.53889059  0.29727590  1  0  -0.024069  0  3.499064  0  0  -0.080341  0  3.746377  0  0  -0.077421  0  3.756604  0  0  -0.065457  -0.082173  0  3.740315  0
C  C89  1  0.47451876  0.03889048  0.20272365  1  0  -0.024035  0  3.498977  0  0  -0.080333  0  3.746349  0  0  -0.077418  0  3.756581  0  0  -0.065461  -0.082165  0  3.740294  0
C  C90  1  0.02678306  0.61193570  0.86161950  1  0  -0.044134  0  3.588207  0  0  -0.094741  0  3.833602  0  0  -0.092144  0  3.845837  0  0  -0.074764  -0.096603  0  3.825279  0
C  C91  1  0.47321662  0.11193203  0.63837969  1  0  -0.044048  0  3.58817  0  0  -0.09469  0  3.83358  0  0  -0.092104  0  3.845838  0  0  -0.074768  -0.096553  0  3.825254  0
C  C92  1  0.97321702  0.38806553  0.13838035  1  0  -0.044125  0  3.588209  0  0  -0.094734  0  3.833595  0  0  -0.092157  0  3.845874  0  0  -0.074783  -0.096604  0  3.825283  0
C  C93  1  0.52678241  0.88806672  0.36161936  1  0  -0.044141  0  3.588296  0  0  -0.094744  0  3.833669  0  0  -0.09214  0  3.845883  0  0  -0.074792  -0.096601  0  3.825335  0
C  C94  1  0.87751997  0.58047921  0.81409219  1  0  -0.019354  0  3.471061  0  0  -0.072072  0  3.713701  0  0  -0.069444  0  3.724179  0  0  -0.058448  -0.073681  0  3.706538  0
C  C95  1  0.62247952  0.08047719  0.68590743  1  0  -0.019419  0  3.471125  0  0  -0.072085  0  3.713681  0  0  -0.069457  0  3.724155  0  0  -0.058451  -0.073693  0  3.706511  0
C  C96  1  0.12247907  0.41952202  0.18590687  1  0  -0.019327  0  3.471036  0  0  -0.072015  0  3.713588  0  0  -0.069391  0  3.724063  0  0  -0.058413  -0.073621  0  3.70642  0
C  C97  1  0.37752056  0.91952321  0.31409243  1  0  -0.0193  0  3.471138  0  0  -0.07199  0  3.713661  0  0  -0.069363  0  3.724141  0  0  -0.058423  -0.073604  0  3.7065  0
S  S98  1  0.26536971  0.02207787  0.96897889  1  0  -0.284647  0  2.251471  0  0  -0.249784  0  2.595012  0  0  -0.265713  0  2.590608  0  0  -0.118962  -0.234784  0  2.593387  0
S  S99  1  0.23462742  0.52207176  0.53101773  1  0  -0.284633  0  2.251442  0  0  -0.24977  0  2.594981  0  0  -0.265697  0  2.590576  0  0  -0.118922  -0.234758  0  2.593355  0
S  S100  1  0.73462933  0.97792336  0.03102086  1  0  -0.28461  0  2.251373  0  0  -0.249741  0  2.59491  0  0  -0.265672  0  2.590505  0  0  -0.118904  -0.234736  0  2.593281  0
S  S101  1  0.76537163  0.47792368  0.46897857  1  0  -0.284656  0  2.251442  0  0  -0.2498  0  2.595001  0  0  -0.265728  0  2.590595  0  0  -0.118974  -0.234806  0  2.593377  0
S  S102  1  0.57189844  0.70551170  0.57838310  1  0  -0.332312  0  2.179598  0  0  -0.296896  0  2.497581  0  0  -0.315257  0  2.493993  0  0  -0.153973  -0.285744  0  2.501294  0
S  S103  1  0.92810589  0.20551231  0.92161667  1  0  -0.332314  0  2.179603  0  0  -0.296892  0  2.497567  0  0  -0.315252  0  2.493981  0  0  -0.153979  -0.285737  0  2.501288  0
S  S104  1  0.42810164  0.29448705  0.42161607  1  0  -0.332221  0  2.179743  0  0  -0.296808  0  2.497716  0  0  -0.315168  0  2.494129  0  0  -0.15397  -0.285675  0  2.501429  0
S  S105  1  0.07189419  0.79448974  0.07838387  1  0  -0.332331  0  2.179574  0  0  -0.296908  0  2.497529  0  0  -0.315269  0  2.493939  0  0  -0.153966  -0.285744  0  2.501246  0
S  S106  1  0.62014634  0.69869282  0.96005974  1  0  -0.329768  0  2.109318  0  0  -0.292709  0  2.423178  0  0  -0.310789  0  2.418171  0  0  -0.144622  -0.279849  0  2.425463  0
S  S107  1  0.87985796  0.19869346  0.53994001  1  0  -0.329838  0  2.109186  0  0  -0.292773  0  2.423028  0  0  -0.310856  0  2.418022  0  0  -0.144672  -0.279933  0  2.425317  0
S  S108  1  0.37985689  0.30130758  0.03993700  1  0  -0.329734  0  2.109512  0  0  -0.292672  0  2.423369  0  0  -0.310753  0  2.418367  0  0  -0.144632  -0.279814  0  2.425656  0
S  S109  1  0.12014527  0.80130777  0.46005948  1  0  -0.329819  0  2.109169  0  0  -0.292757  0  2.423015  0  0  -0.310838  0  2.417998  0  0  -0.144655  -0.279927  0  2.425307  0
S  S110  1  0.61207417  0.39447436  0.66530371  1  0  -0.339295  0  2.245718  0  0  -0.306143  0  2.588237  0  0  -0.321658  0  2.582494  0  0  -0.131914  -0.296909  0  2.592859  0
S  S111  1  0.88792173  0.89447731  0.83469501  1  0  -0.339296  0  2.245782  0  0  -0.306142  0  2.588293  0  0  -0.321659  0  2.582551  0  0  -0.131929  -0.296927  0  2.592916  0
S  S112  1  0.38792172  0.60552439  0.33469434  1  0  -0.339298  0  2.245673  0  0  -0.306148  0  2.5882  0  0  -0.321664  0  2.582459  0  0  -0.131943  -0.296932  0  2.592825  0
S  S113  1  0.11207835  0.10552392  0.16530554  1  0  -0.339304  0  2.245717  0  0  -0.306157  0  2.588239  0  0  -0.321674  0  2.582505  0  0  -0.131931  -0.296934  0  2.592876  0
N  N114  1  0.28268879  0.80047047  0.91296561  1  0  -0.492949  0  2.844013  0  0  -0.436688  0  3.116397  0  0  -0.455681  0  3.12276  0  0  -0.369368  -0.422692  0  3.11124  0
N  N115  1  0.21731713  0.30046421  0.58703337  1  0  -0.492963  0  2.844276  0  0  -0.43669  0  3.116624  0  0  -0.455682  0  3.12299  0  0  -0.369355  -0.422683  0  3.111467  0
N  N116  1  0.71731026  0.19953324  0.08703069  1  0  -0.492977  0  2.844111  0  0  -0.436702  0  3.116461  0  0  -0.45569  0  3.122822  0  0  -0.369388  -0.422698  0  3.111291  0
N  N117  1  0.78268819  0.69953123  0.41296634  1  0  -0.49297  0  2.84408  0  0  -0.436716  0  3.116458  0  0  -0.455709  0  3.122823  0  0  -0.369354  -0.422709  0  3.111289  0
N  N118  1  0.41615654  0.71222076  0.72748134  1  0  -0.530504  0  2.857167  0  0  -0.475034  0  3.128229  0  0  -0.495442  0  3.136305  0  0  -0.380192  -0.461674  0  3.123282  0
N  N119  1  0.08384995  0.21221898  0.77252021  1  0  -0.530583  0  2.857292  0  0  -0.475109  0  3.128339  0  0  -0.495515  0  3.136412  0  0  -0.380221  -0.461751  0  3.123395  0
N  N120  1  0.58384355  0.28777964  0.27251506  1  0  -0.530407  0  2.856826  0  0  -0.474925  0  3.127854  0  0  -0.495332  0  3.135927  0  0  -0.380097  -0.46157  0  3.122901  0
N  N121  1  0.91615222  0.78778143  0.22748055  1  0  -0.530551  0  2.857383  0  0  -0.475071  0  3.128422  0  0  -0.495475  0  3.136497  0  0  -0.38018  -0.461701  0  3.123468  0
N  N122  1  0.69299550  0.48065685  0.01561835  1  0  -0.542054  0  2.837413  0  0  -0.493221  0  3.107168  0  0  -0.512796  0  3.113365  0  0  -0.393459  -0.479506  0  3.102455  0
N  N123  1  0.80701071  0.98065932  0.48438162  1  0  -0.542039  0  2.837931  0  0  -0.493205  0  3.10767  0  0  -0.512783  0  3.113872  0  0  -0.39347  -0.479493  0  3.102951  0
N  N124  1  0.30700878  0.51934355  0.98437918  1  0  -0.541987  0  2.83737  0  0  -0.493147  0  3.107116  0  0  -0.512725  0  3.113311  0  0  -0.393454  -0.479432  0  3.102403  0
N  N125  1  0.19299252  0.01934273  0.51561718  1  0  -0.542046  0  2.837797  0  0  -0.493216  0  3.107544  0  0  -0.512792  0  3.113741  0  0  -0.393478  -0.479513  0  3.102832  0
N  N126  1  0.45777039  0.47589929  0.80073770  1  0  -0.50102  0  2.824288  0  0  -0.446501  0  3.087226  0  0  -0.467083  0  3.097446  0  0  -0.366536  -0.432386  0  3.079691  0
N  N127  1  0.04222702  0.97589741  0.69926018  1  0  -0.501025  0  2.824346  0  0  -0.446503  0  3.087279  0  0  -0.467082  0  3.0975  0  0  -0.366592  -0.432382  0  3.079721  0
N  N128  1  0.54222655  0.52410359  0.19926114  1  0  -0.501008  0  2.824421  0  0  -0.446482  0  3.087344  0  0  -0.467063  0  3.097567  0  0  -0.366568  -0.432371  0  3.079807  0
N  N129  1  0.95777306  0.02410134  0.30073967  1  0  -0.501049  0  2.824257  0  0  -0.446534  0  3.087192  0  0  -0.467111  0  3.09741  0  0  -0.366551  -0.432408  0  3.07965  0
N  N130  1  0.12821558  0.59761322  0.79578194  1  0  -0.21457  0  3.222596  0  0  -0.120552  0  3.458479  0  0  -0.138776  0  3.479791  0  0  -0.338487  -0.107816  0  3.443273  0
N  N131  1  0.37178403  0.09761034  0.70421721  1  0  -0.214673  0  3.222627  0  0  -0.120627  0  3.458527  0  0  -0.138852  0  3.479837  0  0  -0.338495  -0.107893  0  3.44332  0
N  N132  1  0.87178451  0.40238884  0.20421723  1  0  -0.214647  0  3.222635  0  0  -0.12065  0  3.458514  0  0  -0.138875  0  3.479821  0  0  -0.338505  -0.107915  0  3.443308  0
N  N133  1  0.62821710  0.90238923  0.29578275  1  0  -0.214609  0  3.222682  0  0  -0.120607  0  3.458564  0  0  -0.138832  0  3.479878  0  0  -0.33848  -0.107874  0  3.44336  0
N  N134  1  0.88349390  0.55985805  0.71256962  1  0  -0.093085  0  3.396161  0  0  -0.007055  0  3.59839  0  0  -0.01955  0  3.617325  0  0  -0.350021  0.000714  0  3.586021  0
N  N135  1  0.61650548  0.05985807  0.78742993  1  0  -0.093071  0  3.396221  0  0  -0.007079  0  3.598471  0  0  -0.019576  0  3.617419  0  0  -0.350057  0.000695  0  3.586089  0
N  N136  1  0.11650514  0.44014235  0.28743081  1  0  -0.093024  0  3.396127  0  0  -0.007022  0  3.598384  0  0  -0.019509  0  3.617316  0  0  -0.350005  0.000753  0  3.586007  0
N  N137  1  0.38349356  0.94014068  0.21256844  1  0  -0.093047  0  3.396225  0  0  -0.007037  0  3.598483  0  0  -0.019529  0  3.617424  0  0  -0.350017  0.000737  0  3.586114  0
