# generated using pymatgen
data_FeH13C20N2O5
_symmetry_space_group_name_H-M   'P 1'
_cell_length_a   8.87623730
_cell_length_b   13.53154526
_cell_length_c   30.29866689
_cell_angle_alpha   89.99861467
_cell_angle_beta   90.00018114
_cell_angle_gamma   90.00298103
_symmetry_Int_Tables_number   1
_chemical_formula_structural   FeH13C20N2O5
_chemical_formula_sum   'Fe8 H104 C160 N16 O40'
_cell_volume   3639.14884013
_cell_formula_units_Z   8
loop_
 _symmetry_equiv_pos_site_id
 _symmetry_equiv_pos_as_xyz
  1  'x, y, z'
loop_
 _atom_site_type_symbol
 _atom_site_label
 _atom_site_symmetry_multiplicity
 _atom_site_fract_x
 _atom_site_fract_y
 _atom_site_fract_z
 _atom_site_occupancy
 _atom_site_pbe_bader_charge
 _atom_site_pbe_bader_spin_density
 _atom_site_pbe_cm5_charge
 _atom_site_pbe_ddec_charge
 _atom_site_pbe_ddec_spin_density
 _atom_site_pbe_ddec_sum_bond_order
 _atom_site_pbe_magmom
Fe  Fe0  1  0.19318667  0.61919979  0.28520469  1  1.459329  3.665616  0.701817  0.967013  3.892145  2.571857  3.639
Fe  Fe1  1  0.30680873  0.38076186  0.28520701  1  1.459277  3.665578  0.701905  0.967156  3.892179  2.572283  3.639
Fe  Fe2  1  0.80679314  0.61921960  0.21478009  1  1.459253  3.665616  0.702037  0.967196  3.892201  2.572974  3.639
Fe  Fe3  1  0.69323786  0.38079182  0.21477967  1  1.459278  3.665668  0.702023  0.967218  3.892219  2.572408  3.639
Fe  Fe4  1  0.80674585  0.38079496  0.71478489  1  1.459318  3.665721  0.702006  0.967463  3.89226  2.571742  3.639
Fe  Fe5  1  0.69320152  0.61919743  0.71478619  1  1.459103  3.665676  0.701967  0.967327  3.892217  2.572135  3.639
Fe  Fe6  1  0.19316754  0.38078550  0.78521444  1  1.459132  3.665523  0.701787  0.966862  3.892066  2.572321  3.639
Fe  Fe7  1  0.30682197  0.61925319  0.78521387  1  1.459143  3.665568  0.701974  0.96722  3.89215  2.572162  3.639
H  H8  1  0.41630886  0.62348961  0.15932695  1  0.120367  0.000177  0.108379  0.117373  -0.000327  1.008009  0.0
H  H9  1  0.50086444  0.62116975  0.08014299  1  0.082678  0.000113  0.101599  0.116408  7.6e-05  1.028731  0.0
H  H10  1  0.06881841  0.73192686  0.03963612  1  0.086716  0.000109  0.105404  0.121117  8.6e-05  1.014119  0.0
H  H11  1  0.98583033  0.73652893  0.11941594  1  0.090852  0.000147  0.101794  0.100846  -0.000223  1.028084  0.0
H  H12  1  0.32986299  0.65012354  0.92627734  1  0.098311  0.000117  0.103384  0.116692  -7.8e-05  1.055114  0.0
H  H13  1  0.33010345  0.84086306  0.24474732  1  0.091101  0.000589  0.118819  0.111618  -1e-06  1.006443  0.0
H  H14  1  0.41498671  0.98665850  0.30491589  1  0.123377  0.000877  0.123236  0.123885  0.000338  1.011805  0.0
H  H15  1  0.32490337  0.71769325  0.37181826  1  0.170876  0.000325  0.133888  0.095269  -0.000393  1.064936  0.0
H  H16  1  0.25226859  0.81411409  0.42663728  1  0.072617  -7.1e-05  0.10678  0.110909  -7.8e-05  1.017883  0.0
H  H17  1  0.31367915  0.87474999  0.49961808  1  0.052389  -5.7e-05  0.103252  0.102103  -4.6e-05  1.027048  0.0
H  H18  1  0.63459756  0.07827226  0.44204771  1  0.079041  -6.6e-05  0.098797  0.094837  -7.8e-05  1.046063  0.0
H  H19  1  0.57669733  0.01358810  0.36900752  1  0.05678  -5e-06  0.107104  0.114065  -9e-06  0.995502  0.0
H  H20  1  0.08371561  0.37650547  0.15932978  1  0.120541  0.000177  0.108415  0.117434  -0.000326  1.007935  0.0
H  H21  1  0.99915498  0.37882829  0.08014651  1  0.082808  0.000112  0.101632  0.116456  7.6e-05  1.028859  0.0
H  H22  1  0.43119689  0.26808730  0.03963351  1  0.086645  0.000109  0.1054  0.121153  8.6e-05  1.014017  0.0
H  H23  1  0.51420303  0.26347806  0.11941365  1  0.090739  0.000146  0.101803  0.100841  -0.000223  1.028112  0.0
H  H24  1  0.17014494  0.34986758  0.92628119  1  0.098436  0.000117  0.103429  0.116782  -7.8e-05  1.055044  0.0
H  H25  1  0.16990166  0.15915251  0.24474431  1  0.090969  0.000589  0.118817  0.11166  -1e-06  1.006328  0.0
H  H26  1  0.08503820  0.01334937  0.30491470  1  0.123616  0.000878  0.123294  0.124057  0.000339  1.011803  0.0
H  H27  1  0.17510649  0.28231986  0.37181327  1  0.171024  0.000326  0.133906  0.095254  -0.000394  1.06499  0.0
H  H28  1  0.24776439  0.18589678  0.42663076  1  0.072927  -7.1e-05  0.106807  0.110949  -7.8e-05  1.018211  0.0
H  H29  1  0.18635348  0.12526430  0.49961578  1  0.051992  -5.7e-05  0.103237  0.102049  -4.5e-05  1.026884  0.0
H  H30  1  0.86543026  0.92174307  0.44204822  1  0.079533  -6.6e-05  0.098836  0.095002  -7.8e-05  1.046026  0.0
H  H31  1  0.92332857  0.98642676  0.36900476  1  0.056929  -5e-06  0.107107  0.114051  -9e-06  0.995336  0.0
H  H32  1  0.58365439  0.62347204  0.34066603  1  0.120058  0.000178  0.108504  0.117602  -0.000326  1.007925  0.0
H  H33  1  0.49914256  0.62115902  0.41985233  1  0.082834  0.000113  0.10159  0.116385  7.6e-05  1.028835  0.0
H  H34  1  0.93116806  0.73201445  0.46033589  1  0.08735  0.000109  0.105355  0.121148  8.7e-05  1.013921  0.0
H  H35  1  0.01411482  0.73662270  0.38055503  1  0.090883  0.000146  0.1017  0.100864  -0.000224  1.028198  0.0
H  H36  1  0.67017083  0.65013155  0.57371116  1  0.098272  0.000117  0.103443  0.116883  -7.9e-05  1.054998  0.0
H  H37  1  0.66994232  0.84081982  0.25523639  1  0.091777  0.000589  0.118842  0.11159  -1e-06  1.006487  0.0
H  H38  1  0.58510325  0.98661414  0.19506625  1  0.124141  0.000878  0.123338  0.124219  0.000339  1.011917  0.0
H  H39  1  0.67508535  0.71764748  0.12816909  1  0.170287  0.000325  0.13373  0.095083  -0.000394  1.06495  0.0
H  H40  1  0.74774353  0.81408192  0.07334804  1  0.072269  -7.1e-05  0.106819  0.110916  -7.8e-05  1.017869  0.0
H  H41  1  0.68631410  0.87473889  0.00036791  1  0.051934  -5.7e-05  0.103182  0.101977  -4.6e-05  1.027061  0.0
H  H42  1  0.36546682  0.07825887  0.05795675  1  0.079426  -6.6e-05  0.098881  0.095126  -7.8e-05  1.045992  0.0
H  H43  1  0.42337545  0.01355056  0.13099500  1  0.056829  -5e-06  0.107141  0.114062  -9e-06  0.995334  0.0
H  H44  1  0.91633290  0.37650594  0.34065827  1  0.120228  0.000177  0.108374  0.117595  -0.000327  1.007765  0.0
H  H45  1  0.00084415  0.37884409  0.41984482  1  0.083274  0.000113  0.10161  0.116384  7.6e-05  1.029005  0.0
H  H46  1  0.56880926  0.26802428  0.46033492  1  0.087291  0.000109  0.105336  0.121132  8.7e-05  1.013982  0.0
H  H47  1  0.48585232  0.26340914  0.38055747  1  0.090618  0.000146  0.101635  0.100809  -0.000224  1.028157  0.0
H  H48  1  0.82981896  0.34986407  0.57370757  1  0.099538  0.000117  0.10346  0.116923  -7.8e-05  1.055016  0.0
H  H49  1  0.83007222  0.15917019  0.25523650  1  0.091787  0.000589  0.118869  0.111706  -1e-06  1.006433  0.0
H  H50  1  0.91491628  0.01336953  0.19506933  1  0.123867  0.000878  0.123287  0.124102  0.000339  1.011821  0.0
H  H51  1  0.82492219  0.28234056  0.12816655  1  0.170458  0.000325  0.133756  0.095141  -0.000394  1.064931  0.0
H  H52  1  0.75226230  0.18591132  0.07335043  1  0.072303  -7.1e-05  0.106844  0.111056  -7.8e-05  1.017919  0.0
H  H53  1  0.81368757  0.12526126  0.00037035  1  0.052026  -5.7e-05  0.1032  0.102049  -4.6e-05  1.027106  0.0
H  H54  1  0.13455995  0.92174838  0.05795739  1  0.079191  -6.6e-05  0.098888  0.095068  -7.8e-05  1.046054  0.0
H  H55  1  0.07664871  0.98644681  0.13099653  1  0.056691  -5e-06  0.107129  0.114091  -9e-06  0.9953  0.0
H  H56  1  0.58368788  0.37650957  0.84067319  1  0.120458  0.000178  0.108402  0.117442  -0.000326  1.007884  0.0
H  H57  1  0.49913793  0.37882574  0.91985781  1  0.082903  0.000113  0.101607  0.116481  7.6e-05  1.028693  0.0
H  H58  1  0.93119410  0.26808046  0.96036204  1  0.086794  0.000109  0.105405  0.121178  8.6e-05  1.014034  0.0
H  H59  1  0.01417992  0.26348356  0.88058090  1  0.090818  0.000146  0.101766  0.100802  -0.000224  1.028172  0.0
H  H60  1  0.67014164  0.34986087  0.07371982  1  0.098337  0.000117  0.103388  0.116726  -7.8e-05  1.055035  0.0
H  H61  1  0.66988878  0.15914795  0.75525678  1  0.09095  0.000589  0.118808  0.111639  -1e-06  1.006303  0.0
H  H62  1  0.58503819  0.01333921  0.69508986  1  0.123437  0.000878  0.123262  0.123901  0.000339  1.01188  0.0
H  H63  1  0.67508098  0.28230816  0.62818419  1  0.170895  0.000325  0.133907  0.095255  -0.000394  1.065081  0.0
H  H64  1  0.74774956  0.18589323  0.57336946  1  0.072455  -7.1e-05  0.106825  0.110955  -7.8e-05  1.018185  0.0
H  H65  1  0.68633561  0.12526767  0.50038635  1  0.052067  -5.7e-05  0.103282  0.102149  -4.5e-05  1.026874  0.0
H  H66  1  0.36542059  0.92173949  0.55795441  1  0.079289  -6.6e-05  0.098816  0.094887  -7.8e-05  1.046049  0.0
H  H67  1  0.42331631  0.98641773  0.63099724  1  0.056766  -5e-06  0.107072  0.114073  -9e-06  0.995395  0.0
H  H68  1  0.91630479  0.62349815  0.84067267  1  0.120469  0.000177  0.108375  0.117353  -0.000326  1.00793  0.0
H  H69  1  0.00086767  0.62118125  0.91985594  1  0.08276  0.000113  0.101599  0.116419  7.6e-05  1.02868  0.0
H  H70  1  0.56881112  0.73191633  0.96036531  1  0.086698  0.000109  0.105439  0.121212  8.6e-05  1.013973  0.0
H  H71  1  0.48581962  0.73652261  0.88058418  1  0.090973  0.000146  0.101751  0.100764  -0.000223  1.028141  0.0
H  H72  1  0.82983716  0.65012643  0.07372125  1  0.098524  0.000117  0.103434  0.116838  -7.8e-05  1.055101  0.0
H  H73  1  0.83009508  0.84084372  0.75525318  1  0.091081  0.000589  0.118886  0.111717  -1e-06  1.00633  0.0
H  H74  1  0.91499797  0.98664243  0.69508774  1  0.123619  0.000878  0.123241  0.123978  0.000338  1.011804  0.0
H  H75  1  0.82489589  0.71769411  0.62818060  1  0.170653  0.000325  0.133889  0.09525  -0.000393  1.064944  0.0
H  H76  1  0.75227065  0.81411572  0.57336542  1  0.072663  -7.1e-05  0.106784  0.110893  -7.8e-05  1.017891  0.0
H  H77  1  0.81368494  0.87475188  0.50038336  1  0.052475  -5.7e-05  0.103252  0.102137  -4.6e-05  1.027032  0.0
H  H78  1  0.13460366  0.07827016  0.55795290  1  0.078953  -6.6e-05  0.098782  0.094815  -7.8e-05  1.046096  0.0
H  H79  1  0.07670196  0.01358277  0.63099538  1  0.056412  -5e-06  0.107072  0.114056  -9e-06  0.99543  0.0
H  H80  1  0.41630066  0.37650128  0.65934269  1  0.120218  0.000177  0.108404  0.117595  -0.000326  1.007832  0.0
H  H81  1  0.50084178  0.37883056  0.58015837  1  0.082531  0.000113  0.101651  0.116374  7.6e-05  1.029076  0.0
H  H82  1  0.06882192  0.26801208  0.53965765  1  0.087228  0.000109  0.105321  0.121135  8.6e-05  1.014002  0.0
H  H83  1  0.98584137  0.26339201  0.61943488  1  0.090432  0.000145  0.101677  0.10073  -0.000224  1.028293  0.0
H  H84  1  0.32982365  0.34986320  0.42629062  1  0.099544  0.000116  0.103458  0.116908  -7.8e-05  1.055043  0.0
H  H85  1  0.33004653  0.15918602  0.74476507  1  0.09182  0.000589  0.118835  0.111596  -1e-06  1.006421  0.0
H  H86  1  0.41491940  0.01338948  0.80493356  1  0.124104  0.000878  0.123404  0.12433  0.000338  1.011797  0.0
H  H87  1  0.32490237  0.28235318  0.87183369  1  0.170225  0.000324  0.133732  0.095044  -0.000394  1.064913  0.0
H  H88  1  0.25226110  0.18592170  0.92665210  1  0.072759  -7.1e-05  0.106804  0.11098  -7.8e-05  1.017785  0.0
H  H89  1  0.31369053  0.12526399  0.99963190  1  0.05198  -5.7e-05  0.103201  0.102037  -4.6e-05  1.027036  0.0
H  H90  1  0.63454682  0.92174993  0.94204239  1  0.079394  -6.6e-05  0.098871  0.095121  -7.8e-05  1.045986  0.0
H  H91  1  0.57663143  0.98645676  0.86900448  1  0.056938  -5e-06  0.107145  0.114135  -9e-06  0.995315  0.0
H  H92  1  0.08365482  0.62348068  0.65933262  1  0.120146  0.000177  0.108467  0.117555  -0.000326  1.00787  0.0
H  H93  1  0.99914583  0.62115215  0.58014476  1  0.082759  0.000113  0.10159  0.116428  7.6e-05  1.028945  0.0
H  H94  1  0.43116833  0.73199930  0.53965961  1  0.08734  0.000109  0.105304  0.121082  8.7e-05  1.013963  0.0
H  H95  1  0.51411738  0.73661221  0.61943871  1  0.090927  0.000146  0.101703  0.100914  -0.000224  1.028053  0.0
H  H96  1  0.17016088  0.65012403  0.42628695  1  0.098558  0.000117  0.103449  0.116886  -7.8e-05  1.055044  0.0
H  H97  1  0.16991889  0.84085043  0.74476727  1  0.091909  0.000589  0.118849  0.111668  -1e-06  1.006391  0.0
H  H98  1  0.08509060  0.98663927  0.80494005  1  0.123585  0.000878  0.123316  0.124113  0.000339  1.011719  0.0
H  H99  1  0.17507455  0.71766306  0.87183524  1  0.170423  0.000325  0.13376  0.095153  -0.000394  1.06489  0.0
H  H100  1  0.24773444  0.81409083  0.92665532  1  0.072483  -7.1e-05  0.106798  0.111003  -7.8e-05  1.01794  0.0
H  H101  1  0.18631255  0.87474088  0.99963573  1  0.052084  -5.7e-05  0.103251  0.102175  -4.6e-05  1.026997  0.0
H  H102  1  0.86544355  0.07825820  0.94204737  1  0.079225  -6.6e-05  0.09888  0.09505  -7.8e-05  1.046031  0.0
H  H103  1  0.92335929  0.01355829  0.86900889  1  0.05696  -5e-06  0.107171  0.114121  -9e-06  0.995435  0.0
H  H104  1  0.00001194  0.35376212  0.24996190  1  0.085793  0.007182  0.118044  0.018607  0.00196  1.029737  0.004
H  H105  1  0.50001463  0.64619627  0.24995429  1  0.086561  0.007184  0.117919  0.018277  0.001961  1.029706  0.004
H  H106  1  0.99998480  0.64621342  0.75002636  1  0.086072  0.007185  0.117947  0.018347  0.001962  1.029647  0.004
H  H107  1  0.49997309  0.35377779  0.75003463  1  0.085937  0.007184  0.118006  0.018424  0.001961  1.029757  0.004
H  H108  1  0.25000320  0.49999683  0.04967024  1  0.070162  -9.4e-05  0.107858  0.1348  -0.000117  1.044034  0.0
H  H109  1  0.74999424  0.50001077  0.45031582  1  0.06993  -9.4e-05  0.107949  0.1352  -0.000117  1.043924  0.0
H  H110  1  0.75001382  0.49999941  0.95033089  1  0.070193  -9.4e-05  0.107884  0.13484  -0.000117  1.044008  0.0
H  H111  1  0.24999800  0.49999803  0.54968333  1  0.069893  -9.4e-05  0.107965  0.135185  -0.000117  1.043914  0.0
C  C112  1  0.13691107  0.67323588  0.19024442  1  1.539982  -0.013909  0.214322  0.591601  -0.01688  4.161439  -0.008
C  C113  1  0.19545056  0.68067410  0.14405491  1  -0.00623  0.006491  -0.022469  -0.051958  0.001814  3.972236  0.007
C  C114  1  0.34184239  0.64958437  0.13321936  1  -0.028277  -0.007592  -0.081627  -0.070628  -0.008069  3.949962  -0.004
C  C115  1  0.38950419  0.64832266  0.08931250  1  -0.011313  0.002602  -0.100293  -0.193678  0.000703  3.981452  0.002
C  C116  1  0.28971514  0.67769322  0.05625540  1  0.346332  -0.010441  0.077105  0.250133  -0.011297  4.039591  -0.007
C  C117  1  0.14506289  0.71138507  0.06635493  1  -0.01344  0.0023  -0.103008  -0.206918  0.000602  4.004618  0.002
C  C118  1  0.09909439  0.71313307  0.11028588  1  -0.056603  -0.00648  -0.084407  -0.070489  -0.006964  3.97945  -0.004
C  C119  1  0.29110446  0.58476865  0.99040195  1  0.364981  -0.000242  0.085853  0.294729  -0.000467  4.048105  0.0
C  C120  1  0.29351178  0.58513502  0.94437550  1  -0.020974  0.000445  -0.111574  -0.254513  -1.9e-05  3.989299  0.0
C  C121  1  0.34198917  0.83728325  0.28029974  1  0.435042  0.001129  0.004085  -0.018148  -0.000206  4.002271  0.001
C  C122  1  0.38617193  0.90958021  0.30946534  1  0.267844  0.004322  -0.006628  -0.127496  0.002001  3.941557  0.003
C  C123  1  0.33641583  0.77060756  0.34533926  1  0.954818  -0.012157  0.141912  0.101429  -0.013601  3.906238  -0.008
C  C124  1  0.41251006  0.90805307  0.39278949  1  0.315417  -0.003089  0.094223  0.165691  -0.003583  4.037561  -0.002
C  C125  1  0.33904183  0.87041209  0.43007149  1  0.041939  -0.000902  -0.089361  -0.160588  -0.001035  3.996341  0.0
C  C126  1  0.37426897  0.90591526  0.47168074  1  -0.063372  -0.001287  -0.084237  -0.099863  -0.001332  3.972926  -0.001
C  C127  1  0.48189077  0.98112048  0.47776580  1  -0.066986  -0.003179  -0.010755  0.052604  -0.003256  3.995338  -0.002
C  C128  1  0.55142372  0.01947939  0.43961454  1  0.001945  -0.001634  -0.08824  -0.111297  -0.00173  3.982368  -0.001
C  C129  1  0.51832480  0.98365070  0.39770287  1  -0.016747  -0.000516  -0.093246  -0.165369  -0.000703  3.997371  0.0
C  C130  1  0.36311373  0.32674127  0.19024407  1  1.540181  -0.013802  0.213904  0.591177  -0.016767  4.162189  -0.007
C  C131  1  0.30457375  0.31931812  0.14405295  1  -0.005698  0.006489  -0.022385  -0.051625  0.00182  3.971959  0.007
C  C132  1  0.15817843  0.35041288  0.13321989  1  -0.028457  -0.007552  -0.081674  -0.070787  -0.008029  3.950014  -0.004
C  C133  1  0.11051052  0.35167179  0.08931595  1  -0.011425  0.002591  -0.100364  -0.193775  0.0007  3.981798  0.002
C  C134  1  0.21029696  0.32230155  0.05625760  1  0.346736  -0.010398  0.077217  0.250369  -0.011252  4.039522  -0.007
C  C135  1  0.35495720  0.28861803  0.06635368  1  -0.012965  0.002291  -0.103074  -0.207083  0.0006  4.00475  0.002
C  C136  1  0.40093181  0.28686616  0.11028468  1  -0.057128  -0.006448  -0.084383  -0.070556  -0.006932  3.979615  -0.004
C  C137  1  0.20889965  0.41522415  0.99040249  1  0.364236  -0.00024  0.085838  0.294766  -0.000464  4.048236  0.0
C  C138  1  0.20649634  0.41486103  0.94437638  1  -0.021111  0.000445  -0.111555  -0.254596  -1.9e-05  3.989596  0.0
C  C139  1  0.15801745  0.16272669  0.28029668  1  0.4347  0.001135  0.003985  -0.018235  -0.000205  4.002026  0.001
C  C140  1  0.11384401  0.09042668  0.30946269  1  0.26776  0.004331  -0.006636  -0.127728  0.002005  3.941466  0.003
C  C141  1  0.16359262  0.22940107  0.34533582  1  0.954776  -0.012191  0.141993  0.10161  -0.013634  3.905748  -0.008
C  C142  1  0.08751918  0.09195742  0.39278646  1  0.315332  -0.003094  0.094299  0.166036  -0.00359  4.037388  -0.002
C  C143  1  0.16099118  0.12960377  0.43006813  1  0.040841  -0.000908  -0.08937  -0.160879  -0.00104  3.996737  0.0
C  C144  1  0.12575886  0.09410202  0.47167674  1  -0.063599  -0.001285  -0.084231  -0.099739  -0.001331  3.973473  -0.001
C  C145  1  0.01813712  0.01889574  0.47776350  1  -0.026425  -0.003157  -0.010913  0.052214  -0.003267  3.99608  -0.002
C  C146  1  0.94860632  0.98053829  0.43961319  1  0.001344  -0.001633  -0.08833  -0.111501  -0.001731  3.982414  -0.001
C  C147  1  0.98170367  0.01636335  0.39770103  1  -0.016458  -0.00052  -0.093204  -0.165279  -0.000706  3.996993  0.0
C  C148  1  0.86303471  0.67322438  0.30973351  1  1.533218  -0.013876  0.214583  0.592106  -0.016876  4.16082  -0.008
C  C149  1  0.80450933  0.68070686  0.35592491  1  -0.004506  0.006494  -0.022586  -0.052046  0.001816  3.972199  0.007
C  C150  1  0.65812293  0.64958935  0.36676674  1  -0.028933  -0.007584  -0.081754  -0.070824  -0.008061  3.949846  -0.004
C  C151  1  0.61049145  0.64832881  0.41067757  1  -0.011397  0.002599  -0.100177  -0.193612  0.000702  3.981492  0.002
C  C152  1  0.71028958  0.67771724  0.44372743  1  0.347204  -0.010427  0.077163  0.250352  -0.011284  4.039457  -0.007
C  C153  1  0.85491745  0.71144563  0.43362159  1  -0.012339  0.002301  -0.102866  -0.206772  0.000602  4.003834  0.002
C  C154  1  0.90086693  0.71320129  0.38968501  1  -0.058545  -0.00648  -0.084334  -0.070799  -0.006964  3.979133  -0.004
C  C155  1  0.70891518  0.58478074  0.50958693  1  0.362773  -0.000241  0.085776  0.294894  -0.000465  4.048222  0.0
C  C156  1  0.70651465  0.58514083  0.55561403  1  -0.020671  0.00044  -0.11148  -0.254726  -2.4e-05  3.989697  0.0
C  C157  1  0.65806083  0.83724080  0.21968698  1  0.434695  0.001133  0.00426  -0.017562  -0.000205  4.001488  0.001
C  C158  1  0.61389279  0.90953635  0.19052028  1  0.266627  0.004332  -0.006922  -0.128276  0.002006  3.941966  0.003
C  C159  1  0.66359623  0.77055922  0.15464653  1  0.956361  -0.012187  0.141983  0.101562  -0.013634  3.906268  -0.008
C  C160  1  0.58752750  0.90801579  0.10720043  1  0.314574  -0.003095  0.094064  0.165725  -0.003589  4.037355  -0.002
C  C161  1  0.66097473  0.87037861  0.06991619  1  0.041232  -0.000905  -0.089426  -0.160887  -0.001038  3.996093  0.0
C  C162  1  0.62573913  0.90589392  0.02830887  1  -0.063382  -0.001288  -0.083974  -0.099392  -0.001334  3.973155  -0.001
C  C163  1  0.51812778  0.98110539  0.02223356  1  -0.066348  -0.003188  -0.010935  0.052168  -0.003264  3.996327  -0.002
C  C164  1  0.44862249  0.01945689  0.06038659  1  0.000987  -0.001634  -0.088306  -0.11167  -0.001731  3.982282  -0.001
C  C165  1  0.48172775  0.98361745  0.10229580  1  -0.01496  -0.000519  -0.09315  -0.164933  -0.000706  3.996593  0.0
C  C166  1  0.63695901  0.32675084  0.30973164  1  1.533819  -0.013904  0.214297  0.591958  -0.016904  4.16075  -0.008
C  C167  1  0.69547250  0.31929172  0.35592384  1  -0.005079  0.006498  -0.022519  -0.051885  0.001818  3.972048  0.007
C  C168  1  0.84185789  0.35040420  0.36676283  1  -0.028938  -0.007594  -0.08156  -0.070808  -0.008071  3.949817  -0.004
C  C169  1  0.88949322  0.35167715  0.41067171  1  -0.011643  0.002604  -0.100399  -0.193783  0.000704  3.981557  0.002
C  C170  1  0.78969545  0.32230022  0.44372509  1  0.348002  -0.010438  0.07723  0.250342  -0.011295  4.039082  -0.007
C  C171  1  0.64506183  0.28858050  0.43362080  1  -0.012785  0.002302  -0.10297  -0.20671  0.000603  4.003634  0.002
C  C172  1  0.59910624  0.28682132  0.38968552  1  -0.058643  -0.006487  -0.084185  -0.070718  -0.006971  3.978788  -0.004
C  C173  1  0.79107843  0.41523388  0.50958656  1  0.36339  -0.000242  0.085777  0.294831  -0.000466  4.048057  0.0
C  C174  1  0.79348284  0.41486169  0.55561268  1  -0.021891  0.00044  -0.111435  -0.254602  -2.3e-05  3.989469  0.0
C  C175  1  0.84195896  0.16274818  0.21968740  1  0.435114  0.001132  0.004101  -0.017895  -0.000205  4.001619  0.001
C  C176  1  0.88612557  0.09044683  0.19052019  1  0.266522  0.00433  -0.006706  -0.127815  0.002004  3.941749  0.003
C  C177  1  0.83642061  0.22942738  0.15464490  1  0.955275  -0.012183  0.142253  0.101816  -0.01363  3.905657  -0.008
C  C178  1  0.91248657  0.09197561  0.10720069  1  0.314755  -0.003092  0.094025  0.165755  -0.003586  4.037417  -0.002
C  C179  1  0.83903331  0.12961851  0.06991861  1  0.041431  -0.000904  -0.089447  -0.161052  -0.001037  3.996282  0.0
C  C180  1  0.87426621  0.09410546  0.02831138  1  -0.062818  -0.001286  -0.084062  -0.099618  -0.001333  3.973293  -0.001
C  C181  1  0.98187863  0.01889728  0.02223665  1  -0.026574  -0.00315  -0.010897  0.052414  -0.00326  3.996211  -0.002
C  C182  1  0.05139754  0.98054357  0.06038816  1  0.001407  -0.001635  -0.088352  -0.111667  -0.001731  3.982222  -0.001
C  C183  1  0.01829048  0.01637778  0.10229782  1  -0.016178  -0.000517  -0.093089  -0.165013  -0.000704  3.996481  0.0
C  C184  1  0.86306764  0.32675296  0.80975506  1  1.539633  -0.013795  0.214199  0.59144  -0.016767  4.161934  -0.007
C  C185  1  0.80454054  0.31932657  0.85594721  1  -0.006075  0.006491  -0.022535  -0.052073  0.00182  3.972214  0.007
C  C186  1  0.65815097  0.35041852  0.86678276  1  -0.028492  -0.007551  -0.08169  -0.070623  -0.008027  3.949767  -0.004
C  C187  1  0.61049931  0.35167653  0.91068829  1  -0.011569  0.002591  -0.100259  -0.193795  0.0007  3.981445  0.002
C  C188  1  0.71029624  0.32230745  0.94374342  1  0.346286  -0.010393  0.077157  0.250249  -0.011246  4.039465  -0.007
C  C189  1  0.85494962  0.28862225  0.93364355  1  -0.013127  0.00229  -0.102952  -0.206852  0.0006  4.004705  0.002
C  C190  1  0.90091361  0.28687277  0.88971261  1  -0.056642  -0.006446  -0.084338  -0.070427  -0.00693  3.979528  -0.004
C  C191  1  0.70890242  0.41522462  0.00959885  1  0.364682  -0.000239  0.085839  0.294794  -0.000463  4.048075  0.0
C  C192  1  0.70649059  0.41485900  0.05562530  1  -0.020809  0.000441  -0.111619  -0.254691  -2.3e-05  3.989402  0.0
C  C193  1  0.65800194  0.16271963  0.71970337  1  0.43511  0.001134  0.004071  -0.018218  -0.000204  4.001954  0.001
C  C194  1  0.61383382  0.09041898  0.69054008  1  0.267427  0.00433  -0.006701  -0.127554  0.002004  3.941419  0.003
C  C195  1  0.66356965  0.22939311  0.65466187  1  0.954859  -0.012187  0.1419  0.101381  -0.013633  3.906027  -0.008
C  C196  1  0.58750696  0.09194981  0.60721494  1  0.314912  -0.00309  0.094068  0.165628  -0.003585  4.037478  -0.002
C  C197  1  0.66097293  0.12959819  0.56993327  1  0.042297  -0.000907  -0.089327  -0.160698  -0.001039  3.996661  0.0
C  C198  1  0.62574467  0.09410092  0.52832435  1  -0.063995  -0.001283  -0.084268  -0.099845  -0.001329  3.973478  -0.001
C  C199  1  0.51812287  0.01889423  0.52223830  1  -0.027178  -0.003153  -0.010928  0.05231  -0.003263  3.995757  -0.002
C  C200  1  0.44859330  0.98053384  0.56038889  1  0.002178  -0.001632  -0.088242  -0.111232  -0.001729  3.982181  -0.001
C  C201  1  0.48169109  0.01635514  0.60230023  1  -0.016462  -0.000519  -0.093148  -0.165395  -0.000705  3.997241  0.0
C  C202  1  0.63689991  0.67325201  0.80975474  1  1.540101  -0.013856  0.214092  0.591396  -0.016825  4.161754  -0.008
C  C203  1  0.69544778  0.68068033  0.85594455  1  -0.006116  0.006491  -0.022488  -0.052014  0.001816  3.972221  0.007
C  C204  1  0.84184085  0.64959148  0.86678190  1  -0.028279  -0.007576  -0.081629  -0.070595  -0.008052  3.949962  -0.004
C  C205  1  0.88950425  0.64833257  0.91068782  1  -0.011378  0.002596  -0.100281  -0.1937  0.000701  3.981599  0.002
C  C206  1  0.78971781  0.67769690  0.94374418  1  0.346484  -0.01042  0.077141  0.250165  -0.011275  4.039492  -0.007
C  C207  1  0.64505643  0.71138190  0.93364679  1  -0.013638  0.002294  -0.103025  -0.206983  0.0006  4.004443  0.002
C  C208  1  0.59908746  0.71313229  0.88971479  1  -0.056669  -0.006464  -0.084364  -0.070377  -0.006948  3.979299  -0.004
C  C209  1  0.79109822  0.58477060  0.00959863  1  0.365148  -0.00024  0.085826  0.294755  -0.000465  4.048199  0.0
C  C210  1  0.79349364  0.58513668  0.05562508  1  -0.020943  0.000441  -0.111618  -0.254814  -2.3e-05  3.989353  0.0
C  C211  1  0.84198041  0.83726806  0.71970115  1  0.435057  0.001132  0.00395  -0.018169  -0.000206  4.001931  0.001
C  C212  1  0.88617301  0.90956660  0.69053712  1  0.267762  0.004326  -0.006585  -0.127644  0.002003  3.941462  0.003
C  C213  1  0.83640863  0.77060181  0.65466069  1  0.955255  -0.012173  0.141875  0.101382  -0.013617  3.906185  -0.008
C  C214  1  0.91251700  0.90804695  0.60721301  1  0.315601  -0.003094  0.094204  0.165684  -0.003588  4.037358  -0.002
C  C215  1  0.83905062  0.87040946  0.56993002  1  0.041644  -0.000904  -0.089321  -0.160516  -0.001036  3.996411  0.0
C  C216  1  0.87427844  0.90591416  0.52832109  1  -0.063234  -0.001288  -0.084187  -0.099873  -0.001334  3.973073  -0.001
C  C217  1  0.98190468  0.98111822  0.52223532  1  -0.067103  -0.003183  -0.010813  0.052661  -0.00326  3.995386  -0.002
C  C218  1  0.05143098  0.01947494  0.56038695  1  0.002224  -0.001636  -0.088197  -0.111331  -0.001732  3.982224  -0.001
C  C219  1  0.01833138  0.98364545  0.60229877  1  -0.016604  -0.000517  -0.093247  -0.165308  -0.000704  3.997151  0.0
C  C220  1  0.13692035  0.32674229  0.69026135  1  1.535842  -0.013838  0.214291  0.5918  -0.016834  4.160587  -0.008
C  C221  1  0.19544573  0.31927829  0.64407126  1  -0.005089  0.006489  -0.02247  -0.051756  0.001816  3.972191  0.007
C  C222  1  0.34184227  0.35039579  0.63323703  1  -0.028206  -0.007574  -0.081656  -0.070981  -0.008051  3.949645  -0.004
C  C223  1  0.38948501  0.35166373  0.58933016  1  -0.010882  0.002595  -0.100347  -0.19367  0.000701  3.981526  0.002
C  C224  1  0.28970153  0.32228786  0.55627502  1  0.34676  -0.010416  0.077285  0.250531  -0.011271  4.039049  -0.007
C  C225  1  0.14506126  0.28856464  0.56637492  1  -0.012321  0.002296  -0.103019  -0.206969  0.000601  4.003956  0.002
C  C226  1  0.09909713  0.28680307  0.61030852  1  -0.058536  -0.006465  -0.084186  -0.070491  -0.006949  3.979135  -0.004
C  C227  1  0.29108381  0.41522214  0.49041321  1  0.363124  -0.000241  0.085683  0.294713  -0.000465  4.04846  0.0
C  C228  1  0.29348209  0.41485245  0.44438742  1  -0.02203  0.000443  -0.111437  -0.254696  -2.1e-05  3.989604  0.0
C  C229  1  0.34193816  0.16275987  0.78031480  1  0.434646  0.001132  0.004303  -0.017461  -0.000205  4.001497  0.001
C  C230  1  0.38611973  0.09046432  0.80948151  1  0.266884  0.00433  -0.006961  -0.128371  0.002005  3.941879  0.003
C  C231  1  0.33639938  0.22944144  0.84535625  1  0.956219  -0.012195  0.142116  0.101894  -0.013644  3.905718  -0.008
C  C232  1  0.41248163  0.09199079  0.89280135  1  0.314241  -0.003095  0.09396  0.165668  -0.00359  4.037719  -0.002
C  C233  1  0.33903440  0.12962797  0.93008461  1  0.040851  -0.000906  -0.089381  -0.160965  -0.001039  3.99625  0.0
C  C234  1  0.37426887  0.09411044  0.97169060  1  -0.062588  -0.001287  -0.08407  -0.099516  -0.001333  3.973336  -0.001
C  C235  1  0.48188135  0.01890045  0.97776591  1  -0.026576  -0.003155  -0.010868  0.05235  -0.003264  3.996239  -0.002
C  C236  1  0.55139002  0.98054969  0.93961355  1  0.001034  -0.001635  -0.088344  -0.111711  -0.001731  3.982202  -0.001
C  C237  1  0.51828364  0.01638913  0.89770335  1  -0.015647  -0.000519  -0.0931  -0.165045  -0.000706  3.996493  0.0
C  C238  1  0.36304449  0.67323800  0.69026157  1  1.533453  -0.013901  0.214482  0.592099  -0.016902  4.160674  -0.008
C  C239  1  0.30451185  0.68071042  0.64407234  1  -0.005077  0.006491  -0.022593  -0.052004  0.001813  3.972095  0.007
C  C240  1  0.15812759  0.64959277  0.63323071  1  -0.028755  -0.007596  -0.081676  -0.070703  -0.008073  3.949651  -0.004
C  C241  1  0.11049113  0.64832204  0.58932018  1  -0.011416  0.002603  -0.100255  -0.193818  0.000703  3.981575  0.002
C  C242  1  0.21028890  0.67770784  0.55626812  1  0.347234  -0.010443  0.077261  0.250496  -0.011301  4.039403  -0.007
C  C243  1  0.35491688  0.71143716  0.56637340  1  -0.012465  0.002303  -0.102895  -0.206586  0.000603  4.004198  0.002
C  C244  1  0.40086684  0.71319561  0.61030835  1  -0.058567  -0.00649  -0.084359  -0.071112  -0.006974  3.979546  -0.004
C  C245  1  0.20890704  0.58476752  0.49041094  1  0.362715  -0.000243  0.0858  0.294799  -0.000467  4.048191  0.0
C  C246  1  0.20649925  0.58513159  0.44438614  1  -0.021264  0.000443  -0.111542  -0.254773  -2.1e-05  3.989642  0.0
C  C247  1  0.15804003  0.83726652  0.78031769  1  0.435503  0.001131  0.004117  -0.017881  -0.000205  4.001993  0.001
C  C248  1  0.11387681  0.90955827  0.80948490  1  0.266719  0.004329  -0.006853  -0.128022  0.002004  3.942081  0.003
C  C249  1  0.16358289  0.77057698  0.84535920  1  0.954951  -0.01218  0.142161  0.1017  -0.013626  3.905609  -0.008
C  C250  1  0.08751918  0.90802728  0.89280506  1  0.314533  -0.003092  0.093981  0.165558  -0.003587  4.037445  -0.002
C  C251  1  0.16096568  0.87038659  0.93008813  1  0.041199  -0.000905  -0.089475  -0.160839  -0.001037  3.996257  0.0
C  C252  1  0.12573278  0.90589817  0.97169470  1  -0.063447  -0.001287  -0.084157  -0.099916  -0.001333  3.97302  -0.001
C  C253  1  0.01812037  0.98110782  0.97776943  1  -0.06583  -0.003186  -0.010746  0.052508  -0.003262  3.995831  -0.002
C  C254  1  0.94860596  0.01946375  0.93961758  1  0.001428  -0.001632  -0.088307  -0.111534  -0.001729  3.982505  -0.001
C  C255  1  0.98171302  0.98362880  0.89770760  1  -0.016264  -0.000519  -0.093138  -0.165053  -0.000706  3.99678  0.0
C  C256  1  0.00000050  0.43502704  0.24997862  1  1.578159  -0.010103  0.162086  0.529686  -0.012432  4.120709  -0.007
C  C257  1  0.50002607  0.56492839  0.24997915  1  1.576536  -0.010109  0.162069  0.530463  -0.012446  4.120366  -0.007
C  C258  1  0.99998609  0.56494258  0.75001986  1  1.577853  -0.010097  0.1622  0.530191  -0.012426  4.120849  -0.007
C  C259  1  0.49996954  0.43504863  0.75001802  1  1.577813  -0.010095  0.162109  0.530202  -0.012426  4.120622  -0.007
C  C260  1  0.25000301  0.49999632  0.01381322  1  0.074566  -0.000427  -0.118509  -0.330624  -0.000483  3.960203  0.0
C  C261  1  0.24999860  0.50000037  0.87165756  1  1.574335  0.004585  0.223854  0.593222  0.002564  4.14044  0.005
C  C262  1  0.25000337  0.49999680  0.92144589  1  0.066228  0.006457  -0.019289  -0.001199  0.002919  4.020274  0.005
C  C263  1  0.74999781  0.50000832  0.48617449  1  0.076881  -0.000433  -0.118589  -0.331269  -0.00049  3.960523  0.0
C  C264  1  0.74999970  0.49999633  0.62834082  1  1.574563  0.00457  0.224007  0.593442  0.002552  4.140456  0.005
C  C265  1  0.74999943  0.50000137  0.57854820  1  0.066541  0.006454  -0.019316  -0.001188  0.002917  4.020183  0.005
C  C266  1  0.75000500  0.49999917  0.98618725  1  0.07429  -0.000432  -0.118467  -0.330601  -0.000489  3.960176  0.0
C  C267  1  0.74999138  0.49999956  0.12834489  1  1.574455  0.004577  0.223922  0.593192  0.002559  4.140551  0.005
C  C268  1  0.74998773  0.49999426  0.07855722  1  0.065847  0.006457  -0.019203  -0.00093  0.002919  4.019928  0.005
C  C269  1  0.24999442  0.49999604  0.51382399  1  0.077001  -0.000429  -0.118599  -0.331179  -0.000486  3.96043  0.0
C  C270  1  0.24999366  0.49999473  0.37165899  1  1.574723  0.004572  0.223982  0.593288  0.002554  4.14068  0.005
C  C271  1  0.24999168  0.49999486  0.42145128  1  0.06698  0.006453  -0.019279  -0.000994  0.002917  4.019971  0.005
N  N272  1  0.31210610  0.75099412  0.30311472  1  -1.213538  0.048837  -0.348629  -0.285817  0.023512  3.546884  0.035
N  N273  1  0.38075599  0.86625060  0.35104495  1  -1.269838  -7.2e-05  -0.228688  0.007679  -0.000667  3.815855  0.001
N  N274  1  0.18789851  0.24902050  0.30310878  1  -1.213427  0.04888  -0.348738  -0.285945  0.02353  3.546793  0.035
N  N275  1  0.11926942  0.13376068  0.35104151  1  -1.27027  -7.5e-05  -0.22878  0.007661  -0.000671  3.815916  0.001
N  N276  1  0.68790891  0.75094432  0.19687359  1  -1.213631  0.048881  -0.348682  -0.286122  0.023544  3.547424  0.035
N  N277  1  0.61928954  0.86620180  0.14894178  1  -1.270051  -7.4e-05  -0.228667  0.007804  -0.000671  3.815933  0.001
N  N278  1  0.81211176  0.24904147  0.19687074  1  -1.214  0.048872  -0.348819  -0.286241  0.023535  3.547124  0.035
N  N279  1  0.88072837  0.13378216  0.14894189  1  -1.269158  -7.1e-05  -0.228824  0.007492  -0.000669  3.815896  0.001
N  N280  1  0.68787149  0.24901467  0.69688872  1  -1.213642  0.048871  -0.34868  -0.285796  0.023528  3.546599  0.035
N  N281  1  0.61925089  0.13374785  0.64895947  1  -1.269884  -7.6e-05  -0.228607  0.007828  -0.00067  3.81571  0.001
N  N282  1  0.81209372  0.75098386  0.69688475  1  -1.213717  0.04886  -0.348559  -0.28574  0.023525  3.546772  0.035
N  N283  1  0.88075661  0.86624221  0.64895697  1  -1.270033  -7.4e-05  -0.228751  0.007575  -0.000669  3.815939  0.001
N  N284  1  0.31207882  0.24905486  0.80312952  1  -1.213876  0.048872  -0.348808  -0.286368  0.023527  3.547236  0.035
N  N285  1  0.38072185  0.13379739  0.85106099  1  -1.269968  -7.6e-05  -0.228676  0.0077  -0.000672  3.815916  0.001
N  N286  1  0.18789399  0.75096955  0.80313171  1  -1.213886  0.048876  -0.348802  -0.286159  0.023532  3.547184  0.035
N  N287  1  0.11927625  0.86622294  0.85106353  1  -1.269086  -7.2e-05  -0.22861  0.00776  -0.00067  3.815644  0.001
O  O288  1  0.28204117  0.58086212  0.85254343  1  -1.183874  0.065737  -0.305374  -0.537248  0.031061  2.374457  0.046
O  O289  1  0.23062231  0.64956309  0.22062018  1  -1.172298  0.085129  -0.316794  -0.550609  0.03986  2.382087  0.063
O  O290  1  0.99766948  0.68906239  0.19669683  1  -1.181563  0.080532  -0.324403  -0.567591  0.036734  2.440107  0.065
O  O291  1  0.33256276  0.67120145  0.01180003  1  -1.094476  -0.0011  -0.165191  -0.234403  -0.000735  2.507608  0.0
O  O292  1  0.09750082  0.47726639  0.27427687  1  -1.197485  0.093345  -0.303818  -0.521774  0.045558  2.518255  0.073
O  O293  1  0.21794681  0.41913226  0.85255351  1  -1.183865  0.065751  -0.305337  -0.537101  0.03107  2.374394  0.046
O  O294  1  0.26938931  0.35043236  0.22061719  1  -1.171909  0.085186  -0.316679  -0.550441  0.039888  2.381692  0.063
O  O295  1  0.50232528  0.31088793  0.19669632  1  -1.182064  0.08037  -0.324075  -0.567392  0.036657  2.440477  0.065
O  O296  1  0.16743647  0.32879279  0.01180279  1  -1.094662  -0.001096  -0.165337  -0.234583  -0.000732  2.507693  0.0
O  O297  1  0.40252601  0.52268993  0.27428007  1  -1.196611  0.093337  -0.303827  -0.522027  0.045542  2.517664  0.073
O  O298  1  0.71801760  0.58085299  0.64746035  1  -1.183898  0.065736  -0.305317  -0.537205  0.031069  2.37467  0.046
O  O299  1  0.76930470  0.64954042  0.27935899  1  -1.166294  0.085111  -0.316898  -0.550758  0.039881  2.381616  0.063
O  O300  1  0.00226065  0.68902841  0.30327696  1  -1.181152  0.080434  -0.324358  -0.567692  0.036698  2.440123  0.065
O  O301  1  0.66748200  0.67122085  0.48818781  1  -1.09566  -0.001101  -0.165485  -0.234659  -0.000735  2.507319  0.0
O  O302  1  0.90247116  0.47730145  0.22569293  1  -1.196935  0.093446  -0.304037  -0.521956  0.04559  2.517935  0.073
O  O303  1  0.78198764  0.41912015  0.64745168  1  -1.183693  0.065764  -0.305588  -0.537454  0.031082  2.374307  0.046
O  O304  1  0.73071009  0.35039433  0.27936058  1  -1.16656  0.085048  -0.316691  -0.550678  0.039849  2.381548  0.063
O  O305  1  0.49771242  0.31096847  0.30327692  1  -1.181343  0.08055  -0.324335  -0.567702  0.036746  2.440239  0.065
O  O306  1  0.83251476  0.32879641  0.48818577  1  -1.09569  -0.001102  -0.165387  -0.234646  -0.000735  2.506777  0.0
O  O307  1  0.59756447  0.52267242  0.22569749  1  -1.196872  0.093427  -0.303856  -0.521957  0.04559  2.518164  0.073
O  O308  1  0.71795895  0.41913042  0.14745275  1  -1.184021  0.065811  -0.305461  -0.537197  0.031096  2.374601  0.046
O  O309  1  0.76933951  0.35043388  0.77937831  1  -1.172149  0.085138  -0.316718  -0.550533  0.03987  2.381537  0.063
O  O310  1  0.00227769  0.31090206  0.80330397  1  -1.181025  0.0804  -0.324291  -0.567487  0.036677  2.440641  0.065
O  O311  1  0.66745201  0.32879405  0.98820010  1  -1.094552  -0.001095  -0.165294  -0.234563  -0.000732  2.50754  0.0
O  O312  1  0.90245986  0.52270619  0.72571931  1  -1.197377  0.093389  -0.304134  -0.522216  0.04558  2.517941  0.073
O  O313  1  0.78201951  0.58085510  0.14746049  1  -1.183995  0.065774  -0.305416  -0.537157  0.031084  2.374713  0.046
O  O314  1  0.73058603  0.64954318  0.77937503  1  -1.172094  0.085135  -0.316687  -0.550475  0.039869  2.381814  0.063
O  O315  1  0.49768385  0.68912160  0.80330348  1  -1.181694  0.080472  -0.324188  -0.567462  0.036707  2.440522  0.065
O  O316  1  0.83256590  0.67120345  0.98820065  1  -1.094498  -0.001098  -0.165191  -0.234392  -0.000734  2.507385  0.0
O  O317  1  0.59748087  0.47728561  0.72571512  1  -1.19665  0.093409  -0.304061  -0.522264  0.045586  2.517965  0.073
O  O318  1  0.28200168  0.41912255  0.35254903  1  -1.18387  0.06571  -0.305518  -0.537397  0.031054  2.374348  0.046
O  O319  1  0.23066500  0.35042181  0.72062960  1  -1.167813  0.085082  -0.316659  -0.550429  0.039853  2.381532  0.063
O  O320  1  0.99767300  0.31093826  0.69671789  1  -1.182106  0.080449  -0.324326  -0.567876  0.036697  2.439386  0.065
O  O321  1  0.33253276  0.32878869  0.51181562  1  -1.095469  -0.001099  -0.165455  -0.234673  -0.000734  2.50723  0.0
O  O322  1  0.09748840  0.52269626  0.77430688  1  -1.196871  0.093325  -0.303825  -0.521727  0.045538  2.518289  0.073
O  O323  1  0.21799558  0.58085465  0.35254516  1  -1.183931  0.065682  -0.305322  -0.537103  0.031043  2.374583  0.046
O  O324  1  0.26930805  0.64958121  0.72063593  1  -1.166367  0.085118  -0.316788  -0.550645  0.039871  2.381559  0.063
O  O325  1  0.50228432  0.68901594  0.69671827  1  -1.181275  0.080486  -0.324397  -0.5678  0.036724  2.440205  0.065
O  O326  1  0.16747071  0.67120721  0.51180908  1  -1.095201  -0.001102  -0.165446  -0.234665  -0.000736  2.507301  0.0
O  O327  1  0.40248071  0.47732159  0.77430330  1  -1.197379  0.093326  -0.303823  -0.521834  0.045549  2.518077  0.073
