# generated using pymatgen
data_ZnH24C27N8O9
_symmetry_space_group_name_H-M   'P 1'
_cell_length_a   14.98494287
_cell_length_b   16.45904608
_cell_length_c   16.90547453
_cell_angle_alpha   119.13336487
_cell_angle_beta   105.70639587
_cell_angle_gamma   89.99220345
_symmetry_Int_Tables_number   1
_chemical_formula_structural   ZnH24C27N8O9
_chemical_formula_sum   'Zn4 H96 C108 N32 O36'
_cell_volume   3462.80892331
_cell_formula_units_Z   4
loop_
 _symmetry_equiv_pos_site_id
 _symmetry_equiv_pos_as_xyz
  1  'x, y, z'
loop_
 _atom_site_type_symbol
 _atom_site_label
 _atom_site_symmetry_multiplicity
 _atom_site_fract_x
 _atom_site_fract_y
 _atom_site_fract_z
 _atom_site_occupancy
 _atom_site_pbe_bader_charge
 _atom_site_pbe_bader_spin_density
 _atom_site_pbe_cm5_charge
 _atom_site_pbe_ddec_charge
 _atom_site_pbe_ddec_spin_density
 _atom_site_pbe_ddec_sum_bond_order
 _atom_site_pbe_magmom
Zn  Zn0  1  0.11667506  0.65152748  0.30972531  1  1.272973  0  0.68067  0.66526  0  2.357805  0
Zn  Zn1  1  0.38320507  0.34180900  0.69011651  1  1.272611  0  0.680974  0.665606  0  2.357849  0
Zn  Zn2  1  0.88331957  0.34847309  0.69026683  1  1.27294  0  0.680702  0.665367  0  2.357729  0
Zn  Zn3  1  0.61680450  0.65819941  0.30989606  1  1.272381  0  0.680961  0.665699  0  2.357739  0
H  H4  1  0.81276537  0.90889981  0.13421457  1  0.461609  0  0.317491  0.275047  0  0.948465  0
H  H5  1  0.68739374  0.77477703  0.86616382  1  0.45675  0  0.31756  0.27503  0  0.948026  0
H  H6  1  0.18722398  0.09110705  0.86579170  1  0.461583  0  0.317506  0.275068  0  0.948417  0
H  H7  1  0.31260504  0.22522102  0.13381586  1  0.456742  0  0.317546  0.274887  0  0.948066  0
H  H8  1  0.85068937  0.22038912  0.04435968  1  0.44616  0  0.31446  0.263327  0  0.957265  0
H  H9  1  0.64814905  0.17593125  0.95543256  1  0.438794  0  0.314548  0.264019  0  0.957331  0
H  H10  1  0.14931941  0.77960909  0.95564480  1  0.44625  0  0.314476  0.263453  0  0.957217  0
H  H11  1  0.35185586  0.82406733  0.04456525  1  0.438564  0  0.314554  0.264032  0  0.957214  0
H  H12  1  0.95758255  0.82726795  0.77578149  1  0.523464  0  0.296006  0.266769  0  1.024783  0
H  H13  1  0.54232357  0.05165058  0.22438765  1  0.530012  0  0.296101  0.266904  0  1.025403  0
H  H14  1  0.04242498  0.17273200  0.22423532  1  0.523067  0  0.295957  0.26673  0  1.024759  0
H  H15  1  0.45766778  0.94834037  0.77559911  1  0.53015  0  0.29605  0.266847  0  1.025495  0
H  H16  1  0.87914778  0.13532082  0.09847914  1  0.074317  0  0.109167  0.104237  0  1.011451  0
H  H17  1  0.62090768  0.03684712  0.90170602  1  0.057234  0  0.10895  0.10393  0  1.011029  0
H  H18  1  0.12085938  0.86467771  0.90152426  1  0.074351  0  0.109179  0.104235  0  1.011321  0
H  H19  1  0.37908964  0.96315276  0.09828470  1  0.057416  0  0.10898  0.103937  0  1.011032  0
H  H20  1  0.85565510  0.93549158  0.80657721  1  0.121163  0  0.113257  0.11824  0  1.014194  0
H  H21  1  0.64448507  0.12911891  0.19367966  1  0.132144  0  0.113359  0.118209  0  1.01462  0
H  H22  1  0.14434386  0.06450275  0.19342700  1  0.120935  0  0.11325  0.118208  0  1.014261  0
H  H23  1  0.35551226  0.87087271  0.80631054  1  0.132057  0  0.113383  0.118247  0  1.014683  0
H  H24  1  0.88835459  0.84344332  0.01070338  1  0.084561  0  0.111734  0.115543  0  0.995327  0
H  H25  1  0.61163102  0.83288308  0.98963322  1  0.084216  0  0.111671  0.115958  0  0.99534  0
H  H26  1  0.11164064  0.15655572  0.98930487  1  0.08467  0  0.111751  0.115563  0  0.995237  0
H  H27  1  0.38835442  0.16711027  0.01034965  1  0.084045  0  0.11164  0.115923  0  0.995201  0
H  H28  1  0.82187720  0.97023431  0.29619211  1  0.092389  0  0.110852  0.094962  0  1.013444  0
H  H29  1  0.67837431  0.67406283  0.70427440  1  0.113829  0  0.11107  0.095133  0  1.013529  0
H  H30  1  0.17811072  0.02976794  0.70381307  1  0.092675  0  0.110822  0.094862  0  1.013381  0
H  H31  1  0.32161681  0.32593497  0.29570510  1  0.113947  0  0.11111  0.095118  0  1.013471  0
H  H32  1  0.93045694  0.04303242  0.33120520  1  0.13911  0  0.121294  0.110677  0  0.963562  0
H  H33  1  0.56984372  0.71187258  0.66911528  1  0.088821  0  0.121107  0.11061  0  0.963218  0
H  H34  1  0.06953249  0.95697303  0.66880458  1  0.138981  0  0.121304  0.110596  0  0.9635  0
H  H35  1  0.43015032  0.28812218  0.33086609  1  0.089267  0  0.121096  0.110567  0  0.963135  0
H  H36  1  0.82849074  0.82932516  0.30548422  1  0.115395  0  0.115037  0.140208  0  0.995673  0
H  H37  1  0.67156410  0.52377826  0.69468135  1  0.132417  0  0.114964  0.139872  0  0.995347  0
H  H38  1  0.17150566  0.17067659  0.69452110  1  0.11512  0  0.115026  0.140193  0  0.995396  0
H  H39  1  0.32843488  0.47622013  0.30530927  1  0.132569  0  0.114936  0.139794  0  0.995317  0
H  H40  1  0.91986814  0.70683871  0.31428629  1  0.124366  0  0.119236  0.095857  0  1.003912  0
H  H41  1  0.58004870  0.39246672  0.68567231  1  0.127203  0  0.119264  0.096039  0  1.003911  0
H  H42  1  0.08012824  0.29316588  0.68571763  1  0.12384  0  0.119201  0.095863  0  1.003808  0
H  H43  1  0.41995813  0.60753979  0.31433838  1  0.127344  0  0.119295  0.096055  0  1.004029  0
H  H44  1  0.14619160  0.81241900  0.27617594  1  0.118264  0  0.119284  0.093642  0  1.008151  0
H  H45  1  0.35384307  0.53637838  0.72395207  1  0.120773  0  0.11926  0.09364  0  1.00825  0
H  H46  1  0.85379661  0.18758637  0.72382107  1  0.118039  0  0.119272  0.093648  0  1.008213  0
H  H47  1  0.64615760  0.46362863  0.27605070  1  0.12079  0  0.119244  0.093605  0  1.008304  0
H  H48  1  0.06583681  0.94091793  0.26779230  1  0.13066  0  0.110927  0.135698  0  1.012017  0
H  H49  1  0.43433282  0.67330166  0.73256886  1  0.136396  0  0.110731  0.135692  0  1.011775  0
H  H50  1  0.93415000  0.05908976  0.73221199  1  0.130567  0  0.111012  0.135764  0  1.012038  0
H  H51  1  0.56566586  0.32669825  0.26741692  1  0.136442  0  0.110734  0.135719  0  1.011774  0
H  H52  1  0.77727993  0.29276005  0.93439189  1  0.079465  0  0.109908  0.094722  0  0.981185  0
H  H53  1  0.72227914  0.35836308  0.06568587  1  0.082646  0  0.109896  0.094571  0  0.981133  0
H  H54  1  0.22272536  0.70723407  0.06560781  1  0.079211  0  0.109876  0.094715  0  0.98113  0
H  H55  1  0.27772826  0.64163491  0.93430922  1  0.082782  0  0.10992  0.094582  0  0.981161  0
H  H56  1  0.86959817  0.24885852  0.88939857  1  0.137021  0  0.123421  0.120111  0  0.986069  0
H  H57  1  0.62988995  0.35948341  0.11057666  1  0.137045  0  0.123462  0.119858  0  0.985442  0
H  H58  1  0.13041151  0.75113978  0.11060739  1  0.137454  0  0.123414  0.120095  0  0.986168  0
H  H59  1  0.37012067  0.64051604  0.88942762  1  0.136943  0  0.123505  0.119899  0  0.985545  0
H  H60  1  0.83605907  0.46089909  0.99892460  1  0.145936  0  0.109209  0.127456  0  1.041319  0
H  H61  1  0.66375417  0.46185524  0.00101061  1  0.179525  0  0.109292  0.127269  0  1.040699  0
H  H62  1  0.16394101  0.53909747  0.00108042  1  0.146123  0  0.10917  0.1274  0  1.041281  0
H  H63  1  0.33625595  0.53813699  0.99898644  1  0.179563  0  0.10931  0.127265  0  1.040734  0
H  H64  1  0.94455389  0.60316400  0.13539498  1  0.11841  0  0.118279  0.090085  0  1.000631  0
H  H65  1  0.55539080  0.46768895  0.86448519  1  0.122267  0  0.11849  0.090184  0  1.000317  0
H  H66  1  0.05544215  0.39683336  0.86460735  1  0.118939  0  0.118278  0.090164  0  1.000527  0
H  H67  1  0.44461986  0.53230875  0.13551734  1  0.122254  0  0.118471  0.090131  0  1.000314  0
H  H68  1  0.11517655  0.44322501  0.22009988  1  0.149122  0  0.116805  0.094378  0  1.036762  0
H  H69  1  0.38447523  0.22327325  0.77984373  1  0.160371  0  0.117253  0.094836  0  1.036842  0
H  H70  1  0.88483044  0.55677788  0.77990294  1  0.149234  0  0.116826  0.094375  0  1.036883  0
H  H71  1  0.61551888  0.77674158  0.22017120  1  0.159958  0  0.117328  0.094935  0  1.036696  0
H  H72  1  0.01314336  0.29493555  0.08912496  1  0.088018  0  0.098484  0.103863  0  1.050509  0
H  H73  1  0.48630042  0.20596619  0.91089239  1  0.062229  0  0.098811  0.104215  0  1.050333  0
H  H74  1  0.98686851  0.70506368  0.91087345  1  0.088013  0  0.098471  0.103868  0  1.050422  0
H  H75  1  0.51369303  0.79404353  0.08911670  1  0.062061  0  0.09879  0.104255  0  1.050342  0
H  H76  1  0.88504685  0.62230058  0.68376917  1  0.11366  0  0.117853  0.106405  0  1.007577  0
H  H77  1  0.61483305  0.93882913  0.31658184  1  0.116884  0  0.118044  0.106557  0  1.007519  0
H  H78  1  0.11496002  0.37770025  0.31624431  1  0.113419  0  0.117867  0.106364  0  1.007511  0
H  H79  1  0.38516637  0.06116470  0.68340633  1  0.116947  0  0.118015  0.106555  0  1.007517  0
H  H80  1  0.98036007  0.67054097  0.66855179  1  0.059865  0  0.119484  0.109733  0  0.944577  0
H  H81  1  0.51956989  0.00240179  0.33177347  1  0.097392  0  0.119394  0.11015  0  0.944716  0
H  H82  1  0.01964616  0.32945944  0.33146620  1  0.059933  0  0.119435  0.10964  0  0.944584  0
H  H83  1  0.48042266  0.99758620  0.66821314  1  0.097018  0  0.119395  0.110161  0  0.944806  0
H  H84  1  0.74818920  0.76071610  0.66357025  1  0.073087  0  0.10538  0.11156  0  1.022023  0
H  H85  1  0.75186590  0.09715437  0.33664936  1  0.07854  0  0.105221  0.111352  0  1.022559  0
H  H86  1  0.25182097  0.23928941  0.33644295  1  0.073198  0  0.105334  0.111463  0  1.022163  0
H  H87  1  0.24812799  0.90283800  0.66333739  1  0.0788  0  0.105138  0.111317  0  1.022523  0
H  H88  1  0.63714773  0.74461701  0.51559051  1  0.119048  0  0.117078  0.091574  0  1.004269  0
H  H89  1  0.86299597  0.22901052  0.48460546  1  0.12219  0  0.117083  0.091394  0  1.004565  0
H  H90  1  0.36286673  0.25539092  0.48442154  1  0.11887  0  0.117081  0.091521  0  1.004391  0
H  H91  1  0.13699840  0.77098155  0.51537957  1  0.122226  0  0.11708  0.091395  0  1.004722  0
H  H92  1  0.80794570  0.59582822  0.35582678  1  0.111319  0  0.116768  0.086172  0  1.00597  0
H  H93  1  0.69200386  0.24055180  0.64435577  1  0.113524  0  0.11701  0.086364  0  1.006897  0
H  H94  1  0.19206939  0.40416573  0.64418678  1  0.111191  0  0.116732  0.086077  0  1.005918  0
H  H95  1  0.30798766  0.75944321  0.35562304  1  0.113264  0  0.117026  0.086492  0  1.006667  0
H  H96  1  0.92234976  0.59813866  0.49447982  1  0.166039  0  0.108315  0.128194  0  1.052092  0
H  H97  1  0.57752646  0.10425549  0.50576976  1  0.161765  0  0.108034  0.127575  0  1.052601  0
H  H98  1  0.07765972  0.40185451  0.50553725  1  0.166235  0  0.108364  0.128283  0  1.051933  0
H  H99  1  0.42247027  0.89574293  0.49421527  1  0.161801  0  0.108001  0.127489  0  1.052413  0
C  C100  1  0.88398504  0.99254652  0.06433474  1  -0.024492  0  -0.012602  -0.020295  0  3.998272  0
C  C101  1  0.61602750  0.92829187  0.93594791  1  0.022875  0  -0.011933  -0.020075  0  3.999591  0
C  C102  1  0.11601312  0.00745716  0.93567531  1  -0.024117  0  -0.012664  -0.020342  0  3.998256  0
C  C103  1  0.38396582  0.07170539  0.06404093  1  0.022718  0  -0.012008  -0.020273  0  3.999702  0
C  C104  1  0.87483458  0.06369533  0.04092596  1  -0.073201  0  -0.077127  -0.125068  0  3.948908  0
C  C105  1  0.62517873  0.02283047  0.95931583  1  -0.072585  0  -0.07707  -0.124978  0  3.949302  0
C  C106  1  0.12516890  0.93630615  0.95907973  1  -0.073141  0  -0.077032  -0.124986  0  3.948561  0
C  C107  1  0.37482045  0.97717216  0.04068116  1  -0.072318  0  -0.077103  -0.124958  0  3.949164  0
C  C108  1  0.86212423  0.04233192  0.94742990  1  -0.04703  0  -0.015665  -0.022936  0  3.995011  0
C  C109  1  0.63792455  0.09500218  0.05279838  1  -0.020841  0  -0.015499  -0.021698  0  3.993116  0
C  C110  1  0.13787894  0.95766717  0.05257551  1  -0.046987  0  -0.015746  -0.023022  0  3.994783  0
C  C111  1  0.36207253  0.90499448  0.94719617  1  -0.020488  0  -0.015513  -0.021711  0  3.992702  0
C  C112  1  0.86313051  0.94977882  0.87834421  1  0.000609  0  -0.071001  -0.112189  0  3.918399  0
C  C113  1  0.63692880  0.07159658  0.12191934  1  -0.005152  0  -0.071153  -0.112169  0  3.917949  0
C  C114  1  0.13686984  0.05022130  0.12166226  1  0.001299  0  -0.071037  -0.112245  0  3.91868  0
C  C115  1  0.36306586  0.92839680  0.87806912  1  -0.005532  0  -0.07117  -0.112247  0  3.917758  0
C  C116  1  0.87300039  0.87872836  0.90100951  1  -0.030162  0  -0.014123  -0.020184  0  4.015897  0
C  C117  1  0.62699589  0.97789796  0.09928086  1  -0.05074  0  -0.014409  -0.020356  0  4.015041  0
C  C118  1  0.12699824  0.12127017  0.09899750  1  -0.030799  0  -0.014097  -0.020152  0  4.016027  0
C  C119  1  0.37299594  0.02209870  0.90070668  1  -0.050279  0  -0.014447  -0.020453  0  4.014864  0
C  C120  1  0.88074908  0.89963864  0.99371699  1  -0.044919  0  -0.07461  -0.12621  0  3.932054  0
C  C121  1  0.61924137  0.90606252  0.00659866  1  -0.04055  0  -0.074614  -0.127093  0  3.933121  0
C  C122  1  0.11924875  0.10036324  0.00629337  1  -0.045139  0  -0.074609  -0.126227  0  3.932133  0
C  C123  1  0.38075103  0.09393301  0.99339126  1  -0.040647  0  -0.07455  -0.126874  0  3.932737  0
C  C124  1  0.90686491  0.02007216  0.16703328  1  1.427498  0  0.241072  0.466194  0  4.149361  0
C  C125  1  0.59320768  0.85306345  0.83324905  1  1.398173  0  0.240905  0.466143  0  4.148993  0
C  C126  1  0.09313245  0.97992958  0.83296918  1  1.427458  0  0.241118  0.46635  0  4.149525  0
C  C127  1  0.40678749  0.14692753  0.16673064  1  1.39855  0  0.240891  0.466096  0  4.148966  0
C  C128  1  0.88795996  0.97313433  0.28091241  1  0.251479  0  -0.051348  -0.061785  0  3.905436  0
C  C129  1  0.61225403  0.69227363  0.71945610  1  0.28276  0  -0.051267  -0.061775  0  3.905708  0
C  C130  1  0.11202722  0.02686891  0.71909377  1  0.25194  0  -0.05124  -0.061409  0  3.905077  0
C  C131  1  0.38774279  0.30772353  0.28052341  1  0.281962  0  -0.051271  -0.061768  0  3.905656  0
C  C132  1  0.94028286  0.89718695  0.28769284  1  -0.062299  0  0.010584  0.138065  0  3.942645  0
C  C133  1  0.55984500  0.60955368  0.71259734  1  -0.053816  0  0.010168  0.136852  0  3.943383  0
C  C134  1  0.05970752  0.10281530  0.71231021  1  -0.062577  0  0.010668  0.138208  0  3.942681  0
C  C135  1  0.44016097  0.39045187  0.28739262  1  -0.052946  0  0.010176  0.136744  0  3.944015  0
C  C136  1  0.89943523  0.83005247  0.30057033  1  0.076678  0  -0.079146  -0.172773  0  3.916441  0
C  C137  1  0.60059681  0.52948374  0.69958510  1  0.063127  0  -0.078957  -0.171446  0  3.915039  0
C  C138  1  0.10055074  0.16994830  0.69943409  1  0.076661  0  -0.079177  -0.172904  0  3.916353  0
C  C139  1  0.39940469  0.47051666  0.30040609  1  0.06251  0  -0.078866  -0.171204  0  3.915189  0
C  C140  1  0.94985114  0.76024363  0.30445167  1  0.431204  0  0.051647  0.105626  0  3.927729  0
C  C141  1  0.55012235  0.45576044  0.69559166  1  0.434141  0  0.051854  0.105332  0  3.926714  0
C  C142  1  0.05014196  0.23975735  0.69554937  1  0.43222  0  0.051745  0.105828  0  3.927669  0
C  C143  1  0.44988091  0.54424715  0.30441521  1  0.43399  0  0.051808  0.105303  0  3.926909  0
C  C144  1  0.07604535  0.81936071  0.28320540  1  0.431234  0  0.043598  0.094402  0  3.946787  0
C  C145  1  0.42399634  0.53625222  0.71694365  1  0.437867  0  0.043964  0.094685  0  3.945903  0
C  C146  1  0.92394414  0.18064313  0.71679359  1  0.431116  0  0.043635  0.094519  0  3.946756  0
C  C147  1  0.57601006  0.46375297  0.28305796  1  0.437522  0  0.044048  0.094799  0  3.945923  0
C  C148  1  0.03070147  0.89133892  0.27909741  1  -0.00517  0  -0.086749  -0.182211  0  3.934713  0
C  C149  1  0.46943469  0.61236335  0.72118044  1  -0.033176  0  -0.086732  -0.182108  0  3.934085  0
C  C150  1  0.96928757  0.10866722  0.72090601  1  -0.004764  0  -0.087007  -0.182515  0  3.934823  0
C  C151  1  0.53056545  0.38763776  0.27880724  1  -0.032941  0  -0.08676  -0.182127  0  3.934364  0
C  C152  1  0.85069768  0.11188263  0.91329038  1  1.400266  0  0.229462  0.45146  0  4.177388  0
C  C153  1  0.64943372  0.19868903  0.08688864  1  1.389391  0  0.228747  0.449547  0  4.17682  0
C  C154  1  0.14930566  0.88811436  0.08671363  1  1.400217  0  0.229503  0.451693  0  4.176801  0
C  C155  1  0.35056933  0.80130289  0.91310746  1  1.389506  0  0.228782  0.449523  0  4.177329  0
C  C156  1  0.84845938  0.27679143  0.95411662  1  0.299576  0  -0.052824  -0.059566  0  3.925866  0
C  C157  1  0.65108144  0.32267319  0.04589097  1  0.300169  0  -0.052813  -0.059179  0  3.924956  0
C  C158  1  0.15154665  0.72320488  0.04588597  1  0.299524  0  -0.052816  -0.059527  0  3.925911  0
C  C159  1  0.34892156  0.67732273  0.95410491  1  0.299951  0  -0.052873  -0.059221  0  3.924921  0
C  C160  1  0.91394038  0.36507956  0.03367191  1  -0.101659  0  0.008366  0.132338  0  3.950354  0
C  C161  1  0.58569229  0.33142563  0.96630857  1  -0.080014  0  0.00785  0.132624  0  3.94997  0
C  C162  1  0.08606243  0.63492115  0.96633301  1  -0.102214  0  0.008427  0.132399  0  3.950556  0
C  C163  1  0.41431025  0.66857318  0.03369232  1  -0.079585  0  0.007905  0.132609  0  3.950132  0
C  C164  1  0.89675036  0.45353788  0.04649738  1  0.08629  0  -0.082476  -0.169665  0  3.918718  0
C  C165  1  0.60301512  0.40697773  0.95342825  1  -0.019946  0  -0.08248  -0.169657  0  3.918832  0
C  C166  1  0.10324545  0.54646018  0.95350423  1  0.086104  0  -0.082499  -0.169667  0  3.918849  0
C  C167  1  0.39699342  0.59302342  0.04657353  1  -0.019657  0  -0.082536  -0.169629  0  3.919218  0
C  C168  1  0.95760885  0.53342506  0.12264738  1  0.437367  0  0.049923  0.110738  0  3.919745  0
C  C169  1  0.54224132  0.41073387  0.87726343  1  0.448608  0  0.049493  0.110333  0  3.919817  0
C  C170  1  0.04238829  0.46657512  0.87735635  1  0.43714  0  0.04988  0.110556  0  3.919903  0
C  C171  1  0.45776694  0.58926972  0.12273939  1  0.448137  0  0.049426  0.110254  0  3.919863  0
C  C172  1  0.05203805  0.44442798  0.17068738  1  0.491539  0  0.041411  0.10284  0  3.925678  0
C  C173  1  0.44762979  0.27383452  0.82925661  1  0.473209  0  0.040862  0.102218  0  3.925245  0
C  C174  1  0.94796235  0.55557487  0.82931336  1  0.491342  0  0.041393  0.102835  0  3.925608  0
C  C175  1  0.55236704  0.72617304  0.17075382  1  0.473529  0  0.040865  0.102064  0  3.925028  0
C  C176  1  0.99431436  0.36159201  0.09670019  1  -0.066818  0  -0.097258  -0.188555  0  3.96167  0
C  C177  1  0.50526362  0.26497094  0.90328999  1  -0.005975  0  -0.09736  -0.189238  0  3.960567  0
C  C178  1  0.00569069  0.63840940  0.90330187  1  -0.066733  0  -0.097311  -0.188618  0  3.96172  0
C  C179  1  0.49473017  0.73503399  0.09671571  1  -0.005934  0  -0.097386  -0.189321  0  3.960618  0
C  C180  1  0.87041295  0.77919521  0.82561820  1  1.396061  0  0.229917  0.443608  0  4.189115  0
C  C181  1  0.62962063  0.95382901  0.17472452  1  1.407689  0  0.23057  0.444852  0  4.188526  0
C  C182  1  0.12958815  0.22080108  0.17438867  1  1.395567  0  0.229981  0.44372  0  4.189305  0
C  C183  1  0.37037092  0.04616408  0.82526157  1  1.406247  0  0.230605  0.444913  0  4.188419  0
C  C184  1  0.91079939  0.68114950  0.67793043  1  0.351251  0  -0.049259  -0.05812  0  3.90239  0
C  C185  1  0.58913342  0.00352614  0.32237599  1  0.309305  0  -0.049351  -0.058532  0  3.903265  0
C  C186  1  0.08920947  0.31884881  0.32208403  1  0.353305  0  -0.049163  -0.057851  0  3.902085  0
C  C187  1  0.41086205  0.99646708  0.67761301  1  0.309866  0  -0.049435  -0.058587  0  3.903755  0
C  C188  1  0.84418873  0.67883475  0.59150141  1  -0.071299  0  0.018498  0.154968  0  3.905108  0
C  C189  1  0.65576528  0.08763035  0.40876362  1  -0.010993  0  0.018444  0.155726  0  3.903907  0
C  C190  1  0.15582613  0.32116966  0.40851840  1  -0.071561  0  0.018358  0.154786  0  3.90477  0
C  C191  1  0.34422890  0.91236499  0.59122399  1  -0.010609  0  0.018446  0.15552  0  3.90428  0
C  C192  1  0.76359752  0.72159440  0.59651104  1  -0.044904  0  -0.089157  -0.185474  0  3.962113  0
C  C193  1  0.73642866  0.12521234  0.40371365  1  -0.036137  0  -0.088942  -0.185452  0  3.961347  0
C  C194  1  0.23641707  0.27841035  0.40350277  1  -0.044888  0  -0.089198  -0.185432  0  3.962175  0
C  C195  1  0.26356588  0.87478364  0.59627247  1  -0.036333  0  -0.088884  -0.185385  0  3.961336  0
C  C196  1  0.70187160  0.71434892  0.51480160  1  0.451218  0  0.041864  0.091709  0  3.957273  0
C  C197  1  0.79820976  0.19967616  0.48540923  1  0.432821  0  0.042122  0.09221  0  3.956903  0
C  C198  1  0.29814614  0.28565661  0.48521084  1  0.451174  0  0.041917  0.09179  0  3.957549  0
C  C199  1  0.20178299  0.80031624  0.51457472  1  0.432856  0  0.041943  0.091961  0  3.957332  0
C  C200  1  0.79642706  0.63016357  0.42516606  1  0.475285  0  0.051637  0.107585  0  3.923067  0
C  C201  1  0.70352172  0.20543970  0.57504407  1  0.459452  0  0.051042  0.107288  0  3.925148  0
C  C202  1  0.20358632  0.36983647  0.57484798  1  0.472749  0  0.051521  0.107667  0  3.923057  0
C  C203  1  0.29647003  0.79455989  0.42494640  1  0.460321  0  0.051054  0.107096  0  3.925244  0
C  C204  1  0.86039975  0.63217177  0.50326600  1  0.04045  0  -0.078008  -0.170827  0  3.904616  0
C  C205  1  0.63952741  0.12939112  0.49699928  1  0.001053  0  -0.078243  -0.171149  0  3.904676  0
C  C206  1  0.13961428  0.36782571  0.49675394  1  0.041047  0  -0.077961  -0.17084  0  3.904431  0
C  C207  1  0.36045759  0.87060454  0.50298802  1  0.000409  0  -0.07804  -0.170725  0  3.904804  0
N  N208  1  0.86638341  0.96099555  0.18592265  1  -1.190852  0  -0.411339  -0.342629  0  3.568552  0
N  N209  1  0.63374380  0.77510784  0.81441873  1  -1.187944  0  -0.411452  -0.342242  0  3.568133  0
N  N210  1  0.13360604  0.03901155  0.81408456  1  -1.190954  0  -0.411371  -0.342765  0  3.568831  0
N  N211  1  0.36625468  0.22488723  0.18556009  1  -1.188042  0  -0.411349  -0.341868  0  3.567709  0
N  N212  1  0.03653778  0.75436808  0.29549960  1  -1.261792  0  -0.32558  -0.238419  0  3.547819  0
N  N213  1  0.46342652  0.45888660  0.70452190  1  -1.266174  0  -0.325833  -0.238927  0  3.548214  0
N  N214  1  0.96345161  0.24563551  0.70449844  1  -1.262136  0  -0.325625  -0.238673  0  3.547933  0
N  N215  1  0.53657947  0.54111748  0.29548495  1  -1.266461  0  -0.325906  -0.239051  0  3.548179  0
N  N216  1  0.84909776  0.20264160  0.97750228  1  -1.23596  0  -0.425762  -0.359727  0  3.603143  0
N  N217  1  0.65040214  0.22512777  0.02247439  1  -1.226572  0  -0.425543  -0.360215  0  3.603651  0
N  N218  1  0.15090920  0.79735420  0.02250121  1  -1.236157  0  -0.425683  -0.359895  0  3.603121  0
N  N219  1  0.34960322  0.77487226  0.97752346  1  -1.226266  0  -0.42557  -0.360149  0  3.60374  0
N  N220  1  0.03314640  0.52979757  0.18514150  1  -1.255709  0  -0.327857  -0.229268  0  3.550073  0
N  N221  1  0.46666780  0.34468634  0.81476435  1  -1.243836  0  -0.327402  -0.228477  0  3.549383  0
N  N222  1  0.96685320  0.47020320  0.81486068  1  -1.255545  0  -0.327812  -0.22918  0  3.549877  0
N  N223  1  0.53333484  0.65532023  0.18524646  1  -1.243669  0  -0.327418  -0.228343  0  3.549119  0
N  N224  1  0.91876991  0.76905260  0.76535938  1  -1.262639  0  -0.418234  -0.360187  0  3.584304  0
N  N225  1  0.58117025  0.00391279  0.23489605  1  -1.282346  0  -0.418976  -0.361614  0  3.585318  0
N  N226  1  0.08123834  0.23094635  0.23465644  1  -1.263575  0  -0.418234  -0.360305  0  3.58454  0
N  N227  1  0.41882237  0.99607677  0.76508365  1  -1.282222  0  -0.418847  -0.361482  0  3.585489  0
N  N228  1  0.71785571  0.66963898  0.43000084  1  -1.246625  0  -0.327933  -0.225822  0  3.57485  0
N  N229  1  0.78216561  0.23990354  0.57019140  1  -1.24725  0  -0.327531  -0.225696  0  3.575193  0
N  N230  1  0.28215611  0.33036128  0.57000778  1  -1.244767  0  -0.327811  -0.22574  0  3.575016  0
N  N231  1  0.21782459  0.76009026  0.42979117  1  -1.248027  0  -0.32751  -0.225561  0  3.575335  0
N  N232  1  0.07445022  0.57460955  0.41017399  1  0.807765  0  0.092608  0.701736  0  4.418692  0
N  N233  1  0.42546136  0.16440054  0.58978259  1  0.828812  0  0.092934  0.703179  0  4.418337  0
N  N234  1  0.92555110  0.42538904  0.58982316  1  0.807999  0  0.092572  0.701663  0  4.418885  0
N  N235  1  0.57454788  0.83560831  0.41022832  1  0.828571  0  0.09301  0.703394  0  4.418107  0
N  N236  1  0.22960013  0.59203109  0.19235287  1  0.807231  0  0.091769  0.702033  0  4.426519  0
N  N237  1  0.27033366  0.39967252  0.80754312  1  0.807445  0  0.09213  0.702622  0  4.427038  0
N  N238  1  0.77039619  0.40797599  0.80764438  1  0.806895  0  0.091592  0.701658  0  4.426404  0
N  N239  1  0.72966818  0.60033045  0.19246267  1  0.807468  0  0.092138  0.70262  0  4.426867  0
O  O240  1  0.84420729  0.08641140  0.82946855  1  -1.125095  0  -0.295747  -0.477511  0  2.121959  0
O  O241  1  0.65657957  0.25713530  0.17086807  1  -1.137124  0  -0.295364  -0.476562  0  2.120708  0
O  O242  1  0.15579161  0.91358694  0.17053544  1  -1.125074  0  -0.295828  -0.477638  0  2.12165  0
O  O243  1  0.34342795  0.74286011  0.82912936  1  -1.137383  0  -0.295336  -0.476547  0  2.120959  0
O  O244  1  0.82451351  0.71290119  0.82112994  1  -1.152195  0  -0.30257  -0.498501  0  2.129227  0
O  O245  1  0.67560016  0.89209866  0.17931945  1  -1.15311  0  -0.30257  -0.498648  0  2.128527  0
O  O246  1  0.17547984  0.28710003  0.17887770  1  -1.151929  0  -0.30258  -0.498512  0  2.129396  0
O  O247  1  0.32439684  0.10789942  0.82067158  1  -1.152574  0  -0.302547  -0.498616  0  2.128501  0
O  O248  1  0.14782576  0.55372021  0.38520431  1  -0.542631  0  -0.19238  -0.440465  0  1.964403  0
O  O249  1  0.35207026  0.16842829  0.61470299  1  -0.549182  0  -0.192285  -0.440743  0  1.964393  0
O  O250  1  0.85217608  0.44628126  0.61479502  1  -0.542968  0  -0.192315  -0.440377  0  1.96445  0
O  O251  1  0.64794188  0.83158188  0.38531486  1  -0.548547  0  -0.192238  -0.44074  0  1.964217  0
O  O252  1  0.03101156  0.63465782  0.39140714  1  -0.594134  0  -0.217169  -0.477569  0  2.013131  0
O  O253  1  0.46885670  0.24322710  0.60854718  1  -0.609569  0  -0.217498  -0.478259  0  2.0132  0
O  O254  1  0.96898499  0.36533655  0.60858583  1  -0.593961  0  -0.217133  -0.477556  0  2.013241  0
O  O255  1  0.53115365  0.75677797  0.39146204  1  -0.609792  0  -0.217634  -0.478487  0  2.0133  0
O  O256  1  0.04419542  0.53986813  0.45051332  1  -0.49163  0  -0.165424  -0.395432  0  1.941375  0
O  O257  1  0.45578230  0.08934768  0.54947041  1  -0.491382  0  -0.165511  -0.396027  0  1.941405  0
O  O258  1  0.95580796  0.46013159  0.54948495  1  -0.491607  0  -0.165453  -0.395437  0  1.941481  0
O  O259  1  0.54421659  0.91065574  0.45053020  1  -0.491486  0  -0.165502  -0.396052  0  1.941393  0
O  O260  1  0.23549647  0.58034567  0.26351879  1  -0.57292  0  -0.190949  -0.446882  0  2.076388  0
O  O261  1  0.26441095  0.31690357  0.73627045  1  -0.570232  0  -0.190825  -0.446743  0  2.077174  0
O  O262  1  0.76450519  0.41964661  0.73646850  1  -0.573272  0  -0.190752  -0.446648  0  2.076306  0
O  O263  1  0.73558634  0.68309885  0.26373694  1  -0.570314  0  -0.190741  -0.446666  0  2.077081  0
O  O264  1  0.18475024  0.65648109  0.18831252  1  -0.570933  0  -0.1981  -0.474578  0  2.000576  0
O  O265  1  0.31513788  0.46824355  0.81168983  1  -0.572919  0  -0.198337  -0.474916  0  1.999705  0
O  O266  1  0.81523904  0.34352436  0.81169162  1  -0.570516  0  -0.198176  -0.474587  0  2.000167  0
O  O267  1  0.68486824  0.53175583  0.18831232  1  -0.572875  0  -0.198345  -0.47495  0  1.999726  0
O  O268  1  0.26596815  0.54143226  0.13020896  1  -0.498772  0  -0.17271  -0.413825  0  1.955108  0
O  O269  1  0.23404967  0.41106560  0.86969895  1  -0.499629  0  -0.173051  -0.414221  0  1.955715  0
O  O270  1  0.73403079  0.45858606  0.86978187  1  -0.498503  0  -0.172677  -0.413698  0  1.955396  0
O  O271  1  0.76595314  0.58894714  0.13031096  1  -0.499586  0  -0.173123  -0.414271  0  1.955612  0
O  O272  1  0.96280224  0.09345512  0.23045699  1  -1.155057  0  -0.299627  -0.490308  0  2.129883  0
O  O273  1  0.53727154  0.86295451  0.76976792  1  -1.154751  0  -0.299613  -0.490447  0  2.12993  0
O  O274  1  0.03720060  0.90654217  0.76954874  1  -1.154993  0  -0.299632  -0.490394  0  2.130064  0
O  O275  1  0.46271870  0.13704565  0.23022243  1  -1.154705  0  -0.29972  -0.490563  0  2.12982  0
