# generated using pymatgen
data_CdH21C24(NO)4
_symmetry_space_group_name_H-M   'P 1'
_cell_length_a   9.54445522
_cell_length_b   11.03845338
_cell_length_c   11.16100000
_cell_angle_alpha   77.40314331
_cell_angle_beta   78.10516316
_cell_angle_gamma   85.09248414
_symmetry_Int_Tables_number   1
_chemical_formula_structural   CdH21C24(NO)4
_chemical_formula_sum   'Cd2 H42 C48 N8 O8'
_cell_volume   1121.91740628
_cell_formula_units_Z   2
loop_
 _symmetry_equiv_pos_site_id
 _symmetry_equiv_pos_as_xyz
  1  'x, y, z'
loop_
 _atom_site_type_symbol
 _atom_site_label
 _atom_site_symmetry_multiplicity
 _atom_site_fract_x
 _atom_site_fract_y
 _atom_site_fract_z
 _atom_site_occupancy
 _atom_site_pbe_bader_charge
 _atom_site_pbe_bader_spin_density
 _atom_site_pbe_cm5_charge
 _atom_site_pbe_ddec_charge
 _atom_site_pbe_ddec_spin_density
 _atom_site_pbe_ddec_sum_bond_order
 _atom_site_pbe_magmom
Cd  Cd0  1  0.94572752  0.20093086  0.15415087  1  1.221719  0  0.773997  0.870362  0  2.119539  0
Cd  Cd1  1  0.05426913  0.79906954  0.84584982  1  1.221675  0  0.773993  0.87038  0  2.119551  0
H  H2  1  0.85534040  0.57641333  0.88904013  1  0.114978  0  0.106005  0.171071  0  1.015646  0
H  H3  1  0.14466058  0.42358614  0.11095999  1  0.114956  0  0.106018  0.171128  0  1.015558  0
H  H4  1  0.86605686  0.41463418  0.88554319  1  0.133494  0  0.105467  0.166825  0  1.017655  0
H  H5  1  0.13394305  0.58536530  0.11445622  1  0.133501  0  0.105461  0.166834  0  1.017638  0
H  H6  1  0.88618435  0.52820375  0.74380137  1  0.059212  0  0.098664  0.143969  0  0.987013  0
H  H7  1  0.11381770  0.47179572  0.25619767  1  0.059212  0  0.098674  0.143998  0  0.987008  0
H  H8  1  0.39253651  0.71702461  0.85158238  1  0.057009  0  0.098949  0.103021  0  1.061058  0
H  H9  1  0.60746336  0.28297579  0.14841953  1  0.057014  0  0.098958  0.103016  0  1.061081  0
H  H10  1  0.62847011  0.60156430  0.83242658  1  0.060823  0  0.097036  0.098578  0  1.030602  0
H  H11  1  0.37152980  0.39843517  0.16757283  1  0.060764  0  0.097012  0.098554  0  1.030625  0
H  H12  1  0.65066153  0.38366420  0.80004601  1  0.073658  0  0.096098  0.096357  0  1.027232  0
H  H13  1  0.34933838  0.61633527  0.19995430  1  0.073661  0  0.096098  0.096361  0  1.02723  0
H  H14  1  0.43848262  0.27781738  0.78535422  1  0.05975  0  0.097206  0.099305  0  1.058836  0
H  H15  1  0.56151626  0.72218117  0.21464737  1  0.059739  0  0.097219  0.09935  0  1.05883  0
H  H16  1  0.22072461  0.19390773  0.27513018  1  0.085487  0  0.103159  0.165117  0  1.029863  0
H  H17  1  0.77927637  0.80609174  0.72487173  1  0.085467  0  0.103145  0.165105  0  1.029859  0
H  H18  1  0.26703327  0.10127654  0.41469173  1  0.090931  0  0.097967  0.143973  0  1.037652  0
H  H19  1  0.73296669  0.89872200  0.58530967  1  0.090948  0  0.09798  0.143992  0  1.037674  0
H  H20  1  0.24085325  0.26467607  0.39919844  1  0.049377  0  0.099684  0.143155  0  0.996634  0
H  H21  1  0.75914666  0.73532341  0.60080097  1  0.049375  0  0.099671  0.143135  0  0.996641  0
H  H22  1  0.76391869  0.12914515  0.77406764  1  0.110916  0  0.104926  0.118091  0  1.048594  0
H  H23  1  0.23608117  0.87085525  0.22593248  1  0.110919  0  0.104929  0.118096  0  1.048592  0
H  H24  1  0.51528383  0.09902903  0.74917036  1  0.069703  0  0.096119  0.094581  0  1.036479  0
H  H25  1  0.48471599  0.90097230  0.25082957  1  0.069691  0  0.09613  0.094588  0  1.036472  0
H  H26  1  0.46032114  0.10611441  0.54153117  1  0.073848  0  0.094362  0.093281  0  1.02953  0
H  H27  1  0.53967979  0.89388599  0.45846786  1  0.073826  0  0.094378  0.093307  0  1.029519  0
H  H28  1  0.65271962  0.13350174  0.34918995  1  0.094557  0  0.102656  0.120768  0  1.032844  0
H  H29  1  0.34728243  0.86649773  0.65080908  1  0.09456  0  0.102655  0.120783  0  1.032847  0
H  H30  1  0.17491931  0.10758612  0.63550645  1  0.099285  0  0.113619  0.09723  0  0.98185  0
H  H31  1  0.82508055  0.89241428  0.36449367  1  0.099283  0  0.113621  0.097246  0  0.981833  0
H  H32  1  0.01070082  0.10352591  0.74219453  1  0.119519  0  0.12133  0.116485  0  0.982148  0
H  H33  1  0.98929904  0.89647449  0.25780559  1  0.119522  0  0.121311  0.116457  0  0.982208  0
H  H34  1  0.02728812  0.25199838  0.87083352  1  0.125734  0  0.113169  0.101993  0  1.021751  0
H  H35  1  0.97271380  0.74800388  0.12916494  1  0.126064  0  0.113178  0.101985  0  1.021783  0
H  H36  1  0.21078537  0.21942941  0.81615275  1  0.091711  0  0.116792  0.102588  0  0.975333  0
H  H37  1  0.78921556  0.78057099  0.18384717  1  0.091692  0  0.116792  0.102592  0  0.975356  0
H  H38  1  0.98905540  0.34498356  0.65912838  1  0.040383  0  0.098133  0.096791  0  0.984597  0
H  H39  1  0.01094661  0.65501684  0.34087136  1  0.04024  0  0.098139  0.096792  0  0.984602  0
H  H40  1  0.17528177  0.33491481  0.59631569  1  0.029625  0  0.094687  0.090952  0  0.984621  0
H  H41  1  0.82471922  0.66508466  0.40368443  1  0.029629  0  0.094671  0.090939  0  0.98458  0
H  H42  1  0.46629657  0.19966727  0.07072910  1  0.100751  0  0.107247  0.116186  0  1.020097  0
H  H43  1  0.53370334  0.80033220  0.92927121  1  0.100745  0  0.107259  0.116165  0  1.02008  0
C  C44  1  0.91007100  0.50540715  0.83892175  1  -0.122614  0  -0.234714  -0.489009  0  3.922157  0
C  C45  1  0.08992891  0.49459232  0.16107856  1  -0.122599  0  -0.234724  -0.489088  0  3.922105  0
C  C46  1  0.06657786  0.50467501  0.83389864  1  0.993843  0  0.232351  0.373966  0  3.946633  0
C  C47  1  0.93342205  0.49532446  0.16610167  1  0.993641  0  0.232295  0.373897  0  3.946708  0
C  C48  1  0.28184635  0.56155317  0.83198509  1  0.346917  0  0.081364  0.146775  0  4.072055  0
C  C49  1  0.71815342  0.43844909  0.16801554  1  0.346985  0  0.081259  0.146576  0  4.072111  0
C  C50  1  0.40246932  0.62234660  0.83695061  1  0.052679  0  -0.097319  -0.15769  0  3.991135  0
C  C51  1  0.59753073  0.37765008  0.16304848  1  0.052506  0  -0.097292  -0.157587  0  3.990991  0
C  C52  1  0.53413377  0.55687697  0.82489622  1  -0.019561  0  -0.103444  -0.097565  0  4.031378  0
C  C53  1  0.46586485  0.44312715  0.17510510  1  -0.019241  0  -0.103377  -0.097514  0  4.031413  0
C  C54  1  0.54687554  0.43382398  0.80652672  1  -0.104994  0  -0.099522  -0.0842  0  4.022993  0
C  C55  1  0.45312437  0.56617549  0.19347448  1  -0.105033  0  -0.09958  -0.084283  0  4.023062  0
C  C56  1  0.42792612  0.37283359  0.79943969  1  0.060416  0  -0.098005  -0.161426  0  4.018832  0
C  C57  1  0.57207369  0.62716774  0.20056113  1  0.06009  0  -0.097986  -0.161399  0  4.018684  0
C  C58  1  0.29612374  0.43838684  0.81298678  1  0.307103  0  0.092014  0.096428  0  4.021786  0
C  C59  1  0.70387827  0.56161357  0.18701206  1  0.307421  0  0.091968  0.096354  0  4.021766  0
C  C60  1  0.20235548  0.18257168  0.37703477  1  -0.050606  0  -0.235242  -0.479689  0  3.930975  0
C  C61  1  0.79764443  0.81742779  0.62296644  1  -0.050594  0  -0.235218  -0.479663  0  3.931004  0
C  C62  1  0.04779106  0.16681957  0.43080149  1  0.991708  0  0.232034  0.375358  0  3.952661  0
C  C63  1  0.95220992  0.83317990  0.56919863  1  0.991273  0  0.232006  0.375307  0  3.952785  0
C  C64  1  0.84579714  0.14439833  0.57444156  1  0.267083  0  0.088523  0.086365  0  4.029493  0
C  C65  1  0.15420379  0.85560208  0.42555837  1  0.267079  0  0.088519  0.08633  0  4.029485  0
C  C66  1  0.73976371  0.13009656  0.68258201  1  -0.005848  0  -0.096657  -0.159429  0  3.978009  0
C  C67  1  0.26023615  0.86990384  0.31741811  1  -0.005845  0  -0.096689  -0.159463  0  3.978032  0
C  C68  1  0.60118540  0.11588956  0.66713194  1  -0.031317  0  -0.099705  -0.087227  0  4.020079  0
C  C69  1  0.39881549  0.88411177  0.33286690  1  -0.031326  0  -0.099709  -0.087239  0  4.020077  0
C  C70  1  0.57015270  0.11864158  0.54851214  1  -0.085342  0  -0.103603  -0.099839  0  4.036977  0
C  C71  1  0.42984824  0.88135882  0.45148689  1  -0.08535  0  -0.103611  -0.099833  0  4.036956  0
C  C72  1  0.67642297  0.13427104  0.44048977  1  -0.003461  0  -0.099524  -0.171864  0  3.989269  0
C  C73  1  0.32357904  0.86572936  0.55950908  1  -0.003466  0  -0.099541  -0.171929  0  3.989246  0
C  C74  1  0.81654234  0.14714012  0.45461192  1  0.375596  0  0.077639  0.138148  0  4.089976  0
C  C75  1  0.18345864  0.85285935  0.54538820  1  0.375605  0  0.077647  0.138197  0  4.089928  0
C  C76  1  0.07089220  0.15737890  0.65484065  1  0.283378  0  -0.048616  -0.047829  0  3.856082  0
C  C77  1  0.92910771  0.84262057  0.34515965  1  0.283389  0  -0.04859  -0.047822  0  3.856138  0
C  C78  1  0.12081603  0.28539704  0.79904271  1  0.270494  0  -0.050899  -0.052049  0  3.86753  0
C  C79  1  0.87918598  0.71460336  0.20095434  1  0.270149  0  -0.050874  -0.052061  0  3.867582  0
C  C80  1  0.08892430  0.28959661  0.66955607  1  -0.035945  0  -0.159188  -0.187649  0  3.920248  0
C  C81  1  0.91107561  0.71040286  0.33044335  1  -0.035787  0  -0.159216  -0.187669  0  3.920225  0
C  C82  1  0.21763112  0.11645725  0.06135704  1  1.53129  0  0.188902  0.536899  0  4.253376  0
C  C83  1  0.78236874  0.88354315  0.93864308  1  1.531229  0  0.188887  0.536862  0  4.253393  0
C  C84  1  0.48316325  0.11195757  0.03923898  1  -0.078387  0  -0.080682  -0.125599  0  3.948859  0
C  C85  1  0.51683559  0.88804190  0.96076152  1  -0.078379  0  -0.080721  -0.125617  0  3.94888  0
C  C86  1  0.36268358  0.05726003  0.02426297  1  -0.06156  0  -0.01102  -0.049559  0  3.96431  0
C  C87  1  0.63731521  0.94274037  0.97573644  1  -0.061505  0  -0.010998  -0.049539  0  3.964349  0
C  C88  1  0.37977041  0.94383858  0.98359461  1  0.058216  0  -0.003892  -0.02826  0  3.931726  0
C  C89  1  0.62022736  0.05616089  0.01640518  1  0.058161  0  -0.003937  -0.028355  0  3.9318  0
C  C90  1  0.25877390  0.88400306  0.95349772  1  1.602027  0  0.195137  0.578471  0  4.247178  0
C  C91  1  0.74122387  0.11599641  0.04650297  1  1.601991  0  0.195208  0.578576  0  4.247189  0
N  N92  1  0.94464487  0.16151901  0.36737001  1  -1.190079  0  -0.357451  -0.422724  0  3.395644  0
N  N93  1  0.05535615  0.83847953  0.63262940  1  -1.189615  0  -0.357411  -0.422694  0  3.395741  0
N  N94  1  0.99284597  0.15561267  0.55610439  1  -1.244211  0  -0.24316  -0.079422  0  3.689441  0
N  N95  1  0.00715389  0.84438774  0.44389572  1  -1.244205  0  -0.243143  -0.07935  0  3.689369  0
N  N96  1  0.15833321  0.40525297  0.81494773  1  -1.20736  0  -0.239889  -0.073438  0  3.678647  0
N  N97  1  0.84166768  0.59474836  0.18504932  1  -1.207159  0  -0.239847  -0.073342  0  3.67857  0
N  N98  1  0.13756954  0.59988726  0.84487070  1  -1.223095  0  -0.359513  -0.419355  0  3.426735  0
N  N99  1  0.86242934  0.40011128  0.15513178  1  -1.223126  0  -0.35941  -0.419179  0  3.426683  0
O  O100  1  0.10855588  0.05037905  0.08186638  1  -1.129565  0  -0.314264  -0.518009  0  2.225857  0
O  O101  1  0.89144180  0.94962228  0.91813034  1  -1.129512  0  -0.314252  -0.518004  0  2.225889  0
O  O102  1  0.20742359  0.22859507  0.07629417  1  -1.173372  0  -0.330905  -0.57133  0  2.214443  0
O  O103  1  0.79257734  0.77140533  0.92370665  1  -1.173369  0  -0.330892  -0.571276  0  2.214457  0
O  O104  1  0.19759746  0.79313718  0.02933845  1  -1.182282  0  -0.321862  -0.559115  0  2.168449  0
O  O105  1  0.80240138  0.20686229  0.97066205  1  -1.18225  0  -0.321911  -0.55919  0  2.168464  0
O  O106  1  0.23488485  0.92554072  0.84234724  1  -1.153633  0  -0.336147  -0.560805  0  2.200395  0
O  O107  1  0.76511399  0.07445875  0.15765236  1  -1.153626  0  -0.336168  -0.560815  0  2.200435  0
