# generated using pymatgen
data_CoH20C24(N5O3)2
_symmetry_space_group_name_H-M   'P 1'
_cell_length_a   8.77437272
_cell_length_b   9.54438059
_cell_length_c   10.31763960
_cell_angle_alpha   100.79779768
_cell_angle_beta   100.94877452
_cell_angle_gamma   108.48785586
_symmetry_Int_Tables_number   1
_chemical_formula_structural   CoH20C24(N5O3)2
_chemical_formula_sum   'Co1 H20 C24 N10 O6'
_cell_volume   775.59105273
_cell_formula_units_Z   1
loop_
 _symmetry_equiv_pos_site_id
 _symmetry_equiv_pos_as_xyz
  1  'x, y, z'
loop_
 _atom_site_type_symbol
 _atom_site_label
 _atom_site_symmetry_multiplicity
 _atom_site_fract_x
 _atom_site_fract_y
 _atom_site_fract_z
 _atom_site_occupancy
 _atom_site_hle17_ddec_charge
 _atom_site_hle17_ddec_spin_density
 _atom_site_hle17_ddec_sum_bond_order
 _atom_site_hle17_magmom
 _atom_site_hse06_10hf_ddec_charge
 _atom_site_hse06_10hf_ddec_spin_density
 _atom_site_hse06_10hf_ddec_sum_bond_order
 _atom_site_hse06_10hf_magmom
 _atom_site_hse06_ddec_charge
 _atom_site_hse06_ddec_spin_density
 _atom_site_hse06_ddec_sum_bond_order
 _atom_site_hse06_magmom
 _atom_site_pbe_cm5_charge
 _atom_site_pbe_ddec_charge
 _atom_site_pbe_ddec_spin_density
 _atom_site_pbe_ddec_sum_bond_order
 _atom_site_pbe_magmom
Co  Co0  1  0.00000125  0.49999682  0.99999826  1  0.632836  1.076698  2.529466  0.984  0.608296  1.024396  2.959094  0.947  0.665708  1.032627  2.897332  0.967  0.685003  0.573626  1.005029  2.998711  0.915
H  H1  1  0.14901046  0.50256921  0.30051232  1  0.100611  -0.000108  0.954745  0.0  0.105674  -0.000254  1.025175  0.0  0.108533  -0.000175  1.020591  0.0  0.137767  0.103415  -0.000314  1.028755  0.0
H  H2  1  0.85097906  0.49743171  0.69948040  1  0.100591  -0.000108  0.954727  0.0  0.105646  -0.000254  1.025167  0.0  0.108502  -0.000175  1.020588  0.0  0.137783  0.103387  -0.000314  1.028748  0.0
H  H3  1  0.15020821  0.41636014  0.49715156  1  0.115857  -4e-05  0.940976  0.0  0.127592  -5.5e-05  0.998796  0.0  0.130787  -2.4e-05  0.997067  0.0  0.112124  0.12531  -7.8e-05  1.000231  0.0
H  H4  1  0.84979200  0.58363840  0.50285214  1  0.115858  -4.1e-05  0.940955  0.0  0.127591  -5.5e-05  0.998778  0.0  0.130788  -2.4e-05  0.997047  0.0  0.11212  0.125307  -7.8e-05  1.000214  0.0
H  H5  1  0.43496315  0.17634844  0.31845237  1  0.114177  -7e-06  0.96126  0.0  0.122123  -1.8e-05  1.025538  0.0  0.125813  -1.3e-05  1.022687  0.0  0.109801  0.119267  -1.9e-05  1.028016  0.0
H  H6  1  0.56504275  0.82366169  0.68154760  1  0.114134  -8e-06  0.961281  0.0  0.122076  -1.8e-05  1.025562  0.0  0.125765  -1.3e-05  1.022711  0.0  0.109802  0.119221  -1.9e-05  1.028043  0.0
H  H7  1  0.59749698  0.20000729  0.55140287  1  0.101294  1.3e-05  0.936776  0.0  0.113059  2.1e-05  0.989209  0.0  0.115383  9e-06  0.98882  0.0  0.107959  0.111291  2.7e-05  0.989693  0.0
H  H8  1  0.40251403  0.80000404  0.44859718  1  0.101196  1.4e-05  0.936913  0.0  0.113049  2.1e-05  0.989247  0.0  0.115372  9e-06  0.988859  0.0  0.107952  0.111278  2.7e-05  0.989731  0.0
H  H9  1  0.53993381  0.33256791  0.75731306  1  0.115997  -8.1e-05  0.967284  0.0  0.121383  -0.00012  1.038818  0.0  0.12476  -0.0001  1.036733  0.0  0.108016  0.118793  -0.000122  1.040413  0.0
H  H10  1  0.46007262  0.66743762  0.24268808  1  0.11596  -8e-05  0.967294  0.0  0.121334  -0.00012  1.038854  0.0  0.124708  -0.0001  1.036772  0.0  0.107998  0.118748  -0.000122  1.040446  0.0
H  H11  1  0.21159737  0.08766951  0.13768078  1  0.126949  -0.000112  0.997481  0.0  0.128339  4.2e-05  1.068708  0.0  0.131937  7e-06  1.065918  0.0  0.122891  0.125643  8.8e-05  1.070909  0.0
H  H12  1  0.78840458  0.91233345  0.86233371  1  0.12687  -0.00011  0.997621  0.0  0.128293  4.2e-05  1.068816  0.0  0.131891  6e-06  1.066026  0.0  0.122899  0.125596  8.8e-05  1.071021  0.0
H  H13  1  0.06192565  0.18263749  0.92625818  1  0.112826  -5.1e-05  0.970053  0.0  0.118936  -6e-05  1.033293  0.0  0.120755  -5.4e-05  1.032907  0.0  0.122509  0.117662  -5e-05  1.033578  0.0
H  H14  1  0.93807904  0.81735766  0.07374560  1  0.112776  -5.1e-05  0.970133  0.0  0.118955  -6e-05  1.033295  0.0  0.120773  -5.4e-05  1.032911  0.0  0.122494  0.117679  -5e-05  1.033579  0.0
H  H15  1  0.04786012  0.31712718  0.72675916  1  0.107067  -5.5e-05  0.984145  0.0  0.105095  -0.000124  1.063734  0.0  0.109933  -9.3e-05  1.056392  0.0  0.13084  0.101446  -0.000138  1.069153  0.0
H  H16  1  0.95214305  0.68286112  0.27324213  1  0.107137  -5.5e-05  0.984134  0.0  0.105162  -0.000124  1.063729  0.0  0.110002  -9.2e-05  1.056384  0.0  0.130853  0.101513  -0.000138  1.069145  0.0
H  H17  1  0.54642386  0.63825446  0.85618720  1  0.110258  -0.000126  0.992323  0.0  0.116823  -6.3e-05  1.058407  0.0  0.118604  -5.6e-05  1.059153  0.0  0.117602  0.115435  -6.3e-05  1.05831  0.0
H  H18  1  0.45356562  0.36175230  0.14379982  1  0.110284  -0.000122  0.992357  0.0  0.11691  -6.3e-05  1.058387  0.0  0.118696  -5.6e-05  1.059126  0.0  0.117638  0.115519  -6.3e-05  1.058277  0.0
H  H19  1  0.36994986  0.71609443  0.03696735  1  0.120802  -1e-05  0.982893  0.0  0.122523  -2e-05  1.052212  0.0  0.126461  -2.4e-05  1.047769  0.0  0.118479  0.11957  -1.2e-05  1.055633  0.0
H  H20  1  0.63004529  0.28390307  0.96302758  1  0.120832  -1.1e-05  0.982814  0.0  0.122514  -2e-05  1.052169  0.0  0.126454  -2.4e-05  1.047728  0.0  0.118492  0.119563  -1.2e-05  1.055586  0.0
C  C21  1  0.13832219  0.40032203  0.22747433  1  0.161666  -0.012699  3.604978  -0.008  0.103034  -0.005569  3.87627  -0.003  0.11985  -0.004342  3.885963  -0.003  0.142434  0.091465  -0.006398  3.870355  -0.004
C  C22  1  0.86167247  0.59967417  0.77252900  1  0.161553  -0.012676  3.604666  -0.008  0.102977  -0.005569  3.875975  -0.003  0.119794  -0.004341  3.885665  -0.003  0.142366  0.091409  -0.006399  3.870063  -0.004
C  C23  1  0.28463285  0.29712910  0.39318481  1  0.202311  8.7e-05  3.773464  0.0  0.197594  -3.9e-05  4.019801  0.0  0.203195  3.9e-05  4.042558  0.0  0.102337  0.193629  -0.000135  4.004881  0.0
C  C24  1  0.71537014  0.70287060  0.60681955  1  0.202359  7.6e-05  3.773243  0.0  0.197539  -3.8e-05  4.019703  0.0  0.203166  3.7e-05  4.042426  0.0  0.102348  0.193576  -0.000135  4.004784  0.0
C  C25  1  0.24850009  0.36925488  0.50786512  1  -0.220604  -0.000588  3.710841  0.0  -0.249635  -0.000201  3.959212  0.0  -0.25533  -0.000177  3.980133  0.0  -0.08627  -0.246584  -0.00061  3.946086  0.0
C  C26  1  0.75149782  0.63074372  0.49213434  1  -0.22062  -0.000562  3.710791  0.0  -0.249636  -0.000202  3.959165  0.0  -0.25534  -0.000172  3.980079  0.0  -0.086304  -0.246583  -0.00061  3.946036  0.0
C  C27  1  0.40980969  0.23540068  0.40827803  1  -0.133188  -0.001264  3.713447  -0.001  -0.161844  -0.000628  3.971597  0.0  -0.164517  -0.000452  3.990172  0.0  -0.084995  -0.159533  -0.000503  3.959046  0.0
C  C28  1  0.59020013  0.76461056  0.59172666  1  -0.133158  -0.001239  3.71323  -0.001  -0.161781  -0.00063  3.971425  0.0  -0.16446  -0.000446  3.98999  0.0  -0.085036  -0.159469  -0.000503  3.958875  0.0
C  C29  1  0.50024252  0.24838036  0.53926454  1  -0.032553  0.000271  3.75626  0.0  -0.042856  3.8e-05  4.00653  0.0  -0.044285  7.2e-05  4.028252  0.0  -0.083072  -0.042018  2.6e-05  3.991626  0.0
C  C30  1  0.49976846  0.75163088  0.46074034  1  -0.032382  0.000261  3.756133  0.0  -0.042764  3.9e-05  4.006399  0.0  -0.044196  6.9e-05  4.028127  0.0  -0.082983  -0.041922  2.6e-05  3.991491  0.0
C  C31  1  0.46814630  0.32230503  0.65524808  1  -0.144457  -0.001576  3.718645  -0.001  -0.173157  -0.000869  3.976072  0.0  -0.176217  -0.000591  3.995947  0.0  -0.089989  -0.170262  -0.000796  3.961931  0.0
C  C32  1  0.53186307  0.67770507  0.34475535  1  -0.144466  -0.00157  3.718363  -0.001  -0.173194  -0.000871  3.975843  0.0  -0.176254  -0.000585  3.995723  0.0  -0.090039  -0.170298  -0.000796  3.961703  0.0
C  C33  1  0.17420685  0.18579656  0.13863354  1  -0.054971  0.001533  3.649927  0.002  -0.090503  0.000407  3.90295  0.001  -0.089349  0.000381  3.920277  0.001  0.004132  -0.091067  0.000489  3.891504  0.001
C  C34  1  0.82579606  0.81420888  0.86137090  1  -0.054956  0.001518  3.649916  0.002  -0.090516  0.000407  3.902933  0.001  -0.089361  0.00038  3.920259  0.001  0.004034  -0.091079  0.000489  3.891486  0.001
C  C35  1  0.10028356  0.23447204  0.03571463  1  -0.001341  -0.004528  3.694971  -0.003  -0.032826  -0.002051  3.962206  -0.001  -0.030653  -0.001944  3.983149  -0.001  0.002098  -0.034632  -0.002138  3.948563  -0.001
C  C36  1  0.89971432  0.76552648  0.96428965  1  -0.001313  -0.004503  3.69498  -0.003  -0.032825  -0.002051  3.962226  -0.001  -0.030653  -0.001943  3.983172  -0.001  0.002167  -0.034625  -0.002138  3.948578  -0.001
C  C37  1  0.15651947  0.41789572  0.78545056  1  0.140223  -0.008182  3.609415  -0.005  0.083231  -0.003906  3.879447  -0.003  0.097939  -0.003168  3.889327  -0.002  0.133998  0.073705  -0.004487  3.872458  -0.003
C  C38  1  0.84348111  0.58209484  0.21455074  1  0.140057  -0.008171  3.609451  -0.005  0.083017  -0.003907  3.879503  -0.003  0.09772  -0.003166  3.889389  -0.002  0.133901  0.073499  -0.004486  3.872515  -0.003
C  C39  1  0.34162956  0.38160495  0.63801772  1  0.189147  0.000212  3.795549  0.0  0.186118  1.3e-05  4.04106  0.0  0.190897  4.7e-05  4.064733  0.0  0.095246  0.182855  -3.5e-05  4.024966  0.0
C  C40  1  0.65837256  0.61839255  0.36198124  1  0.189084  0.000203  3.795503  0.0  0.186115  1.3e-05  4.04093  0.0  0.190894  4.5e-05  4.064604  0.0  0.095281  0.182853  -3.5e-05  4.024835  0.0
C  C41  1  0.41816487  0.58453545  0.85729565  1  -0.054598  0.000653  3.672186  0.001  -0.092771  -2.3e-05  3.92621  0.0  -0.091783  8.1e-05  3.945878  0.0  0.00069  -0.093325  -6.1e-05  3.913296  0.0
C  C42  1  0.58183118  0.41546433  0.14270082  1  -0.054606  0.000627  3.672283  0.001  -0.092868  -2.2e-05  3.926274  0.0  -0.091882  7.9e-05  3.945946  0.0  0.000701  -0.093411  -6.1e-05  3.913351  0.0
C  C43  1  0.33092923  0.62056332  0.94702443  1  -0.002753  -0.003797  3.702396  -0.003  -0.035255  -0.001967  3.972286  -0.001  -0.032308  -0.001761  3.989868  -0.001  -0.001804  -0.037366  -0.001983  3.960943  -0.001
C  C44  1  0.66906844  0.37943764  0.05297059  1  -0.002766  -0.003753  3.70243  -0.003  -0.035238  -0.001968  3.972309  -0.001  -0.032294  -0.001758  3.989893  -0.001  -0.001811  -0.037342  -0.001982  3.960961  -0.001
N  N45  1  0.77648328  0.15883573  0.78763716  1  0.708916  0.003995  4.102639  0.007  0.726685  0.005222  4.423043  0.009  0.755301  0.003279  4.428682  0.006  0.093055  0.707144  0.007429  4.418249  0.012
N  N46  1  0.22350748  0.84115944  0.21235761  1  0.709002  0.003989  4.102729  0.007  0.726767  0.005222  4.423153  0.009  0.75539  0.003279  4.428791  0.006  0.093137  0.707223  0.007429  4.418364  0.012
N  N47  1  0.07913730  0.36853357  0.09242235  1  -0.278575  -0.012927  3.376398  -0.008  -0.239563  -0.008989  3.68312  -0.007  -0.264703  -0.009133  3.699542  -0.007  -0.357065  -0.223706  -0.007781  3.672548  -0.006
N  N48  1  0.92086454  0.63146615  0.90758086  1  -0.278405  -0.012938  3.376177  -0.008  -0.239505  -0.008988  3.683028  -0.007  -0.264644  -0.009133  3.699448  -0.007  -0.357014  -0.223649  -0.00778  3.672458  -0.006
N  N49  1  0.19788168  0.29181025  0.26007863  1  -0.091952  -0.001062  3.589609  -0.001  -0.003604  -0.000951  3.799157  -0.001  -0.018356  -0.000678  3.823469  0.0  -0.224645  0.006146  -0.001163  3.782879  -0.001
N  N50  1  0.80212077  0.70819403  0.73992649  1  -0.091963  -0.001062  3.589403  -0.001  -0.003572  -0.000951  3.798936  -0.001  -0.018334  -0.000678  3.823241  0.0  -0.224623  0.006179  -0.001163  3.782659  -0.001
N  N51  1  0.16882883  0.51492221  0.90191216  1  -0.286861  -0.014943  3.395064  -0.01  -0.246191  -0.009888  3.699683  -0.008  -0.271941  -0.010033  3.71789  -0.008  -0.357604  -0.229354  -0.008598  3.68714  -0.006
N  N52  1  0.83117015  0.48506724  0.09808673  1  -0.286896  -0.014955  3.39519  -0.01  -0.246156  -0.009888  3.699741  -0.008  -0.271903  -0.010035  3.717948  -0.008  -0.357669  -0.229345  -0.008599  3.687222  -0.006
N  N53  1  0.30664145  0.45727120  0.75526918  1  -0.090692  -0.001377  3.614348  -0.001  -0.001513  -0.001133  3.823395  -0.001  -0.015969  -0.000842  3.848605  -0.001  -0.227676  0.008311  -0.001271  3.805783  -0.001
N  N54  1  0.69335512  0.54272398  0.24472845  1  -0.090561  -0.001367  3.614262  -0.001  -0.001361  -0.001133  3.823266  -0.001  -0.015817  -0.000842  3.848482  -0.001  -0.227549  0.00846  -0.00127  3.805649  -0.001
O  O55  1  0.80990687  0.30443424  0.81193554  1  -0.520075  0.006838  1.860245  0.009  -0.504239  0.006357  2.117367  0.008  -0.523532  0.003989  2.107308  0.005  -0.199031  -0.490081  0.009687  2.123707  0.012
O  O56  1  0.19008856  0.69556100  0.18805805  1  -0.520194  0.006841  1.86038  0.009  -0.504282  0.006359  2.117389  0.008  -0.523576  0.003991  2.1073  0.005  -0.199071  -0.490136  0.009688  2.123765  0.012
O  O57  1  0.85364424  0.09942058  0.71628629  1  -0.473609  0.006423  1.697279  0.011  -0.464663  0.006897  1.903031  0.012  -0.47768  0.005188  1.896754  0.009  -0.201728  -0.45514  0.009  1.906983  0.015
O  O58  1  0.14634612  0.90056764  0.28371293  1  -0.473531  0.006429  1.697351  0.011  -0.464613  0.006897  1.903128  0.012  -0.477631  0.005189  1.896847  0.009  -0.201689  -0.455087  0.009  1.907082  0.015
O  O59  1  0.66810161  0.07902290  0.83566921  1  -0.458246  0.005118  1.693603  0.009  -0.443701  0.005734  1.891039  0.009  -0.456343  0.00425  1.88448  0.007  -0.190596  -0.4348  0.007493  1.8955  0.012
O  O60  1  0.33188833  0.92097907  0.16432960  1  -0.45834  0.005117  1.693621  0.009  -0.443816  0.005734  1.891074  0.009  -0.45646  0.004247  1.884512  0.007  -0.190682  -0.434909  0.007493  1.895535  0.012
