# generated using pymatgen
data_ZnH20C26NO4
_symmetry_space_group_name_H-M   'P 1'
_cell_length_a   13.05055316
_cell_length_b   13.05070486
_cell_length_c   16.10313367
_cell_angle_alpha   91.90578674
_cell_angle_beta   91.90443111
_cell_angle_gamma   107.83186800
_symmetry_Int_Tables_number   1
_chemical_formula_structural   ZnH20C26NO4
_chemical_formula_sum   'Zn4 H80 C104 N4 O16'
_cell_volume   2606.74586992
_cell_formula_units_Z   4
loop_
 _symmetry_equiv_pos_site_id
 _symmetry_equiv_pos_as_xyz
  1  'x, y, z'
loop_
 _atom_site_type_symbol
 _atom_site_label
 _atom_site_symmetry_multiplicity
 _atom_site_fract_x
 _atom_site_fract_y
 _atom_site_fract_z
 _atom_site_occupancy
 _atom_site_pbe_bader_charge
 _atom_site_pbe_bader_spin_density
 _atom_site_pbe_cm5_charge
 _atom_site_pbe_ddec_charge
 _atom_site_pbe_ddec_spin_density
 _atom_site_pbe_ddec_sum_bond_order
 _atom_site_pbe_magmom
Zn  Zn0  1  0.43855341  0.42846269  0.55963671  1  1.293792  0  0.670088  0.826436  0  2.415728  0
Zn  Zn1  1  0.57153922  0.56144718  0.94035847  1  1.293753  0  0.670099  0.826492  0  2.415865  0
Zn  Zn2  1  0.56144917  0.57154161  0.44036385  1  1.293883  0  0.670088  0.826442  0  2.41589  0
Zn  Zn3  1  0.42845939  0.43855279  0.05964120  1  1.29389  0  0.670051  0.826405  0  2.415784  0
H  H4  1  0.23190194  0.25933327  0.54769425  1  0.112507  0  0.118183  0.088456  0  1.011712  0
H  H5  1  0.74066001  0.76810258  0.95230426  1  0.112502  0  0.118177  0.088467  0  1.011685  0
H  H6  1  0.76810159  0.74066214  0.45230482  1  0.112577  0  0.118169  0.08846  0  1.011682  0
H  H7  1  0.25934430  0.23189539  0.04769429  1  0.112479  0  0.118154  0.088428  0  1.011712  0
H  H8  1  0.10839449  0.13321975  0.64014470  1  0.108354  0  0.102601  0.105759  0  1.050679  0
H  H9  1  0.86678030  0.89160286  0.85985750  1  0.108666  0  0.102574  0.105687  0  1.050745  0
H  H10  1  0.89160424  0.86677494  0.35984984  1  0.108979  0  0.102556  0.105707  0  1.05074  0
H  H11  1  0.13322798  0.10839478  0.14014677  1  0.108453  0  0.102581  0.105793  0  1.050632  0
H  H12  1  0.35632633  0.24607128  0.83705140  1  0.095454  0  0.109581  0.120299  0  1.017668  0
H  H13  1  0.75395044  0.64368016  0.66294861  1  0.095782  0  0.109552  0.120336  0  1.01754  0
H  H14  1  0.64367141  0.75393456  0.16294657  1  0.095519  0  0.109577  0.120386  0  1.01758  0
H  H15  1  0.24605461  0.35631954  0.33705375  1  0.095857  0  0.10956  0.120327  0  1.017542  0
H  H16  1  0.46880826  0.36482522  0.73613099  1  0.153252  0  0.124368  0.100066  0  0.98245  0
H  H17  1  0.63519111  0.53119969  0.76386461  1  0.153928  0  0.124324  0.100041  0  0.982522  0
H  H18  1  0.53118789  0.63517936  0.26386627  1  0.153754  0  0.12437  0.100129  0  0.982363  0
H  H19  1  0.36481391  0.46880385  0.23613601  1  0.153897  0  0.124293  0.100023  0  0.9824  0
H  H20  1  0.07028324  0.06031207  0.77408843  1  0.058125  0  0.099861  0.099188  0  1.018886  0
H  H21  1  0.93969536  0.92972242  0.72591022  1  0.058008  0  0.099849  0.099187  0  1.018956  0
H  H22  1  0.92971303  0.93968721  0.22590494  1  0.058278  0  0.099863  0.099214  0  1.018955  0
H  H23  1  0.06030567  0.07027756  0.27408954  1  0.058028  0  0.09985  0.09918  0  1.018949  0
H  H24  1  0.22741450  0.17852508  0.91723858  1  0.065293  0  0.106621  0.102135  0  1.010268  0
H  H25  1  0.82146527  0.77259253  0.58276413  1  0.065279  0  0.106636  0.102157  0  1.010268  0
H  H26  1  0.77258672  0.82146580  0.08275529  1  0.065167  0  0.1066  0.10213  0  1.010216  0
H  H27  1  0.17853327  0.22740660  0.41724111  1  0.065272  0  0.106645  0.102173  0  1.010214  0
H  H28  1  0.99730368  0.19183486  0.85317691  1  0.026491  0  0.084831  0.119293  0  1.058228  0
H  H29  1  0.80816531  0.00269572  0.64682339  1  0.026345  0  0.084832  0.119303  0  1.058219  0
H  H30  1  0.00269170  0.80817027  0.14681661  1  0.026433  0  0.084802  0.119213  0  1.058206  0
H  H31  1  0.19183560  0.99730801  0.35318145  1  0.026438  0  0.084847  0.1193  0  1.058161  0
H  H32  1  0.90661777  0.20405784  0.92964695  1  0.03065  0  0.093764  0.129711  0  0.991755  0
H  H33  1  0.79593589  0.09338291  0.57035606  1  0.030514  0  0.09377  0.129705  0  0.991739  0
H  H34  1  0.09338092  0.79594144  0.07034711  1  0.030766  0  0.093742  0.129664  0  0.991723  0
H  H35  1  0.20405857  0.90662029  0.42964856  1  0.030807  0  0.093762  0.129704  0  0.991758  0
H  H36  1  0.86332234  0.10236739  0.85040986  1  0.016878  0  0.088799  0.122753  0  1.006108  0
H  H37  1  0.89763562  0.13667692  0.64959221  1  0.016867  0  0.088816  0.122817  0  1.006127  0
H  H38  1  0.13667621  0.89764103  0.14958636  1  0.016977  0  0.088782  0.122717  0  1.006199  0
H  H39  1  0.10236461  0.86332280  0.35040751  1  0.016797  0  0.088791  0.122733  0  1.006197  0
H  H40  1  0.25789781  0.01650166  0.94130413  1  0.044787  0  0.088498  0.121582  0  1.040701  0
H  H41  1  0.98348794  0.74210214  0.55869022  1  0.044847  0  0.088516  0.121632  0  1.040664  0
H  H42  1  0.74210484  0.98350039  0.05869326  1  0.044582  0  0.088503  0.121619  0  1.040739  0
H  H43  1  0.01650747  0.25789606  0.44130743  1  0.044844  0  0.088528  0.121633  0  1.04065  0
H  H44  1  0.21056311  0.89093803  0.98790615  1  0.051951  0  0.096089  0.13477  0  0.987702  0
H  H45  1  0.10906058  0.78943633  0.51208762  1  0.05201  0  0.096108  0.134773  0  0.987769  0
H  H46  1  0.78943630  0.10906375  0.01209175  1  0.051906  0  0.096074  0.134761  0  0.987698  0
H  H47  1  0.89093721  0.21056415  0.48791143  1  0.051947  0  0.096115  0.134766  0  0.987738  0
H  H48  1  0.26425807  0.00895672  0.05145317  1  0.0611  0  0.091248  0.126866  0  1.004465  0
H  H49  1  0.99103586  0.73574282  0.44854213  1  0.060933  0  0.091247  0.126886  0  1.004425  0
H  H50  1  0.73573807  0.99104861  0.94854474  1  0.060914  0  0.091241  0.126863  0  1.004479  0
H  H51  1  0.00895868  0.26425660  0.55145925  1  0.060956  0  0.091237  0.126884  0  1.004441  0
H  H52  1  0.11778059  0.43149551  0.47920712  1  0.083214  0  0.100994  0.09815  0  1.040768  0
H  H53  1  0.56850147  0.88221422  0.02078689  1  0.083148  0  0.101013  0.098194  0  1.040784  0
H  H54  1  0.88221963  0.56850188  0.52079563  1  0.083299  0  0.100961  0.098166  0  1.04083  0
H  H55  1  0.43149716  0.11778501  0.97921089  1  0.083116  0  0.101023  0.098153  0  1.040825  0
H  H56  1  0.95182925  0.43600650  0.40123285  1  0.055022  0  0.102564  0.104549  0  1.010043  0
H  H57  1  0.56399822  0.04816836  0.09876204  1  0.055122  0  0.102535  0.104514  0  1.01006  0
H  H58  1  0.04817104  0.56398864  0.59876610  1  0.055182  0  0.102561  0.104517  0  1.010082  0
H  H59  1  0.43600927  0.95183291  0.90123735  1  0.05516  0  0.102531  0.104489  0  1.010136  0
H  H60  1  0.14476750  0.69079926  0.25621483  1  0.042887  0  0.097611  0.094807  0  1.02587  0
H  H61  1  0.30919755  0.85523944  0.24378187  1  0.043095  0  0.097624  0.094837  0  1.025828  0
H  H62  1  0.85523355  0.30920151  0.74378247  1  0.043017  0  0.097621  0.094816  0  1.025863  0
H  H63  1  0.69079696  0.14476845  0.75621421  1  0.042926  0  0.097608  0.09482  0  1.025865  0
H  H64  1  0.31039364  0.67869262  0.33125606  1  0.104626  0  0.102752  0.106701  0  1.016288  0
H  H65  1  0.32129520  0.68961144  0.16874101  1  0.104166  0  0.102793  0.106735  0  1.01623  0
H  H66  1  0.68960819  0.32130607  0.66874492  1  0.10472  0  0.102801  0.106717  0  1.016304  0
H  H67  1  0.67868969  0.31039111  0.83125271  1  0.104674  0  0.102761  0.106675  0  1.016337  0
H  H68  1  0.82420271  0.50198344  0.36608414  1  0.081246  0  0.099686  0.104443  0  1.023899  0
H  H69  1  0.49801566  0.17579646  0.13391501  1  0.081184  0  0.09968  0.104445  0  1.023917  0
H  H70  1  0.17579919  0.49801067  0.63391607  1  0.081236  0  0.099706  0.104477  0  1.023879  0
H  H71  1  0.50199328  0.82420671  0.86609567  1  0.080948  0  0.099651  0.104325  0  1.023942  0
H  H72  1  0.66437064  0.48168119  0.27432360  1  0.137946  0  0.103875  0.114044  0  1.042099  0
H  H73  1  0.51831422  0.33563140  0.22567006  1  0.138069  0  0.103891  0.114078  0  1.041849  0
H  H74  1  0.33563210  0.51831089  0.72567657  1  0.138076  0  0.103856  0.114044  0  1.041863  0
H  H75  1  0.48168184  0.66436999  0.77433703  1  0.137996  0  0.103858  0.114068  0  1.042155  0
H  H76  1  0.86619217  0.60301296  0.07145935  1  0.09394  0  0.1039  0.110919  0  0.994778  0
H  H77  1  0.39698852  0.13381477  0.42854071  1  0.09399  0  0.103881  0.110893  0  0.994821  0
H  H78  1  0.13380640  0.39698775  0.92854221  1  0.094092  0  0.103889  0.110901  0  0.994776  0
H  H79  1  0.60301812  0.86618079  0.57146654  1  0.094114  0  0.103845  0.110766  0  0.995006  0
H  H80  1  0.02845088  0.61267875  0.16044361  1  0.07013  0  0.098918  0.097419  0  1.016935  0
H  H81  1  0.38732640  0.97155813  0.33955629  1  0.070151  0  0.098961  0.097487  0  1.016896  0
H  H82  1  0.97154928  0.38732554  0.83955688  1  0.07025  0  0.098927  0.097465  0  1.016927  0
H  H83  1  0.61267541  0.02843821  0.66044896  1  0.070118  0  0.098957  0.097539  0  1.016839  0
C  C84  1  0.25554442  0.25291718  0.61232375  1  0.450673  0  0.051955  0.105571  0  3.942398  0
C  C85  1  0.74708294  0.74445904  0.88767651  1  0.450764  0  0.05191  0.105442  0  3.942278  0
C  C86  1  0.74445590  0.74708031  0.38767093  1  0.450506  0  0.051975  0.105439  0  3.942352  0
C  C87  1  0.25292212  0.25553990  0.11232520  1  0.450788  0  0.051946  0.105478  0  3.942248  0
C  C88  1  0.18738802  0.18365969  0.66441743  1  -0.051048  0  -0.083579  -0.182216  0  3.931931  0
C  C89  1  0.81634180  0.81261437  0.83558532  1  -0.051406  0  -0.083492  -0.181976  0  3.931931  0
C  C90  1  0.81260911  0.81633526  0.33557583  1  -0.051485  0  -0.083489  -0.181965  0  3.931916  0
C  C91  1  0.18366239  0.18738888  0.16441775  1  -0.051048  0  -0.083532  -0.182075  0  3.931898  0
C  C92  1  0.21982232  0.18120070  0.74827564  1  0.051565  0  0.013519  0.162698  0  4.012866  0
C  C93  1  0.81880798  0.78018416  0.75172589  1  0.051341  0  0.013449  0.162457  0  4.012848  0
C  C94  1  0.78017802  0.81879449  0.25171958  1  0.051842  0  0.013431  0.16252  0  4.012936  0
C  C95  1  0.18120111  0.21981529  0.24827660  1  0.05184  0  0.013486  0.162494  0  4.013038  0
C  C96  1  0.32463177  0.24569812  0.77361514  1  -0.042244  0  -0.077819  -0.170561  0  3.910879  0
C  C97  1  0.75431821  0.67537142  0.72638365  1  -0.042486  0  -0.077866  -0.170548  0  3.910567  0
C  C98  1  0.67536849  0.75430395  0.22637969  1  -0.042962  0  -0.077847  -0.17062  0  3.910954  0
C  C99  1  0.24568687  0.32462677  0.27361742  1  -0.04323  0  -0.077867  -0.170557  0  3.910908  0
C  C100  1  0.38838024  0.31206186  0.71749988  1  0.429932  0  0.056865  0.108387  0  3.923268  0
C  C101  1  0.68794226  0.61162467  0.78249674  1  0.429543  0  0.056945  0.108479  0  3.923382  0
C  C102  1  0.61162407  0.68793689  0.28249746  1  0.429572  0  0.056884  0.108373  0  3.923353  0
C  C103  1  0.31205961  0.38837405  0.21750176  1  0.429621  0  0.056969  0.10852  0  3.923358  0
C  C104  1  0.14339186  0.11592268  0.80425008  1  -0.119003  0  -0.089052  -0.144409  0  3.978968  0
C  C105  1  0.88408491  0.85661501  0.69575030  1  -0.119196  0  -0.089002  -0.144303  0  3.979118  0
C  C106  1  0.85660835  0.88408476  0.19574369  1  -0.119178  0  -0.088952  -0.144345  0  3.978848  0
C  C107  1  0.11591288  0.14338238  0.30425174  1  -0.119012  0  -0.089003  -0.144327  0  3.978758  0
C  C108  1  0.15391058  0.12219959  0.88781860  1  0.036488  0  -0.06851  -0.066644  0  3.949114  0
C  C109  1  0.87779534  0.84609426  0.61218125  1  0.036493  0  -0.068487  -0.066712  0  3.949241  0
C  C110  1  0.84608654  0.87779613  0.11217467  1  0.037061  0  -0.068534  -0.06671  0  3.949034  0
C  C111  1  0.12220075  0.15390717  0.38782336  1  0.036883  0  -0.068478  -0.066669  0  3.949008  0
C  C112  1  0.07330401  0.05927223  0.94401687  1  -0.050386  0  -0.016197  -0.02102  0  3.98927  0
C  C113  1  0.94072199  0.92669510  0.55597860  1  -0.050604  0  -0.016137  -0.020799  0  3.989094  0
C  C114  1  0.92669463  0.94072855  0.05597911  1  -0.050959  0  -0.016133  -0.02086  0  3.989325  0
C  C115  1  0.05927257  0.07330434  0.44402093  1  -0.050809  0  -0.016178  -0.020881  0  3.989191  0
C  C116  1  0.96885048  0.07028744  0.94599250  1  -0.056548  0  -0.014112  0.056049  0  3.945525  0
C  C117  1  0.92971138  0.03114983  0.55400625  1  -0.064963  0  -0.014141  0.055836  0  3.945503  0
C  C118  1  0.03114650  0.92971664  0.05400353  1  -0.056399  0  -0.014161  0.055897  0  3.945886  0
C  C119  1  0.07028403  0.96884837  0.44599140  1  -0.056327  0  -0.014134  0.055888  0  3.945658  0
C  C120  1  0.10415337  0.98937506  0.99774199  1  0.036093  0  -0.016358  0.051535  0  3.951378  0
C  C121  1  0.01061844  0.89584447  0.50225481  1  0.036448  0  -0.016437  0.051492  0  3.951327  0
C  C122  1  0.89584681  0.01062694  0.00225842  1  0.036378  0  -0.016406  0.051467  0  3.951398  0
C  C123  1  0.98937289  0.10415626  0.49774279  1  0.035947  0  -0.016428  0.051483  0  3.951438  0
C  C124  1  0.93322350  0.14603796  0.89166404  1  -0.027657  0  -0.244704  -0.405851  0  3.98326  0
C  C125  1  0.85396010  0.06677958  0.60833712  1  -0.018955  0  -0.244703  -0.405871  0  3.983236  0
C  C126  1  0.06677675  0.85396488  0.10833082  1  -0.02784  0  -0.244613  -0.405617  0  3.983228  0
C  C127  1  0.14603686  0.93322062  0.39166437  1  -0.02782  0  -0.244699  -0.405796  0  3.983291  0
C  C128  1  0.21471990  0.97631916  0.99419272  1  -0.10602  0  -0.2387  -0.397952  0  3.958027  0
C  C129  1  0.02367795  0.78527864  0.50580177  1  -0.106157  0  -0.238718  -0.398038  0  3.958015  0
C  C130  1  0.78528113  0.02368391  0.00580403  1  -0.105789  0  -0.238691  -0.397998  0  3.95814  0
C  C131  1  0.97631905  0.21472160  0.49419662  1  -0.105925  0  -0.238734  -0.398  0  3.958078  0
C  C132  1  0.22390733  0.55304565  0.40878355  1  -0.063641  0  -0.024479  -0.045143  0  3.993778  0
C  C133  1  0.44695034  0.77609184  0.09121569  1  -0.063754  0  -0.024435  -0.044945  0  3.993709  0
C  C134  1  0.77609357  0.44695961  0.59122134  1  -0.063864  0  -0.024437  -0.045189  0  3.993716  0
C  C135  1  0.55304339  0.22391041  0.90878328  1  -0.063829  0  -0.024512  -0.045203  0  3.993871  0
C  C136  1  0.12227142  0.48769897  0.42996284  1  -0.054142  0  -0.089397  -0.10054  0  4.008059  0
C  C137  1  0.51230060  0.87772618  0.07003186  1  -0.053992  0  -0.089354  -0.10061  0  4.007861  0
C  C138  1  0.87773115  0.51230223  0.57004136  1  -0.05416  0  -0.089391  -0.100541  0  4.008133  0
C  C139  1  0.48769479  0.12227431  0.92996586  1  -0.053981  0  -0.089339  -0.10044  0  4.007784  0
C  C140  1  0.02971241  0.49145574  0.38659325  1  -0.028982  0  -0.090155  -0.129959  0  3.966214  0
C  C141  1  0.50854040  0.97028457  0.11340413  1  -0.029206  0  -0.090201  -0.130009  0  3.966333  0
C  C142  1  0.97028782  0.50854011  0.61341007  1  -0.029464  0  -0.090104  -0.129848  0  3.966176  0
C  C143  1  0.49146304  0.02971617  0.88659635  1  -0.029999  0  -0.090143  -0.129919  0  3.96628  0
C  C144  1  0.03601528  0.56232886  0.32159528  1  -0.018754  0  -0.004027  0.073996  0  3.999453  0
C  C145  1  0.43767426  0.96398568  0.17840247  1  -0.018801  0  -0.004021  0.073983  0  3.999597  0
C  C146  1  0.96398493  0.43766929  0.67840687  1  -0.019136  0  -0.004007  0.073937  0  3.99944  0
C  C147  1  0.56233800  0.03601552  0.82160391  1  -0.017315  0  -0.00401  0.073953  0  3.999711  0
C  C148  1  0.13823432  0.63243484  0.30429930  1  -0.032869  0  -0.094548  -0.141622  0  3.990021  0
C  C149  1  0.36756841  0.86176810  0.19570067  1  -0.03322  0  -0.094584  -0.141673  0  3.990043  0
C  C150  1  0.86176509  0.36756692  0.69569921  1  -0.032925  0  -0.09463  -0.141718  0  3.990113  0
C  C151  1  0.63242934  0.13823621  0.80429788  1  -0.032914  0  -0.094602  -0.1417  0  3.990186  0
C  C152  1  0.23094115  0.62716114  0.34650288  1  -0.051188  0  -0.087732  -0.093606  0  3.996814  0
C  C153  1  0.37283147  0.76906098  0.15349328  1  -0.050272  0  -0.087737  -0.093617  0  3.996832  0
C  C154  1  0.76905671  0.37283477  0.65349539  1  -0.050979  0  -0.08775  -0.093522  0  3.996714  0
C  C155  1  0.62716062  0.23094459  0.84650450  1  -0.051071  0  -0.087666  -0.093436  0  3.996711  0
C  C156  1  0.93925217  0.55869528  0.27017684  1  -0.009131  0  -0.010631  0.059234  0  4.016896  0
C  C157  1  0.44130824  0.06074726  0.22982499  1  -0.009387  0  -0.010605  0.059207  0  4.016842  0
C  C158  1  0.06074720  0.44130336  0.72982717  1  -0.008592  0  -0.010557  0.059389  0  4.016914  0
C  C159  1  0.55870644  0.93924931  0.77018566  1  -0.009402  0  -0.010669  0.059157  0  4.016876  0
C  C160  1  0.83519280  0.52196074  0.30106220  1  -0.100161  0  -0.09141  -0.129826  0  3.959731  0
C  C161  1  0.47803697  0.16480404  0.19893319  1  -0.100004  0  -0.091439  -0.129808  0  3.95961  0
C  C162  1  0.16480183  0.47803414  0.69893656  1  -0.100077  0  -0.091462  -0.129962  0  3.959768  0
C  C163  1  0.52196074  0.83519558  0.80107327  1  -0.100326  0  -0.091369  -0.129644  0  3.959447  0
C  C164  1  0.74440406  0.51167104  0.24977739  1  -0.07521  0  -0.084328  -0.085094  0  3.958179  0
C  C165  1  0.48832394  0.25559427  0.25021813  1  -0.075072  0  -0.084388  -0.085157  0  3.957981  0
C  C166  1  0.25559299  0.48832460  0.75022147  1  -0.075192  0  -0.084318  -0.084987  0  3.957972  0
C  C167  1  0.51167540  0.74440356  0.74978895  1  -0.074766  0  -0.084272  -0.085066  0  3.957743  0
C  C168  1  0.75542899  0.54159449  0.16695532  1  0.051412  0  -0.021542  -0.039953  0  3.978746  0
C  C169  1  0.45840500  0.24457031  0.33303932  1  0.051293  0  -0.021497  -0.03992  0  3.97864  0
C  C170  1  0.24457122  0.45840832  0.83304201  1  0.05138  0  -0.021565  -0.040096  0  3.978861  0
C  C171  1  0.54160404  0.75542677  0.66696930  1  0.051088  0  -0.02165  -0.040248  0  3.978617  0
C  C172  1  0.85867396  0.58039455  0.13604839  1  -0.06141  0  -0.088229  -0.09101  0  3.996024  0
C  C173  1  0.41960589  0.14132951  0.36395138  1  -0.061286  0  -0.088266  -0.091049  0  3.9962  0
C  C174  1  0.14132792  0.41960264  0.86395068  1  -0.061462  0  -0.088214  -0.090917  0  3.996178  0
C  C175  1  0.58039993  0.85866888  0.63605469  1  -0.060429  0  -0.088087  -0.090638  0  3.996007  0
C  C176  1  0.94906228  0.58735931  0.18662009  1  -0.091532  0  -0.095345  -0.139365  0  4.002616  0
C  C177  1  0.41264101  0.05094387  0.31338080  1  -0.091529  0  -0.095355  -0.139397  0  4.002816  0
C  C178  1  0.05093951  0.41263933  0.81338462  1  -0.09176  0  -0.095379  -0.139495  0  4.002893  0
C  C179  1  0.58736480  0.94905373  0.68662648  1  -0.092435  0  -0.095434  -0.139581  0  4.002705  0
C  C180  1  0.32374352  0.53789637  0.44749530  1  1.55488  0  0.207983  0.578418  0  4.199196  0
C  C181  1  0.46209877  0.67626336  0.05249994  1  1.554841  0  0.207903  0.578321  0  4.199106  0
C  C182  1  0.67626065  0.46210764  0.55250780  1  1.554871  0  0.207983  0.57842  0  4.199095  0
C  C183  1  0.53788936  0.32373946  0.94749328  1  1.554323  0  0.208007  0.57844  0  4.199429  0
C  C184  1  0.65907715  0.53263310  0.11095484  1  1.561812  0  0.211351  0.579784  0  4.193106  0
C  C185  1  0.46736563  0.34092473  0.38904258  1  1.562079  0  0.21144  0.579799  0  4.192998  0
C  C186  1  0.34092152  0.46736153  0.88904404  1  1.56192  0  0.211389  0.579685  0  4.192936  0
C  C187  1  0.53263936  0.65907723  0.61096234  1  1.561878  0  0.211343  0.579925  0  4.193057  0
N  N188  1  0.35388046  0.31746269  0.63832647  1  -1.242592  0  -0.330255  -0.223563  0  3.539539  0
N  N189  1  0.68253851  0.64611907  0.86167213  1  -1.242632  0  -0.330206  -0.223539  0  3.539375  0
N  N190  1  0.64611496  0.68253552  0.36167056  1  -1.242493  0  -0.330228  -0.223541  0  3.539564  0
N  N191  1  0.31746412  0.35388064  0.13832891  1  -1.24277  0  -0.330191  -0.223569  0  3.539593  0
O  O192  1  0.31241615  0.47499740  0.50774428  1  -1.165301  0  -0.317172  -0.548595  0  2.329193  0
O  O193  1  0.52498973  0.68757989  0.99224389  1  -1.165395  0  -0.317135  -0.548612  0  2.32912  0
O  O194  1  0.68758320  0.52500663  0.49225679  1  -1.165372  0  -0.317194  -0.548644  0  2.329065  0
O  O195  1  0.47498814  0.31241361  0.00773874  1  -1.164939  0  -0.317188  -0.548646  0  2.329414  0
O  O196  1  0.41192959  0.58661217  0.41472394  1  -1.165281  0  -0.316945  -0.546656  0  2.345244  0
O  O197  1  0.41339018  0.58807607  0.08528042  1  -1.165189  0  -0.316884  -0.546602  0  2.345042  0
O  O198  1  0.58807387  0.41338781  0.58527589  1  -1.16524  0  -0.316931  -0.546617  0  2.345247  0
O  O199  1  0.58662116  0.41193018  0.91472920  1  -1.165198  0  -0.316958  -0.546644  0  2.345161  0
O  O200  1  0.67658225  0.58048772  0.04268782  1  -1.176145  0  -0.32089  -0.562557  0  2.356936  0
O  O201  1  0.41952375  0.32341656  0.45731208  1  -1.17636  0  -0.320894  -0.56245  0  2.357076  0
O  O202  1  0.32340879  0.41952586  0.95732075  1  -1.176248  0  -0.32096  -0.562514  0  2.356853  0
O  O203  1  0.58047724  0.67658647  0.54268777  1  -1.176366  0  -0.320834  -0.562437  0  2.356969  0
O  O204  1  0.56699893  0.47837566  0.13524557  1  -1.171327  0  -0.310409  -0.537925  0  2.343264  0
O  O205  1  0.52162155  0.43300390  0.36475283  1  -1.171332  0  -0.310497  -0.538006  0  2.343047  0
O  O206  1  0.43300398  0.52160500  0.86475175  1  -1.171208  0  -0.310412  -0.537793  0  2.343103  0
O  O207  1  0.47838018  0.56699777  0.63525383  1  -1.171414  0  -0.310436  -0.538068  0  2.343078  0
