# generated using pymatgen
data_ZnH19C22NO5
_symmetry_space_group_name_H-M   'P 1'
_cell_length_a   11.74645686
_cell_length_b   13.21840233
_cell_length_c   17.56209085
_cell_angle_alpha   94.08403655
_cell_angle_beta   80.69125194
_cell_angle_gamma   85.26164730
_symmetry_Int_Tables_number   1
_chemical_formula_structural   ZnH19C22NO5
_chemical_formula_sum   'Zn2 H38 C44 N2 O10'
_cell_volume   2671.81206637
_cell_formula_units_Z   2
loop_
 _symmetry_equiv_pos_site_id
 _symmetry_equiv_pos_as_xyz
  1  'x, y, z'
loop_
 _atom_site_type_symbol
 _atom_site_label
 _atom_site_symmetry_multiplicity
 _atom_site_fract_x
 _atom_site_fract_y
 _atom_site_fract_z
 _atom_site_occupancy
 _atom_site_pbe_bader_charge
 _atom_site_pbe_bader_spin_density
 _atom_site_pbe_cm5_charge
 _atom_site_pbe_ddec_charge
 _atom_site_pbe_ddec_spin_density
 _atom_site_pbe_ddec_sum_bond_order
 _atom_site_pbe_magmom
Zn  Zn0  1  0.61861022  0.49788269  0.49124485  1  1.287637  0  0.662969  0.80739  0  2.456697  0
Zn  Zn1  1  0.38140254  0.50210761  0.50875655  1  1.286167  0  0.663106  0.80746  0  2.456438  0
H  H2  1  0.34482525  0.44358241  0.26922929  1  0.081215  0  0.099823  0.103291  0  1.021261  0
H  H3  1  0.65516214  0.55642125  0.73077609  1  0.081505  0  0.099711  0.103145  0  1.021189  0
H  H4  1  0.78605240  0.62413554  0.40629000  1  0.136608  0  0.133436  0.113842  0  0.963737  0
H  H5  1  0.21395785  0.37586446  0.59370789  1  0.136709  0  0.13344  0.113789  0  0.96375  0
H  H6  1  0.00143028  0.35099644  0.60490682  1  0.098234  0  0.123277  0.130733  0  0.972438  0
H  H7  1  0.99857598  0.64900906  0.39509387  1  0.098106  0  0.12325  0.130583  0  0.972514  0
H  H8  1  0.29538998  0.50864338  0.76129765  1  0.098833  0  0.101489  0.106634  0  1.003412  0
H  H9  1  0.70460757  0.49131563  0.23869828  1  0.099052  0  0.101527  0.106601  0  1.003482  0
H  H10  1  0.37685696  0.55461006  0.01699422  1  0.052254  0  0.10221  0.101866  0  0.999254  0
H  H11  1  0.62313985  0.44536594  0.98300674  1  0.052305  0  0.102151  0.101808  0  0.999224  0
H  H12  1  0.71057026  0.48553397  0.09570346  1  0.047265  0  0.097339  0.096713  0  1.002144  0
H  H13  1  0.28941860  0.51443451  0.90429755  1  0.046987  0  0.097307  0.09677  0  1.002113  0
H  H14  1  0.66060696  0.19068334  0.57858152  1  0.097289  0  0.100316  0.105277  0  0.996242  0
H  H15  1  0.33940235  0.80931439  0.42143009  1  0.0978  0  0.100423  0.105328  0  0.996238  0
H  H16  1  0.33963369  0.99373536  0.39932716  1  0.08179  0  0.100567  0.105424  0  1.01598  0
H  H17  1  0.66038383  0.00625823  0.60067954  1  0.081599  0  0.100524  0.105411  0  1.015901  0
H  H18  1  0.80642893  0.40382146  0.56058889  1  0.126342  0  0.134604  0.112404  0  0.965579  0
H  H19  1  0.19358858  0.59617523  0.43940535  1  0.126361  0  0.134606  0.112473  0  0.965582  0
H  H20  1  0.79762761  0.73742391  0.94856214  1  0.034969  0  0.083838  0.108496  0  1.004065  0
H  H21  1  0.89465723  0.67013716  0.86977311  1  0.002576  0  0.08202  0.104904  0  1.0074  0
H  H22  1  0.84193597  0.79851720  0.86329971  1  0.033369  0  0.086426  0.111971  0  1.002381  0
H  H23  1  0.73634984  0.68162814  0.78741921  1  0.032464  0  0.085126  0.069553  0  0.997213  0
H  H24  1  0.63989527  0.74662522  0.86611377  1  0.033453  0  0.088305  0.077785  0  0.972187  0
H  H25  1  0.66230805  0.59661377  0.94409432  1  -0.001087  0  0.08905  0.085852  0  1.018229  0
H  H26  1  0.75419078  0.52895682  0.86428620  1  0.040115  0  0.089188  0.084451  0  0.978974  0
H  H27  1  0.10533557  0.32982471  0.13023248  1  0.002638  0  0.082058  0.104872  0  1.007476  0
H  H28  1  0.20236818  0.26254384  0.05144045  1  0.035001  0  0.083828  0.108516  0  1.004041  0
H  H29  1  0.15807599  0.20145205  0.13670528  1  0.032976  0  0.086396  0.111985  0  1.002373  0
H  H30  1  0.36010755  0.25336124  0.13388512  1  0.032946  0  0.088304  0.077774  0  0.972139  0
H  H31  1  0.26365048  0.31834707  0.21258195  1  0.032373  0  0.085101  0.069497  0  0.99724  0
H  H32  1  0.24578957  0.47102631  0.13573081  1  0.040048  0  0.089157  0.084436  0  0.978847  0
H  H33  1  0.33766799  0.40338170  0.05591201  1  -0.000956  0  0.088973  0.08577  0  1.018311  0
H  H34  1  0.50707671  0.14473496  0.30674386  1  0.046549  0  0.093569  0.087034  0  0.99043  0
H  H35  1  0.51147188  0.26463341  0.36063964  1  0.062944  0  0.096122  0.10109  0  1.018794  0
H  H36  1  0.38718039  0.24135235  0.31799898  1  0.036691  0  0.103862  0.11004  0  0.989425  0
H  H37  1  0.61285112  0.75863203  0.68199472  1  0.036585  0  0.103828  0.109922  0  0.98943  0
H  H38  1  0.48855057  0.73535632  0.63935337  1  0.063942  0  0.0961  0.101012  0  1.018748  0
H  H39  1  0.49295141  0.85525736  0.69325549  1  0.045924  0  0.093529  0.087062  0  0.99028  0
C  C40  1  0.47035038  0.69907542  0.50041833  1  1.569667  0  0.211697  0.604549  0  4.181549  0
C  C41  1  0.52965340  0.30091821  0.49958689  1  1.569814  0  0.211718  0.604572  0  4.182071  0
C  C42  1  0.53485544  0.18766850  0.50197645  1  0.04155  0  -0.02982  -0.142585  0  3.982471  0
C  C43  1  0.46516214  0.81232436  0.49803081  1  0.040848  0  -0.029718  -0.142506  0  3.981928  0
C  C44  1  0.39376714  0.95949267  0.43722053  1  -0.038238  0  -0.103956  -0.144221  0  4.043246  0
C  C45  1  0.60624480  0.04050556  0.56278684  1  -0.037367  0  -0.103882  -0.14411  0  4.04328  0
C  C46  1  0.39344657  0.85797995  0.44976433  1  -0.124645  0  -0.095467  -0.092628  0  4.041436  0
C  C47  1  0.60656480  0.14201458  0.55024472  1  -0.124843  0  -0.095324  -0.092531  0  4.04207  0
C  C48  1  0.53300419  0.87262201  0.53697188  1  0.509194  0  0.090986  0.192985  0  3.984893  0
C  C49  1  0.46700975  0.12737498  0.46302728  1  0.509522  0  0.091096  0.193045  0  3.985208  0
C  C50  1  0.53500571  0.97835070  0.52571866  1  0.041715  0  -0.014073  -0.005369  0  4.002894  0
C  C51  1  0.46500757  0.02164219  0.47428846  1  -0.009072  0  -0.014021  -0.005264  0  4.002601  0
C  C52  1  0.04052322  0.40602101  0.56789457  1  0.005872  0  -0.066316  -0.157687  0  3.959875  0
C  C53  1  0.95948510  0.59398129  0.43210356  1  0.006286  0  -0.066119  -0.15719  0  3.960165  0
C  C54  1  0.15633708  0.41930260  0.56257153  1  0.43785  0  0.056849  0.090175  0  3.909363  0
C  C55  1  0.84367731  0.58069954  0.43742485  1  0.437575  0  0.056693  0.089843  0  3.90941  0
C  C56  1  0.14675142  0.54342401  0.47496700  1  0.572045  0  0.085184  0.078208  0  3.839029  0
C  C57  1  0.85326604  0.45657277  0.52502896  1  0.572059  0  0.085105  0.078164  0  3.838736  0
C  C58  1  0.02712846  0.53543832  0.47587206  1  0.007163  0  0.012746  0.052053  0  4.011497  0
C  C59  1  0.97288331  0.46456456  0.52412346  1  -0.047064  0  0.012625  0.052118  0  4.011372  0
C  C60  1  0.51431088  0.48320047  0.34857871  1  1.567235  0  0.210406  0.584782  0  4.186498  0
C  C61  1  0.48566932  0.51678728  0.65142589  1  1.567641  0  0.210566  0.585276  0  4.186077  0
C  C62  1  0.52211403  0.47282374  0.26248339  1  -0.081079  0  -0.022673  -0.031153  0  3.997893  0
C  C63  1  0.47788757  0.52715732  0.73751379  1  -0.080798  0  -0.022687  -0.031517  0  3.998043  0
C  C64  1  0.42413682  0.45392210  0.22985312  1  0.006484  0  -0.088635  -0.155184  0  3.962837  0
C  C65  1  0.57584997  0.54606932  0.77015033  1  0.006162  0  -0.08847  -0.154838  0  3.962484  0
C  C66  1  0.42547296  0.44678551  0.14984514  1  -0.021534  0  -0.007492  0.071504  0  3.904963  0
C  C67  1  0.57451270  0.55319908  0.85015826  1  -0.021214  0  -0.007417  0.071669  0  3.904766  0
C  C68  1  0.52913588  0.46496323  0.10102803  1  -0.048014  0  -0.008715  0.064204  0  3.99088  0
C  C69  1  0.47085808  0.53501459  0.89897782  1  -0.04827  0  -0.008769  0.064074  0  3.99082  0
C  C70  1  0.62967770  0.47672848  0.13410922  1  -0.029054  0  -0.097666  -0.142068  0  4.014002  0
C  C71  1  0.37031778  0.52324238  0.86589460  1  -0.028635  0  -0.097698  -0.14211  0  4.013679  0
C  C72  1  0.62712554  0.48068504  0.21349534  1  -0.055323  0  -0.092313  -0.099862  0  4.018943  0
C  C73  1  0.37287110  0.51928392  0.78650205  1  -0.055438  0  -0.09225  -0.099916  0  4.018749  0
C  C74  1  0.53981813  0.47564091  0.01772992  1  -0.096734  0  -0.089661  -0.129822  0  4.00899  0
C  C75  1  0.46016808  0.52433883  0.98226819  1  0.000928  0  -0.089766  -0.129723  0  4.009283  0
C  C76  1  0.67984417  0.58747697  0.88056799  1  -0.000198  0  -0.162995  -0.195917  0  3.966237  0
C  C77  1  0.71519329  0.68910690  0.85111140  1  -0.030782  0  -0.164538  -0.087921  0  3.96636  0
C  C78  1  0.81790443  0.72588932  0.88497304  1  -0.081561  0  -0.244675  -0.352711  0  3.991392  0
C  C79  1  0.32014436  0.41251315  0.11943981  1  -5.7e-05  0  -0.162977  -0.195878  0  3.966069  0
C  C80  1  0.28480348  0.31086919  0.14889127  1  -0.030664  0  -0.164502  -0.087779  0  3.96598  0
C  C81  1  0.18209488  0.27407698  0.11503144  1  -0.081242  0  -0.244625  -0.352696  0  3.991259  0
C  C82  1  0.45522553  0.20627549  0.34624368  1  0.40564  0  -0.137058  -0.161914  0  3.911196  0
C  C83  1  0.54480203  0.79371372  0.65375451  1  0.405123  0  -0.136909  -0.16166  0  3.910406  0
N  N84  1  0.79253626  0.51229869  0.48323673  1  -1.225128  0  -0.308677  -0.169852  0  3.515552  0
N  N85  1  0.20747347  0.48769811  0.51675828  1  -1.225417  0  -0.308821  -0.170158  0  3.516279  0
O  O86  1  0.57060458  0.65178414  0.49496518  1  -1.163047  0  -0.315054  -0.550379  0  2.348899  0
O  O87  1  0.42942594  0.34820361  0.50502072  1  -1.163364  0  -0.314932  -0.550183  0  2.349853  0
O  O88  1  0.37512410  0.65826893  0.50524131  1  -1.165479  0  -0.322115  -0.548493  0  2.289372  0
O  O89  1  0.62489958  0.34172929  0.49478142  1  -1.165209  0  -0.322186  -0.548694  0  2.289052  0
O  O90  1  0.60920501  0.48437396  0.37511878  1  -1.165617  0  -0.3224  -0.551351  0  2.314922  0
O  O91  1  0.39080810  0.51558235  0.62488580  1  -1.165666  0  -0.322405  -0.551261  0  2.315376  0
O  O92  1  0.41319439  0.49003020  0.38905435  1  -1.183225  0  -0.320922  -0.555001  0  2.341343  0
O  O93  1  0.58680978  0.50998905  0.61094744  1  -1.183473  0  -0.321073  -0.555397  0  2.340543  0
O  O94  1  0.39717616  0.16498204  0.41378955  1  -1.080579  0  -0.206356  -0.189292  0  2.560074  0
O  O95  1  0.60285700  0.83501295  0.58620423  1  -1.079914  0  -0.2064  -0.18936  0  2.559087  0
