# generated using pymatgen
data_CoH12C18(SN)2
_symmetry_space_group_name_H-M   'P 1'
_cell_length_a   3.65445253
_cell_length_b   12.78385431
_cell_length_c   14.26844681
_cell_angle_alpha   90.00508271
_cell_angle_beta   89.99985717
_cell_angle_gamma   93.14462555
_symmetry_Int_Tables_number   1
_chemical_formula_structural   CoH12C18(SN)2
_chemical_formula_sum   'Co2 H24 C36 S4 N4'
_cell_volume   665.58940989
_cell_formula_units_Z   2
loop_
 _symmetry_equiv_pos_site_id
 _symmetry_equiv_pos_as_xyz
  1  'x, y, z'
loop_
 _atom_site_type_symbol
 _atom_site_label
 _atom_site_symmetry_multiplicity
 _atom_site_fract_x
 _atom_site_fract_y
 _atom_site_fract_z
 _atom_site_occupancy
 _atom_site_pbe_bader_charge
 _atom_site_pbe_bader_spin_density
 _atom_site_pbe_cm5_charge
 _atom_site_pbe_ddec_charge
 _atom_site_pbe_ddec_spin_density
 _atom_site_pbe_ddec_sum_bond_order
 _atom_site_pbe_magmom
Co  Co0  1  0.99999901  0.99999936  0.50000048  1  0.778845  0.768389  0.44999  0.261202  0.895744  3.43501  0.757
Co  Co1  1  0.99998189  0.49999876  0.99999957  1  0.779025  0.76839  0.449968  0.261018  0.89574  3.435209  0.757
H  H2  1  0.67798581  0.57602115  0.28696434  1  0.065939  0.000451  0.095008  0.096764  2.4e-05  1.047784  0.0
H  H3  1  0.32202062  0.92394543  0.78698676  1  0.066425  0.00045  0.095058  0.096632  2.4e-05  1.047774  0.0
H  H4  1  0.32202488  0.42398012  0.71303161  1  0.065979  0.000451  0.094999  0.096715  2.4e-05  1.047714  0.0
H  H5  1  0.67797334  0.07605428  0.21301550  1  0.066404  0.00045  0.09506  0.096612  2.4e-05  1.047752  0.0
H  H6  1  0.27690934  0.67163055  0.55681627  1  0.062709  0.000135  0.096445  0.103362  -0.000142  1.026042  0.0
H  H7  1  0.72311930  0.82837693  0.05682335  1  0.06298  0.000136  0.09644  0.103292  -0.000141  1.02608  0.0
H  H8  1  0.72309800  0.32836759  0.44318249  1  0.062659  0.000135  0.096446  0.103333  -0.000142  1.026002  0.0
H  H9  1  0.27686826  0.17161809  0.94317751  1  0.063289  0.000136  0.096438  0.103238  -0.000141  1.026117  0.0
H  H10  1  0.01150543  0.70969251  0.18378684  1  0.126102  0.001344  0.0928  0.097314  0.000899  1.059636  0.0
H  H11  1  0.98834205  0.79026605  0.68381804  1  0.126722  0.001344  0.09304  0.097541  0.000898  1.059493  0.0
H  H12  1  0.98851909  0.29030954  0.81621262  1  0.126052  0.001344  0.0928  0.09732  0.000899  1.059631  0.0
H  H13  1  0.01165738  0.20973366  0.31618141  1  0.126715  0.001344  0.093029  0.097515  0.000898  1.059508  0.0
H  H14  1  0.22621520  0.01896514  0.29895606  1  0.104556  0.000635  0.104543  0.079514  0.000219  1.063836  0.0
H  H15  1  0.77370314  0.48100969  0.79897170  1  0.104118  0.000635  0.104439  0.079313  0.000219  1.063915  0.0
H  H16  1  0.77378212  0.98103770  0.70104269  1  0.104394  0.000635  0.104546  0.079493  0.000219  1.063837  0.0
H  H17  1  0.22628261  0.51899002  0.20102846  1  0.104147  0.000635  0.104446  0.079329  0.000219  1.063896  0.0
H  H18  1  0.34092180  0.53460894  0.43580260  1  0.073104  0.000169  0.095144  0.090789  -4.6e-05  1.028842  0.0
H  H19  1  0.65912469  0.96537620  0.93581720  1  0.073207  0.00017  0.095127  0.090792  -4.6e-05  1.028861  0.0
H  H20  1  0.65908584  0.46539077  0.56419335  1  0.073061  0.000169  0.095152  0.090794  -4.6e-05  1.028807  0.0
H  H21  1  0.34086865  0.03462038  0.06418506  1  0.07315  0.00017  0.095139  0.090778  -4.6e-05  1.028948  0.0
H  H22  1  0.25846363  0.89544529  0.16521879  1  0.034955  0.000216  0.101326  0.104799  0.000101  1.028374  0.0
H  H23  1  0.74135822  0.60451224  0.66524890  1  0.033092  0.000216  0.101375  0.104803  0.000101  1.028581  0.0
H  H24  1  0.74154736  0.10455755  0.83478276  1  0.03481  0.000216  0.101321  0.104727  0.000101  1.028445  0.0
H  H25  1  0.25864380  0.39548669  0.33474916  1  0.033134  0.000216  0.101389  0.104826  0.000101  1.028569  0.0
C  C26  1  0.59726153  0.78993696  0.48132348  1  -0.134381  0.00045  -0.010777  0.040313  -0.002869  4.010625  -0.003
C  C27  1  0.40273546  0.71006338  0.98133567  1  -0.134237  0.00045  -0.010815  0.040214  -0.002869  4.010845  -0.003
C  C28  1  0.40274885  0.21006275  0.51867528  1  -0.134665  0.000451  -0.010764  0.040279  -0.002868  4.010739  -0.003
C  C29  1  0.59725014  0.28993555  0.01866379  1  -0.134794  0.000449  -0.01078  0.040311  -0.00287  4.010945  -0.003
C  C30  1  0.81366988  0.73693114  0.32505392  1  0.000752  -0.002725  -0.005033  0.054324  -0.003431  4.010322  -0.003
C  C31  1  0.18627496  0.76304930  0.82507295  1  0.000975  -0.002723  -0.004892  0.054179  -0.003432  4.010025  -0.003
C  C32  1  0.18634689  0.26307327  0.67494553  1  0.001343  -0.002726  -0.004971  0.054228  -0.003431  4.010334  -0.003
C  C33  1  0.81371110  0.23695198  0.17492790  1  0.00094  -0.002724  -0.004921  0.054151  -0.003432  4.009927  -0.003
C  C34  1  0.79495334  0.81366321  0.39733337  1  0.409219  0.002035  0.104648  0.13675  0.000781  3.908631  0.002
C  C35  1  0.20501931  0.68632852  0.89734814  1  0.40874  0.002038  0.104531  0.13661  0.000782  3.908908  0.002
C  C36  1  0.20505735  0.18633806  0.60266539  1  0.408998  0.002037  0.104577  0.136743  0.000781  3.908611  0.002
C  C37  1  0.79496902  0.31367042  0.10264992  1  0.408743  0.002037  0.104499  0.136513  0.000781  3.908992  0.002
C  C38  1  0.65399503  0.63507566  0.34132011  1  -0.059284  0.036234  -0.102678  -0.152268  0.019946  3.990782  0.021
C  C39  1  0.34598879  0.86490117  0.84134009  1  -0.059305  0.036234  -0.102715  -0.151819  0.019945  3.990424  0.021
C  C40  1  0.34602433  0.36492796  0.65867514  1  -0.059891  0.036231  -0.102696  -0.152187  0.019943  3.990948  0.021
C  C41  1  0.65400486  0.13509698  0.15866077  1  -0.059312  0.036233  -0.102693  -0.151767  0.019945  3.990285  0.021
C  C42  1  0.43574968  0.68943615  0.49362858  1  -0.047703  0.029784  -0.100144  -0.134433  0.016221  3.981459  0.018
C  C43  1  0.56426345  0.81056462  0.99364151  1  -0.048602  0.02979  -0.100067  -0.134076  0.016223  3.981301  0.018
C  C44  1  0.56426085  0.31056434  0.50637017  1  -0.047771  0.029786  -0.100139  -0.134412  0.016222  3.981368  0.018
C  C45  1  0.43572168  0.18943196  0.00635865  1  -0.048501  0.029789  -0.100051  -0.134053  0.016223  3.981416  0.018
C  C46  1  0.98955629  0.76670547  0.24012646  1  -0.085285  0.003778  -0.073736  -0.081629  0.001866  3.937012  0.003
C  C47  1  0.01034241  0.73326560  0.74015012  1  -0.084589  0.003779  -0.074056  -0.081816  0.001867  3.936753  0.003
C  C48  1  0.01046245  0.23329501  0.75987300  1  -0.085489  0.003776  -0.073779  -0.081614  0.001865  3.93693  0.003
C  C49  1  0.98965413  0.26673333  0.25984864  1  -0.084555  0.003774  -0.074026  -0.081733  0.001864  3.936777  0.003
C  C50  1  0.10911124  0.93914879  0.30517301  1  0.458653  0.003474  0.034046  0.070669  0.001862  3.916724  0.002
C  C51  1  0.89079964  0.56082830  0.80518920  1  0.459713  0.003475  0.034125  0.070895  0.001862  3.916452  0.002
C  C52  1  0.89089397  0.06085248  0.69482645  1  0.458874  0.003471  0.033999  0.070573  0.001861  3.91669  0.002
C  C53  1  0.10918901  0.43917220  0.19481096  1  0.459725  0.003471  0.034088  0.070729  0.00186  3.916455  0.002
C  C54  1  0.46998308  0.61242184  0.42422481  1  -0.023751  -0.003279  -0.097385  -0.079534  -0.004132  4.059269  -0.004
C  C55  1  0.53003114  0.88756520  0.92423901  1  -0.023472  -0.003282  -0.097499  -0.079939  -0.004132  4.059753  -0.004
C  C56  1  0.53002457  0.38757787  0.57577255  1  -0.023508  -0.003279  -0.097377  -0.079477  -0.004131  4.059371  -0.004
C  C57  1  0.46995978  0.11243295  0.07576185  1  -0.023488  -0.003282  -0.097528  -0.079951  -0.004132  4.059858  -0.004
C  C58  1  0.12602918  0.86887181  0.23001154  1  0.025427  -0.001584  -0.097389  -0.14196  -0.001754  4.020633  -0.001
C  C59  1  0.87383624  0.63109800  0.73003158  1  0.025805  -0.001585  -0.097414  -0.141973  -0.001754  4.020788  -0.001
C  C60  1  0.87398197  0.13113182  0.76998722  1  0.025614  -0.001584  -0.097342  -0.141826  -0.001754  4.020602  -0.001
C  C61  1  0.12615467  0.36890015  0.26996858  1  0.025808  -0.001585  -0.097377  -0.141897  -0.001754  4.02076  -0.001
S  S62  1  0.55535940  0.89280757  0.55926091  1  -0.206508  0.047656  -0.124342  -0.23114  0.02621  2.963523  0.034
S  S63  1  0.44462803  0.60720221  0.05926151  1  -0.206772  0.047654  -0.124281  -0.231038  0.026206  2.963769  0.034
S  S64  1  0.44464793  0.10719057  0.44073995  1  -0.20647  0.047659  -0.124315  -0.231133  0.02621  2.963579  0.034
S  S65  1  0.55535179  0.39279516  0.94073585  1  -0.206469  0.047653  -0.124314  -0.231085  0.026208  2.963823  0.034
N  N66  1  0.95833790  0.91319873  0.38836282  1  -1.193822  -0.002967  -0.337496  -0.184205  -0.003623  3.625969  -0.002
N  N67  1  0.04163112  0.58679090  0.88837279  1  -1.194379  -0.002969  -0.337365  -0.184147  -0.003624  3.62582  -0.002
N  N68  1  0.04166685  0.08680019  0.61163593  1  -1.193578  -0.002968  -0.337473  -0.184158  -0.003623  3.625863  -0.002
N  N69  1  0.95835463  0.41320882  0.11162666  1  -1.194317  -0.00297  -0.337354  -0.184028  -0.003625  3.625676  -0.002
