# generated using pymatgen
data_CdH26C34I2(N5O2)2
_symmetry_space_group_name_H-M   'P 1'
_cell_length_a   8.26785814
_cell_length_b   9.34120002
_cell_length_c   11.94658902
_cell_angle_alpha   78.51458623
_cell_angle_beta   76.37720195
_cell_angle_gamma   87.48928876
_symmetry_Int_Tables_number   1
_chemical_formula_structural   CdH26C34I2(N5O2)2
_chemical_formula_sum   'Cd1 H26 C34 I2 N10 O4'
_cell_volume   878.73819904
_cell_formula_units_Z   1
loop_
 _symmetry_equiv_pos_site_id
 _symmetry_equiv_pos_as_xyz
  1  'x, y, z'
loop_
 _atom_site_type_symbol
 _atom_site_label
 _atom_site_symmetry_multiplicity
 _atom_site_fract_x
 _atom_site_fract_y
 _atom_site_fract_z
 _atom_site_occupancy
 _atom_site_hle17_bader_spin_density
 _atom_site_hle17_ddec_charge
 _atom_site_hle17_ddec_spin_density
 _atom_site_hle17_ddec_sum_bond_order
 _atom_site_hle17_magmom
 _atom_site_hse06_10hf_bader_spin_density
 _atom_site_hse06_10hf_ddec_charge
 _atom_site_hse06_10hf_ddec_spin_density
 _atom_site_hse06_10hf_ddec_sum_bond_order
 _atom_site_hse06_10hf_magmom
 _atom_site_hse06_bader_spin_density
 _atom_site_hse06_ddec_charge
 _atom_site_hse06_ddec_spin_density
 _atom_site_hse06_ddec_sum_bond_order
 _atom_site_hse06_magmom
 _atom_site_pbe_bader_spin_density
 _atom_site_pbe_cm5_charge
 _atom_site_pbe_ddec_charge
 _atom_site_pbe_ddec_spin_density
 _atom_site_pbe_ddec_sum_bond_order
 _atom_site_pbe_magmom
Cd  Cd0  1  0.49999535  0.49999992  0.00000247  1  0  0.8065  0  1.949563  0  0  0.620688  0  2.382906  0  0  0.67224  0  2.35056  0  0  0.576206  0.582738  0  2.408561  0
H  H1  1  0.19061949  0.79001428  0.63155847  1  0  0.295804  0  0.891211  0  0  0.279925  0  0.951307  0  0  0.287969  0  0.944387  0  0  0.319938  0.274191  0  0.956296  0
H  H2  1  0.80937571  0.20999011  0.36844281  1  0  0.295906  0  0.891168  0  0  0.279979  0  0.951304  0  0  0.288032  0  0.944376  0  0  0.31994  0.274245  0  0.95629  0
H  H3  1  0.94221338  0.69181631  0.57926762  1  0  0.286542  0  0.907647  0  0  0.267198  0  0.975215  0  0  0.275328  0  0.968449  0  0  0.314869  0.261259  0  0.980454  0
H  H4  1  0.05778679  0.30818698  0.42073304  1  0  0.286511  0  0.90762  0  0  0.267164  0  0.975201  0  0  0.275294  0  0.968435  0  0  0.314865  0.261215  0  0.980439  0
H  H5  1  0.32918409  0.64116618  0.77767445  1  0  0.093291  0  0.932016  0  0  0.100959  0  0.996118  0  0  0.103774  0  0.994224  0  0  0.11613  0.098879  0  0.997605  0
H  H6  1  0.67080361  0.35883166  0.22232910  1  0  0.093273  0  0.932053  0  0  0.100914  0  0.996187  0  0  0.103736  0  0.994287  0  0  0.116086  0.098838  0  0.997672  0
H  H7  1  0.25147622  0.10627296  0.75570699  1  0  0.123291  0  0.94392  0  0  0.131574  0  1.005807  0  0  0.134816  0  1.003515  0  0  0.114929  0.129283  0  1.007301  0
H  H8  1  0.74852769  0.89372810  0.24429093  1  0  0.123277  0  0.943874  0  0  0.131565  0  1.005757  0  0  0.134807  0  1.003465  0  0  0.114932  0.129278  0  1.007249  0
H  H9  1  0.32340661  0.07754203  0.95024258  1  0  0.087957  0  1.011375  0  0  0.094649  0  1.081177  0  0  0.098076  0  1.07963  0  0  0.08712  0.090699  0  1.085373  0
H  H10  1  0.67659730  0.92246125  0.04975749  1  0  0.087925  0  1.011408  0  0  0.094616  0  1.081218  0  0  0.098042  0  1.079671  0  0  0.08712  0.090666  0  1.085406  0
H  H11  1  0.41341291  0.82955098  0.04436271  1  0  0.071195  0  0.960062  0  0  0.0766  0  1.033274  0  0  0.078607  0  1.032279  0  0  0.107431  0.075641  0  1.03309  0
H  H12  1  0.58657731  0.17045120  0.95563805  1  0  0.071178  0  0.960013  0  0  0.076609  0  1.033215  0  0  0.078623  0  1.032203  0  0  0.107409  0.075652  0  1.033031  0
H  H13  1  0.35246457  0.12962020  0.31740584  1  0  0.112574  0  0.951659  0  0  0.118225  0  1.018736  0  0  0.121557  0  1.017822  0  0  0.107966  0.116168  0  1.018859  0
H  H14  1  0.64753438  0.87037972  0.68258971  1  0  0.112536  0  0.95168  0  0  0.118185  0  1.018765  0  0  0.121517  0  1.01785  0  0  0.107956  0.116128  0  1.018886  0
H  H15  1  0.25205368  0.06111377  0.15247995  1  0  0.089196  0  0.995624  0  0  0.097009  0  1.061045  0  0  0.100293  0  1.058826  0  0  0.090415  0.094718  0  1.062549  0
H  H16  1  0.74794524  0.93888179  0.84751716  1  0  0.089131  0  0.995663  0  0  0.096943  0  1.061081  0  0  0.100226  0  1.058864  0  0  0.090389  0.094656  0  1.062578  0
H  H17  1  0.06068811  0.84092479  0.19814923  1  0  0.121796  0  0.926949  0  0  0.131315  0  0.984527  0  0  0.135487  0  0.981911  0  0  0.115962  0.128122  0  0.98693  0
H  H18  1  0.93931702  0.15906970  0.80184874  1  0  0.1218  0  0.926971  0  0  0.13133  0  0.984536  0  0  0.135503  0  0.981919  0  0  0.115974  0.128163  0  0.986916  0
H  H19  1  0.78316459  0.59928757  0.76315771  1  0  0.076372  0  0.997731  0  0  0.081495  0  1.071289  0  0  0.085382  0  1.067719  0  0  0.092116  0.079067  0  1.072984  0
H  H20  1  0.21683311  0.40071680  0.23684233  1  0  0.076339  0  0.997771  0  0  0.081472  0  1.071321  0  0  0.085356  0  1.067754  0  0  0.092112  0.07905  0  1.073005  0
H  H21  1  0.40512856  0.30209057  0.81163070  1  0  0.069394  0  0.999181  0  0  0.075755  0  1.070799  0  0  0.078514  0  1.068655  0  0  0.09422  0.074073  0  1.071957  0
H  H22  1  0.59487035  0.69791275  0.18837183  1  0  0.069388  0  0.999124  0  0  0.075741  0  1.07076  0  0  0.0785  0  1.068616  0  0  0.094195  0.074062  0  1.071915  0
H  H23  1  0.47542889  0.28744518  0.59805848  1  0  0.120867  0  0.95578  0  0  0.128449  0  1.017574  0  0  0.131924  0  1.01612  0  0  0.107085  0.125991  0  1.018568  0
H  H24  1  0.52457248  0.71255268  0.40194539  1  0  0.120772  0  0.955885  0  0  0.128408  0  1.017616  0  0  0.131843  0  1.016215  0  0  0.107096  0.125955  0  1.018605  0
H  H25  1  0.70226806  0.45196093  0.45964130  1  0  0.113357  0  0.956961  0  0  0.122361  0  1.017969  0  0  0.126423  0  1.014561  0  0  0.107495  0.119319  0  1.020758  0
H  H26  1  0.29773579  0.54803254  0.54036123  1  0  0.113382  0  0.956918  0  0  0.122408  0  1.017911  0  0  0.126467  0  1.014499  0  0  0.107521  0.11937  0  1.020691  0
C  C27  1  0.33064477  0.74097503  0.81208581  1  0  0.037229  0  3.668765  0  0  -0.000193  0  3.924777  0  0  0.004924  0  3.940358  0  0  0.044677  -0.00332  0  3.914772  0
C  C28  1  0.66935290  0.25902719  0.18791626  1  0  0.037149  0  3.668835  0  0  -0.000256  0  3.924901  0  0  0.004856  0  3.940478  0  0  0.044656  -0.003386  0  3.914898  0
C  C29  1  0.28750827  0.87593428  0.75059631  1  0  0.2064  0  3.797967  0  0  0.204341  0  4.047717  0  0  0.208344  0  4.068829  0  0  0.101653  0.201279  0  4.03316  0
C  C30  1  0.71249316  0.12407006  0.24940146  1  0  0.206538  0  3.797885  0  0  0.204399  0  4.047708  0  0  0.208412  0  4.068817  0  0  0.101666  0.201335  0  4.033156  0
C  C31  1  0.28642892  0.00005076  0.79996041  1  0  -0.094934  0  3.666057  0  0  -0.119993  0  3.911517  0  0  -0.119311  0  3.929571  0  0  -0.068203  -0.119615  0  3.899196  0
C  C32  1  0.71357625  0.99995247  0.20003611  1  0  -0.094958  0  3.666045  0  0  -0.120008  0  3.911556  0  0  -0.119326  0  3.929606  0  0  -0.068221  -0.119631  0  3.899237  0
C  C33  1  0.32879078  0.98340792  0.90793388  1  0  -0.108018  0  3.752172  0  0  -0.114685  0  3.993638  0  0  -0.121254  0  4.01639  0  0  -0.088601  -0.110693  0  3.980882  0
C  C34  1  0.67121188  0.01659424  0.09206489  1  0  -0.107901  0  3.752133  0  0  -0.114563  0  3.993589  0  0  -0.121135  0  4.016351  0  0  -0.088599  -0.110572  0  3.980838  0
C  C35  1  0.37512701  0.84633793  0.96136629  1  0  0.104195  0  3.717646  0  0  0.0744  0  3.966616  0  0  0.079563  0  3.986745  0  0  0.034652  0.07061  0  3.953038  0
C  C36  1  0.62487316  0.15366427  0.03863455  1  0  0.104087  0  3.717546  0  0  0.074266  0  3.966515  0  0  0.079427  0  3.986647  0  0  0.034679  0.070471  0  3.95294  0
C  C37  1  0.27904347  0.98896417  0.54580852  1  0  0.520166  0  3.828517  0  0  0.472129  0  4.120388  0  0  0.500657  0  4.119186  0  0  0.243878  0.453001  0  4.120638  0
C  C38  1  0.72095792  0.01103585  0.45419332  1  0  0.520149  0  3.828571  0  0  0.472101  0  4.120464  0  0  0.500622  0  4.119289  0  0  0.243838  0.45297  0  4.120719  0
C  C39  1  0.21737445  0.95398073  0.44537886  1  0  0.112555  0  3.767886  0  0  0.115509  0  4.020157  0  0  0.116681  0  4.03796  0  0  0.115754  0.114169  0  4.008552  0
C  C40  1  0.78262450  0.04602140  0.55461800  1  0  0.112471  0  3.767932  0  0  0.115342  0  4.020331  0  0  0.11652  0  4.038132  0  0  0.115677  0.113999  0  4.008733  0
C  C41  1  0.26959533  0.03693106  0.33228746  1  0  -0.091753  0  3.662868  0  0  -0.117519  0  3.914542  0  0  -0.120066  0  3.93313  0  0  -0.071121  -0.116455  0  3.902164  0
C  C42  1  0.73040487  0.96306995  0.66770771  1  0  -0.091677  0  3.662787  0  0  -0.117429  0  3.914464  0  0  -0.119975  0  3.93305  0  0  -0.071085  -0.116364  0  3.90209  0
C  C43  1  0.21445092  0.99667066  0.24118889  1  0  -0.007931  0  3.704055  0  0  -0.022045  0  3.953042  0  0  -0.021159  0  3.971373  0  0  -0.067631  -0.02221  0  3.940115  0
C  C44  1  0.78554803  0.00333038  0.75880816  1  0  -0.007892  0  3.703989  0  0  -0.021969  0  3.952929  0  0  -0.021084  0  3.97126  0  0  -0.067625  -0.022138  0  3.940008  0
C  C45  1  0.10683566  0.87764902  0.26599413  1  0  -0.090588  0  3.65462  0  0  -0.114804  0  3.900015  0  0  -0.117435  0  3.918712  0  0  -0.065999  -0.113274  0  3.887799  0
C  C46  1  0.89316574  0.12234878  0.73400556  1  0  -0.090586  0  3.654649  0  0  -0.114832  0  3.900041  0  0  -0.117459  0  3.918736  0  0  -0.066016  -0.113326  0  3.887813  0
C  C47  1  0.05569195  0.80499559  0.38261042  1  0  0.106776  0  3.774787  0  0  0.110826  0  4.023503  0  0  0.111186  0  4.043859  0  0  0.115319  0.110091  0  4.010224  0
C  C48  1  0.94430944  0.19500332  0.61739076  1  0  0.106732  0  3.774826  0  0  0.110808  0  4.023527  0  0  0.111171  0  4.043896  0  0  0.115314  0.11006  0  4.010246  0
C  C49  1  0.92989230  0.68274653  0.41578781  1  0  0.505856  0  3.853463  0  0  0.459794  0  4.143744  0  0  0.487664  0  4.144187  0  0  0.240218  0.441316  0  4.142662  0
C  C50  1  0.07011656  0.31724576  0.58420909  1  0  0.505749  0  3.853542  0  0  0.459665  0  4.143842  0  0  0.48751  0  4.144339  0  0  0.240204  0.441224  0  4.142682  0
C  C51  1  0.75821079  0.53920149  0.60045022  1  0  0.212553  0  3.794233  0  0  0.211744  0  4.038913  0  0  0.216418  0  4.061066  0  0  0.101713  0.207836  0  4.024021  0
C  C52  1  0.24179185  0.46079632  0.39955011  1  0  0.212509  0  3.794238  0  0  0.2117  0  4.038938  0  0  0.216373  0  4.061093  0  0  0.101727  0.20779  0  4.024032  0
C  C53  1  0.71605324  0.53340528  0.72223360  1  0  0.023553  0  3.686827  0  0  -0.009538  0  3.934855  0  0  -0.00666  0  3.952957  0  0  0.035472  -0.010842  0  3.921086  0
C  C54  1  0.28394568  0.46659801  0.27776725  1  0  0.02359  0  3.686923  0  0  -0.009503  0  3.934957  0  0  -0.006628  0  3.953069  0  0  0.035479  -0.010815  0  3.92119  0
C  C55  1  0.50847002  0.36410841  0.74956679  1  0  0.091685  0  3.728711  0  0  0.059903  0  3.983279  0  0  0.064603  0  4.002623  0  0  0.025738  0.057085  0  3.969398  0
C  C56  1  0.49152889  0.63589381  0.25043508  1  0  0.0917  0  3.728691  0  0  0.059923  0  3.983276  0  0  0.064627  0  4.002608  0  0  0.025734  0.057111  0  3.969397  0
C  C57  1  0.54593482  0.35960232  0.63040275  1  0  -0.101655  0  3.742433  0  0  -0.11267  0  3.99623  0  0  -0.117973  0  4.01863  0  0  -0.086768  -0.109292  0  3.981057  0
C  C58  1  0.45406532  0.64039663  0.36960031  1  0  -0.101577  0  3.742459  0  0  -0.112626  0  3.996259  0  0  -0.117899  0  4.018664  0  0  -0.086775  -0.109261  0  3.981098  0
C  C59  1  0.67153483  0.44906799  0.55363850  1  0  -0.105273  0  3.684775  0  0  -0.131668  0  3.937194  0  0  -0.132315  0  3.955316  0  0  -0.078191  -0.13107  0  3.925506  0
C  C60  1  0.32847028  0.55092984  0.44636311  1  0  -0.105293  0  3.684724  0  0  -0.131735  0  3.937208  0  0  -0.13237  0  3.955309  0  0  -0.078232  -0.131138  0  3.925517  0
I  I61  1  0.80915195  0.65409031  0.97614272  1  0  -0.524507  0  0.952787  0  0  -0.482151  0  1.235427  0  0  -0.500792  0  1.215408  0  0  -0.27392  -0.46863  0  1.251643  0
I  I62  1  0.19084076  0.34591297  0.02385829  1  0  -0.524492  0  0.9528  0  0  -0.48214  0  1.235446  0  0  -0.50078  0  1.215426  0  0  -0.273916  -0.468618  0  1.251669  0
N  N63  1  0.37616431  0.72737853  0.91383441  1  0  -0.290252  0  3.289388  0  0  -0.215699  0  3.548553  0  0  -0.23344  0  3.570334  0  0  -0.321837  -0.203428  0  3.535609  0
N  N64  1  0.62382962  0.27262151  0.08616862  1  0  -0.290134  0  3.289425  0  0  -0.215552  0  3.54854  0  0  -0.233293  0  3.570324  0  0  -0.321798  -0.203274  0  3.535586  0
N  N65  1  0.24508439  0.88004638  0.64329584  1  0  -0.436809  0  3.380138  0  0  -0.384825  0  3.62063  0  0  -0.406675  0  3.630131  0  0  -0.395526  -0.369891  0  3.613882  0
N  N66  1  0.75492199  0.11995361  0.35670353  1  0  -0.437061  0  3.380148  0  0  -0.384967  0  3.62062  0  0  -0.40684  0  3.630145  0  0  -0.395492  -0.370026  0  3.61387  0
N  N67  1  0.11136204  0.84151634  0.47006292  1  0  -0.367469  0  3.18504  0  0  -0.335893  0  3.442452  0  0  -0.346025  0  3.459715  0  0  -0.309931  -0.328255  0  3.430976  0
N  N68  1  0.88863688  0.15848364  0.52993681  1  0  -0.367389  0  3.184999  0  0  -0.335792  0  3.442438  0  0  -0.345925  0  3.459698  0  0  -0.309897  -0.32815  0  3.430963  0
N  N69  1  0.88431808  0.63548695  0.53463364  1  0  -0.423314  0  3.416792  0  0  -0.37349  0  3.658565  0  0  -0.39554  0  3.669163  0  0  -0.396648  -0.357825  0  3.651077  0
N  N70  1  0.11568827  0.36450870  0.46536813  1  0  -0.423186  0  3.416897  0  0  -0.373313  0  3.658583  0  0  -0.395342  0  3.669163  0  0  -0.396609  -0.357671  0  3.651128  0
N  N71  1  0.59298107  0.44969801  0.79471606  1  0  -0.306648  0  3.279781  0  0  -0.230249  0  3.534818  0  0  -0.248177  0  3.558276  0  0  -0.324688  -0.217167  0  3.517976  0
N  N72  1  0.40701414  0.55030745  0.20528419  1  0  -0.30659  0  3.279762  0  0  -0.230175  0  3.534737  0  0  -0.248103  0  3.558197  0  0  -0.324629  -0.217092  0  3.517899  0
O  O73  1  0.35252360  0.10435007  0.53788837  1  0  -0.521754  0  1.934063  0  0  -0.481514  0  2.156401  0  0  -0.501341  0  2.152221  0  0  -0.284955  -0.467869  0  2.158853  0
O  O74  1  0.64747660  0.89565536  0.46210942  1  0  -0.521642  0  1.934057  0  0  -0.481408  0  2.156422  0  0  -0.50122  0  2.152242  0  0  -0.284897  -0.467765  0  2.158876  0
O  O75  1  0.87634208  0.63530461  0.34191065  1  0  -0.514949  0  1.89844  0  0  -0.477572  0  2.110274  0  0  -0.496155  0  2.104606  0  0  -0.288829  -0.464336  0  2.113245  0
O  O76  1  0.12367789  0.36468233  0.65809289  1  0  -0.514964  0  1.898212  0  0  -0.47761  0  2.110095  0  0  -0.496194  0  2.104461  0  0  -0.288883  -0.464377  0  2.113024  0
