# generated using pymatgen
data_ZnH3C5BrN4
_symmetry_space_group_name_H-M   'P 1'
_cell_length_a   7.63828756
_cell_length_b   10.07464449
_cell_length_c   10.04282172
_cell_angle_alpha   89.99999057
_cell_angle_beta   90.00004378
_cell_angle_gamma   90.00000973
_symmetry_Int_Tables_number   1
_chemical_formula_structural   ZnH3C5BrN4
_chemical_formula_sum   'Zn4 H12 C20 Br4 N16'
_cell_volume   772.82557792
_cell_formula_units_Z   4
loop_
 _symmetry_equiv_pos_site_id
 _symmetry_equiv_pos_as_xyz
  1  'x, y, z'
loop_
 _atom_site_type_symbol
 _atom_site_label
 _atom_site_symmetry_multiplicity
 _atom_site_fract_x
 _atom_site_fract_y
 _atom_site_fract_z
 _atom_site_occupancy
 _atom_site_hle17_bader_spin_density
 _atom_site_hle17_ddec_charge
 _atom_site_hle17_ddec_spin_density
 _atom_site_hle17_ddec_sum_bond_order
 _atom_site_hle17_magmom
 _atom_site_hse06_10hf_bader_spin_density
 _atom_site_hse06_10hf_ddec_charge
 _atom_site_hse06_10hf_ddec_spin_density
 _atom_site_hse06_10hf_ddec_sum_bond_order
 _atom_site_hse06_10hf_magmom
 _atom_site_hse06_bader_spin_density
 _atom_site_hse06_ddec_charge
 _atom_site_hse06_ddec_spin_density
 _atom_site_hse06_ddec_sum_bond_order
 _atom_site_hse06_magmom
 _atom_site_pbe_bader_spin_density
 _atom_site_pbe_cm5_charge
 _atom_site_pbe_ddec_charge
 _atom_site_pbe_ddec_spin_density
 _atom_site_pbe_ddec_sum_bond_order
 _atom_site_pbe_magmom
Zn  Zn0  1  0.11968022  0.52990254  0.38838685  1  0  0.843406  0  2.070368  0  0  0.656535  0  2.551891  0  0  0.696924  0  2.508759  0  0  0.617111  0.628438  0  2.582106  0
Zn  Zn1  1  0.38032004  0.47009793  0.88838585  1  0  0.843377  0  2.070383  0  0  0.65651  0  2.551901  0  0  0.696887  0  2.508767  0  0  0.617091  0.628408  0  2.582117  0
Zn  Zn2  1  0.61967989  0.97009874  0.61161406  1  0  0.843389  0  2.070395  0  0  0.656529  0  2.551916  0  0  0.696903  0  2.50878  0  0  0.617106  0.628424  0  2.58213  0
Zn  Zn3  1  0.88032041  0.02990185  0.11161430  1  0  0.843412  0  2.070351  0  0  0.656557  0  2.551864  0  0  0.696936  0  2.508727  0  0  0.617115  0.628452  0  2.582079  0
H  H4  1  0.97927743  0.36371905  0.60762630  1  0  0.066742  0  0.933152  0  0  0.07195  0  1.004007  0  0  0.074418  0  1.000707  0  0  0.117411  0.069097  0  1.008054  0
H  H5  1  0.52072417  0.63628153  0.10762523  1  0  0.066744  0  0.933132  0  0  0.07196  0  1.003984  0  0  0.074422  0  1.000689  0  0  0.117417  0.069104  0  1.008028  0
H  H6  1  0.47927649  0.13628074  0.39237491  1  0  0.066744  0  0.933146  0  0  0.071951  0  1.004006  0  0  0.074421  0  1.000703  0  0  0.117427  0.0691  0  1.008051  0
H  H7  1  0.02072378  0.86371874  0.89237364  1  0  0.06672  0  0.933149  0  0  0.071934  0  1.004004  0  0  0.074397  0  1.000707  0  0  0.117403  0.069079  0  1.008047  0
H  H8  1  0.93589598  0.76757053  0.51702621  1  0  0.092705  0  0.954761  0  0  0.097947  0  1.02357  0  0  0.100583  0  1.021367  0  0  0.114717  0.095486  0  1.026156  0
H  H9  1  0.56410422  0.23242908  0.01702624  1  0  0.09272  0  0.954784  0  0  0.097973  0  1.023587  0  0  0.100611  0  1.021384  0  0  0.114725  0.095515  0  1.026175  0
H  H10  1  0.43589515  0.73242881  0.48297389  1  0  0.092716  0  0.954772  0  0  0.097967  0  1.02358  0  0  0.100605  0  1.021377  0  0  0.114719  0.095507  0  1.026166  0
H  H11  1  0.06410521  0.26757066  0.98297373  1  0  0.092718  0  0.954784  0  0  0.097964  0  1.023584  0  0  0.100601  0  1.021381  0  0  0.114727  0.095505  0  1.026171  0
H  H12  1  0.39228868  0.77749340  0.80624955  1  0  0.081842  0  0.993334  0  0  0.083706  0  1.067894  0  0  0.086905  0  1.063841  0  0  0.122718  0.081517  0  1.070518  0
H  H13  1  0.10771149  0.22250610  0.30624960  1  0  0.081827  0  0.993332  0  0  0.083688  0  1.067895  0  0  0.086889  0  1.063841  0  0  0.122719  0.0815  0  1.070521  0
H  H14  1  0.89228918  0.72250593  0.19374953  1  0  0.081839  0  0.993335  0  0  0.083704  0  1.067895  0  0  0.0869  0  1.063848  0  0  0.122725  0.081514  0  1.07052  0
H  H15  1  0.60771120  0.27749364  0.69374940  1  0  0.081831  0  0.993338  0  0  0.083698  0  1.067892  0  0  0.086899  0  1.063837  0  0  0.122721  0.08151  0  1.070519  0
C  C16  1  0.68882890  0.56887862  0.71928804  1  0  0.348793  0  3.812768  0  0  0.319369  0  4.075297  0  0  0.334427  0  4.091373  0  0  0.225038  0.309524  0  4.064229  0
C  C17  1  0.81117020  0.43111996  0.21928718  1  0  0.348836  0  3.812709  0  0  0.31939  0  4.075227  0  0  0.334448  0  4.091304  0  0  0.225048  0.309545  0  4.06416  0
C  C18  1  0.18882922  0.93112168  0.28071192  1  0  0.348801  0  3.812698  0  0  0.319364  0  4.075196  0  0  0.334423  0  4.091269  0  0  0.225028  0.30952  0  4.064127  0
C  C19  1  0.31117093  0.06887981  0.78071294  1  0  0.348811  0  3.812741  0  0  0.319336  0  4.075267  0  0  0.334394  0  4.091343  0  0  0.225014  0.309492  0  4.064199  0
C  C20  1  0.90852992  0.45643001  0.62433472  1  0  0.288424  0  3.718331  0  0  0.232446  0  4.000874  0  0  0.247485  0  4.012657  0  0  0.16768  0.22311  0  3.992703  0
C  C21  1  0.59147039  0.54356958  0.12433470  1  0  0.288411  0  3.718342  0  0  0.232425  0  4.000882  0  0  0.247469  0  4.012664  0  0  0.167665  0.223093  0  3.992701  0
C  C22  1  0.40853024  0.04356977  0.37566545  1  0  0.288373  0  3.718406  0  0  0.23239  0  4.000955  0  0  0.247428  0  4.012736  0  0  0.167624  0.223053  0  3.992783  0
C  C23  1  0.09147000  0.95643071  0.87566520  1  0  0.288448  0  3.718328  0  0  0.232458  0  4.000865  0  0  0.247504  0  4.012646  0  0  0.167685  0.223127  0  3.992682  0
C  C24  1  0.88700415  0.68234270  0.57278344  1  0  0.107974  0  3.656853  0  0  0.072121  0  3.899174  0  0  0.081396  0  3.914837  0  0  0.061684  0.066292  0  3.889057  0
C  C25  1  0.61299349  0.31765690  0.07278149  1  0  0.107973  0  3.65675  0  0  0.072054  0  3.899097  0  0  0.081328  0  3.914761  0  0  0.061652  0.066222  0  3.888989  0
C  C26  1  0.38700459  0.81765663  0.42721663  1  0  0.107974  0  3.656828  0  0  0.072057  0  3.899182  0  0  0.081331  0  3.914847  0  0  0.061632  0.066225  0  3.889066  0
C  C27  1  0.11299440  0.18234383  0.92721851  1  0  0.108014  0  3.656727  0  0  0.072109  0  3.899033  0  0  0.081385  0  3.914694  0  0  0.061676  0.066279  0  3.888921  0
C  C28  1  0.74434657  0.68858707  0.65740703  1  0  0.058849  0  3.839335  0  0  0.062664  0  4.077756  0  0  0.059218  0  4.102805  0  0  0.090513  0.064067  0  4.061291  0
C  C29  1  0.75565378  0.31141152  0.15740815  1  0  0.058806  0  3.839235  0  0  0.062702  0  4.077588  0  0  0.059259  0  4.10263  0  0  0.090524  0.064105  0  4.061131  0
C  C30  1  0.24434561  0.81141224  0.34259197  1  0  0.058764  0  3.8394  0  0  0.062656  0  4.07775  0  0  0.059213  0  4.102792  0  0  0.090516  0.064059  0  4.061286  0
C  C31  1  0.25565461  0.18858923  0.84259293  1  0  0.05877  0  3.839322  0  0  0.062705  0  4.077612  0  0  0.059263  0  4.102654  0  0  0.09053  0.064107  0  4.061154  0
C  C32  1  0.50679338  0.72591144  0.76764888  1  0  0.289136  0  3.656494  0  0  0.229475  0  3.927896  0  0  0.247339  0  3.937914  0  0  0.158433  0.217546  0  3.920653  0
C  C33  1  0.99320708  0.27408813  0.26764815  1  0  0.289144  0  3.656479  0  0  0.229483  0  3.927892  0  0  0.247343  0  3.937911  0  0  0.158416  0.217554  0  3.920654  0
C  C34  1  0.00679230  0.77408883  0.23235097  1  0  0.289148  0  3.656534  0  0  0.229475  0  3.927944  0  0  0.247339  0  3.937961  0  0  0.158422  0.217546  0  3.920701  0
C  C35  1  0.49320780  0.22591167  0.73235107  1  0  0.289159  0  3.656433  0  0  0.229492  0  3.927849  0  0  0.247354  0  3.937866  0  0  0.15843  0.217562  0  3.920613  0
Br  Br36  1  0.39057604  0.43194277  0.44393009  1  0  -0.535932  0  0.878135  0  0  -0.473599  0  1.152754  0  0  -0.490795  0  1.131422  0  0  -0.304379  -0.460535  0  1.168471  0
Br  Br37  1  0.10942428  0.56805670  0.94392991  1  0  -0.535927  0  0.878144  0  0  -0.473587  0  1.152753  0  0  -0.490779  0  1.131417  0  0  -0.304372  -0.460523  0  1.168469  0
Br  Br38  1  0.89057556  0.06805700  0.55607007  1  0  -0.535921  0  0.878142  0  0  -0.473586  0  1.152757  0  0  -0.49078  0  1.131423  0  0  -0.304369  -0.46052  0  1.168473  0
Br  Br39  1  0.60942469  0.93194359  0.05607000  1  0  -0.535935  0  0.878119  0  0  -0.473614  0  1.152743  0  0  -0.490806  0  1.131403  0  0  -0.304392  -0.460548  0  1.168459  0
N  N40  1  0.77164195  0.45272465  0.70595218  1  0  -0.381744  0  3.046033  0  0  -0.340738  0  3.316373  0  0  -0.356655  0  3.327399  0  0  -0.308138  -0.330021  0  3.307871  0
N  N41  1  0.72835845  0.54727492  0.20595224  1  0  -0.381727  0  3.046012  0  0  -0.340722  0  3.31636  0  0  -0.356638  0  3.327382  0  0  -0.308127  -0.330004  0  3.30785  0
N  N42  1  0.27164219  0.04727610  0.29404791  1  0  -0.381709  0  3.04599  0  0  -0.340699  0  3.316322  0  0  -0.356617  0  3.327348  0  0  -0.308118  -0.329982  0  3.307819  0
N  N43  1  0.22835928  0.95272439  0.79404774  1  0  -0.381748  0  3.045964  0  0  -0.340731  0  3.316306  0  0  -0.356649  0  3.327329  0  0  -0.308125  -0.330013  0  3.307797  0
N  N44  1  0.62669195  0.78722081  0.69068548  1  0  -0.423547  0  3.249609  0  0  -0.342854  0  3.540472  0  0  -0.365297  0  3.553048  0  0  -0.363151  -0.327181  0  3.531575  0
N  N45  1  0.87330843  0.21277876  0.19068469  1  0  -0.423546  0  3.249635  0  0  -0.342873  0  3.540483  0  0  -0.365318  0  3.553059  0  0  -0.363157  -0.327202  0  3.531591  0
N  N46  1  0.12669225  0.71277948  0.30931444  1  0  -0.42353  0  3.249706  0  0  -0.342855  0  3.540548  0  0  -0.365304  0  3.553132  0  0  -0.363168  -0.327185  0  3.531652  0
N  N47  1  0.37330793  0.28722101  0.80931446  1  0  -0.423534  0  3.249675  0  0  -0.342871  0  3.540506  0  0  -0.365319  0  3.553089  0  0  -0.363158  -0.327198  0  3.531614  0
N  N48  1  0.53760002  0.59511377  0.78795395  1  0  -0.462088  0  3.205457  0  0  -0.378823  0  3.498656  0  0  -0.403525  0  3.507642  0  0  -0.360684  -0.362032  0  3.492224  0
N  N49  1  0.96239915  0.40488579  0.28795418  1  0  -0.462136  0  3.205435  0  0  -0.37887  0  3.498642  0  0  -0.403577  0  3.507632  0  0  -0.360704  -0.362078  0  3.492212  0
N  N50  1  0.03760026  0.90488551  0.21204592  1  0  -0.462099  0  3.205406  0  0  -0.378821  0  3.498594  0  0  -0.403524  0  3.507576  0  0  -0.36068  -0.36203  0  3.49216  0
N  N51  1  0.46239982  0.09511400  0.71204602  1  0  -0.462089  0  3.205451  0  0  -0.378824  0  3.498669  0  0  -0.403526  0  3.507653  0  0  -0.360676  -0.362032  0  3.492238  0
N  N52  1  0.96629939  0.56392264  0.55572054  1  0  -0.374543  0  3.303038  0  0  -0.290188  0  3.583978  0  0  -0.312406  0  3.598965  0  0  -0.338948  -0.275297  0  3.573469  0
N  N53  1  0.53370085  0.43607795  0.05572051  1  0  -0.374522  0  3.303082  0  0  -0.290148  0  3.584037  0  0  -0.312362  0  3.599017  0  0  -0.338899  -0.275254  0  3.573525  0
N  N54  1  0.46629987  0.93607769  0.44427958  1  0  -0.374493  0  3.303089  0  0  -0.290125  0  3.584043  0  0  -0.31234  0  3.599026  0  0  -0.33887  -0.275232  0  3.573531  0
N  N55  1  0.03370175  0.06392178  0.94427944  1  0  -0.374571  0  3.303072  0  0  -0.290214  0  3.584031  0  0  -0.31243  0  3.59901  0  0  -0.338949  -0.275321  0  3.573518  0
