# generated using pymatgen
data_Zr6H27C52N2O32F5
_symmetry_space_group_name_H-M   'P 1'
_cell_length_a   14.78037768
_cell_length_b   14.78513310
_cell_length_c   14.78625808
_cell_angle_alpha   60.06480074
_cell_angle_beta   60.01230896
_cell_angle_gamma   60.03955533
_symmetry_Int_Tables_number   1
_chemical_formula_structural   Zr6H27C52N2O32F5
_chemical_formula_sum   'Zr6 H27 C52 N2 O32 F5'
_cell_volume   2286.84392463
_cell_formula_units_Z   1
loop_
 _symmetry_equiv_pos_site_id
 _symmetry_equiv_pos_as_xyz
  1  'x, y, z'
loop_
 _atom_site_type_symbol
 _atom_site_label
 _atom_site_symmetry_multiplicity
 _atom_site_fract_x
 _atom_site_fract_y
 _atom_site_fract_z
 _atom_site_occupancy
 _atom_site_pbe_bader_charge
 _atom_site_pbe_bader_spin_density
 _atom_site_pbe_cm5_charge
 _atom_site_pbe_ddec_charge
 _atom_site_pbe_ddec_spin_density
 _atom_site_pbe_ddec_sum_bond_order
 _atom_site_pbe_magmom
Zr  Zr0  1  0.87773710  0.88252914  0.62239541  1  2.632769  0  1.62703  2.371492  0  2.751886  0
Zr  Zr1  1  0.11817716  0.12003965  0.38430998  1  2.637629  0  1.631891  2.374921  0  2.762394  0
Zr  Zr2  1  0.11625165  0.88118954  0.62343192  1  2.634778  0  1.627329  2.372969  0  2.754816  0
Zr  Zr3  1  0.87837080  0.12167523  0.38340990  1  2.634831  0  1.62817  2.371546  0  2.755243  0
Zr  Zr4  1  0.11760930  0.88270757  0.38272322  1  2.636  0  1.628884  2.37556  0  2.753776  0
Zr  Zr5  1  0.87819275  0.12213771  0.62215710  1  2.630921  0  1.62784  2.375222  0  2.748817  0
H  H6  1  0.09184622  0.71943470  0.59577879  1  0.613305  0  0.330551  0.420819  0  0.864191  0
H  H7  1  0.09339012  0.09499199  0.22079427  1  0.609676  0  0.332072  0.424648  0  0.85699  0
H  H8  1  0.09156592  0.09525316  0.59866859  1  0.611095  0  0.331654  0.425167  0  0.855009  0
H  H9  1  0.71504119  0.09648712  0.59685583  1  0.598546  0  0.331624  0.422744  0  0.860395  0
H  H10  1  0.82978851  0.60955291  0.62042415  1  0.097535  0  0.114734  0.123928  0  0.983823  0
H  H11  1  0.14381892  0.59025046  0.35598111  1  0.120877  0  0.120423  0.150273  0  0.980155  0
H  H12  1  0.83565435  0.43825953  0.61711100  1  0.108258  0  0.115904  0.123329  0  0.982059  0
H  H13  1  0.58990226  0.84820584  0.92906005  1  0.120162  0  0.113223  0.123061  0  0.986507  0
H  H14  1  0.59260142  0.14117926  0.92344423  1  0.168809  0  0.119098  0.14937  0  0.98208  0
H  H15  1  0.42038280  0.85195067  0.09911515  1  0.112755  0  0.114162  0.122494  0  0.986651  0
H  H16  1  0.14373896  0.85944065  0.08366417  1  0.111372  0  0.1127  0.12308  0  0.986662  0
H  H17  1  0.82527542  0.11727504  0.11927371  1  0.113444  0  0.122396  0.150721  0  0.974244  0
H  H18  1  0.13855194  0.86300246  0.91465201  1  0.088691  0  0.114049  0.122468  0  0.98625  0
H  H19  1  0.58733427  0.42764001  0.64077748  1  0.104645  0  0.111616  0.120735  0  0.988998  0
H  H20  1  0.59190675  0.42096226  0.35044244  1  0.122417  0  0.120905  0.150863  0  0.976266  0
H  H21  1  0.41737481  0.59707206  0.63629545  1  0.11611  0  0.115548  0.124583  0  0.983252  0
H  H22  1  0.98188444  0.57492927  0.74188728  1  0.051135  0  0.091587  0.093596  0  1.059593  0
H  H23  1  0.96299670  0.41580564  0.74872324  1  0.045124  0  0.088847  0.086762  0  1.038555  0
H  H24  1  0.96275360  0.24749638  0.08394986  1  0.061954  0  0.091513  0.096309  0  1.071094  0
H  H25  1  0.95191301  0.25116159  0.92223865  1  0.023011  0  0.087514  0.084316  0  1.036854  0
H  H26  1  0.58868613  0.13607413  0.34865795  1  0.095515  0  0.111826  0.121242  0  0.988983  0
H  H27  1  0.59333766  0.84795407  0.64243786  1  0.142913  0  0.118936  0.147737  0  0.982182  0
H  H28  1  0.41911180  0.12964304  0.35435946  1  0.140417  0  0.115951  0.125377  0  0.984289  0
H  H29  1  0.07349959  0.41016310  0.22237306  1  0.497822  0  0.296248  0.30389  0  0.990033  0
H  H30  1  0.10049495  0.53062912  0.13681223  1  0.442968  0  0.300503  0.28813  0  0.967688  0
H  H31  1  0.04595094  0.73710631  0.92060753  1  0.471697  0  0.295569  0.300441  0  0.993101  0
H  H32  1  0.00562390  0.68534961  0.06205523  1  0.438303  0  0.302562  0.290074  0  0.955862  0
C  C33  1  0.99012533  0.70600531  0.49498323  1  1.576097  0  0.237549  0.634014  0  4.102598  0
C  C34  1  0.30689514  0.99868163  0.20431563  1  1.572969  0  0.237736  0.659068  0  4.099629  0
C  C35  1  0.99483887  0.31179607  0.49397468  1  1.58672  0  0.236574  0.655878  0  4.104704  0
C  C36  1  0.69886184  0.99721064  0.81112014  1  1.561031  0  0.237988  0.637491  0  4.09504  0
C  C37  1  0.99559368  0.69798250  0.80811020  1  1.504674  0  0.236641  0.662577  0  4.075095  0
C  C38  1  0.69849428  0.99778166  0.49758380  1  1.565182  0  0.238334  0.638414  0  4.09698  0
C  C39  1  0.99575939  0.30731818  0.20052183  1  1.498709  0  0.237825  0.67083  0  4.052782  0
C  C40  1  0.30581534  0.99206320  0.50315512  1  1.581625  0  0.238087  0.659972  0  4.096829  0
C  C41  1  0.30518981  0.70216903  0.49665288  1  1.551911  0  0.237296  0.658628  0  4.098108  0
C  C42  1  0.98666787  0.99601741  0.81538975  1  1.588003  0  0.235064  0.652957  0  4.107718  0
C  C43  1  0.69874205  0.31055173  0.49903643  1  1.5466  0  0.238593  0.639357  0  4.093759  0
C  C44  1  0.99195677  0.99472620  0.20549217  1  1.581009  0  0.238736  0.636126  0  4.100321  0
C  C45  1  0.99190460  0.41764822  0.48673961  1  -0.031148  0  -0.019196  -0.152217  0  3.94613  0
C  C46  1  0.98684789  0.60944116  0.48940817  1  -0.042289  0  -0.005978  0.001653  0  3.96385  0
C  C47  1  0.07667982  0.46410775  0.41217822  1  0.498031  0  0.110525  0.285077  0  4.026338  0
C  C48  1  0.89870806  0.56799370  0.56201923  1  0.056499  0  -0.081238  -0.109343  0  3.971668  0
C  C49  1  0.07545764  0.55809286  0.41294225  1  -0.005237  0  -0.090326  -0.226594  0  3.967615  0
C  C50  1  0.90202686  0.47335251  0.56018859  1  -0.029657  0  -0.0721  -0.063226  0  3.966789  0
C  C51  1  0.41042331  0.99796626  0.10603859  1  -0.00122  0  -0.019681  -0.151533  0  3.941366  0
C  C52  1  0.60071247  0.99505830  0.91505056  1  -0.015564  0  -0.008229  -0.001426  0  3.971638  0
C  C53  1  0.46183601  0.07803795  0.05507748  1  0.483494  0  0.113249  0.290047  0  4.024  0
C  C54  1  0.55296024  0.91262055  0.96509367  1  -0.011825  0  -0.084444  -0.110346  0  3.976482  0
C  C55  1  0.55542849  0.07754194  0.96099623  1  -0.012171  0  -0.089416  -0.224149  0  3.961749  0
C  C56  1  0.45925459  0.91475517  0.05908232  1  -0.066889  0  -0.075369  -0.066331  0  3.974758  0
C  C57  1  0.98035149  0.99097139  0.92185927  1  0.060716  0  -0.021364  -0.154381  0  3.948847  0
C  C58  1  0.98594086  0.98917574  0.11043550  1  0.043312  0  -0.005788  0.001784  0  3.965307  0
C  C59  1  0.89162337  0.05994234  0.98314211  1  0.41951  0  0.112585  0.284109  0  4.032755  0
C  C60  1  0.07334895  0.91546400  0.05445207  1  -0.054091  0  -0.085504  -0.113847  0  3.976248  0
C  C61  1  0.89390325  0.06057044  0.07554790  1  0.03907  0  -0.086477  -0.221721  0  3.962675  0
C  C62  1  0.07009782  0.91730620  0.96129983  1  -0.067029  0  -0.077777  -0.068935  0  3.977531  0
C  C63  1  0.40859025  0.60372103  0.49279691  1  0.026937  0  -0.019104  -0.151585  0  3.941584  0
C  C64  1  0.59970059  0.41362214  0.49639235  1  -0.008821  0  -0.007958  -0.001731  0  3.969678  0
C  C65  1  0.46037876  0.55235003  0.41257316  1  0.39093  0  0.112281  0.290151  0  4.027777  0
C  C66  1  0.55102832  0.46361313  0.57680495  1  -0.010128  0  -0.08478  -0.112675  0  3.978741  0
C  C67  1  0.55437017  0.45883805  0.41351348  1  0.036195  0  -0.088699  -0.22303  0  3.960526  0
C  C68  1  0.45697391  0.55721258  0.57435285  1  0.027417  0  -0.07317  -0.062187  0  3.967761  0
C  C69  1  0.00151040  0.59459509  0.90482063  1  0.025412  0  -0.030763  -0.2043  0  3.937746  0
C  C70  1  0.98608658  0.50377252  0.90899176  1  -0.023382  0  -0.011839  0.059815  0  3.995148  0
C  C71  1  0.02304793  0.58726589  0.99050599  1  0.414911  0  0.099639  0.197882  0  4.035236  0
C  C72  1  0.97913733  0.50314000  0.81698249  1  -0.013381  0  -0.106076  -0.14125  0  4.004197  0
C  C73  1  0.96749240  0.41408314  0.82093620  1  -0.038999  0  -0.111292  -0.100455  0  4.07829  0
C  C74  1  0.99965016  0.40444802  0.09727263  1  0.01804  0  -0.033381  -0.215166  0  3.924456  0
C  C75  1  0.02652171  0.48846316  0.08659596  1  0.434874  0  0.104155  0.210079  0  4.034856  0
C  C76  1  0.98180208  0.40891157  0.00766468  1  0.007637  0  -0.009502  0.066717  0  3.988046  0
C  C77  1  0.96833466  0.31935792  0.00927898  1  -0.060248  0  -0.10891  -0.150026  0  3.99987  0
C  C78  1  0.96150669  0.32165360  0.91828098  1  -0.005855  0  -0.108479  -0.091224  0  4.074306  0
C  C79  1  0.41036319  0.98730464  0.50075293  1  -0.018536  0  -0.020033  -0.152586  0  3.942105  0
C  C80  1  0.60076552  0.99313054  0.49554896  1  -0.042512  0  -0.008625  -0.001092  0  3.97234  0
C  C81  1  0.46252840  0.90765270  0.58024379  1  0.43147  0  0.111013  0.287853  0  4.031123  0
C  C82  1  0.55251504  0.07213596  0.41337040  1  0.013461  0  -0.084713  -0.112036  0  3.97776  0
C  C83  1  0.55600874  0.90987118  0.57870571  1  0.042588  0  -0.090877  -0.226159  0  3.969048  0
C  C84  1  0.45876212  0.06862022  0.41660984  1  -0.028249  0  -0.072913  -0.061752  0  3.964949  0
N  N85  1  0.05042075  0.48658987  0.16675198  1  -1.241206  0  -0.601268  -0.608221  0  3.329726  0
N  N86  1  0.04433913  0.66895262  0.98988691  1  -1.2398  0  -0.600041  -0.612467  0  3.343774  0
O  O87  1  0.91521196  0.74210563  0.57454770  1  -1.183142  0  -0.348319  -0.611742  0  2.287386  0
O  O88  1  0.26458829  0.07530107  0.24480404  1  -1.16287  0  -0.359386  -0.619431  0  2.322143  0
O  O89  1  0.07358528  0.26779047  0.42100173  1  -1.177816  0  -0.358873  -0.623553  0  2.321176  0
O  O90  1  0.73619447  0.92170089  0.77061702  1  -1.176567  0  -0.352426  -0.613682  0  2.275794  0
O  O91  1  0.07005219  0.74136448  0.76934276  1  -1.181055  0  -0.362861  -0.628197  0  2.292771  0
O  O92  1  0.73550863  0.07658319  0.42235407  1  -1.177764  0  -0.351165  -0.614499  0  2.276016  0
O  O93  1  0.91889485  0.26705966  0.24172487  1  -1.174992  0  -0.355582  -0.61602  0  2.288637  0
O  O94  1  0.26205780  0.91890314  0.58172028  1  -1.175326  0  -0.360872  -0.622555  0  2.310505  0
O  O95  1  0.26305982  0.74195386  0.42184424  1  -1.164356  0  -0.360828  -0.621874  0  2.317019  0
O  O96  1  0.91655169  0.07752188  0.76970100  1  -1.167779  0  -0.354602  -0.613169  0  2.305249  0
O  O97  1  0.73667306  0.27046152  0.57718208  1  -1.172907  0  -0.35334  -0.616841  0  2.276663  0
O  O98  1  0.07274429  0.92171817  0.24025405  1  -1.185746  0  -0.35139  -0.613612  0  2.282267  0
O  O99  1  0.06487442  0.91907094  0.77649737  1  -1.192514  0  -0.348926  -0.619212  0  2.274024  0
O  O100  1  0.73674860  0.26928164  0.42395892  1  -1.178567  0  -0.351701  -0.6122  0  2.281773  0
O  O101  1  0.91707694  0.07355285  0.24279374  1  -1.186952  0  -0.348878  -0.611885  0  2.292361  0
O  O102  1  0.26513654  0.73854160  0.57593094  1  -1.17699  0  -0.349037  -0.612771  0  2.265839  0
O  O103  1  0.91853906  0.73887195  0.76848602  1  -1.176184  0  -0.350935  -0.611892  0  2.28088  0
O  O104  1  0.26647179  0.07099180  0.42715691  1  -1.180951  0  -0.348934  -0.611901  0  2.269965  0
O  O105  1  0.07058368  0.26796439  0.24349054  1  -1.178472  0  -0.356249  -0.624722  0  2.282824  0
O  O106  1  0.73612965  0.92320001  0.57625159  1  -1.180309  0  -0.355356  -0.616729  0  2.289336  0
O  O107  1  0.73661389  0.07580022  0.76959709  1  -1.181283  0  -0.352923  -0.612691  0  2.285521  0
O  O108  1  0.06949439  0.74282376  0.42122001  1  -1.184319  0  -0.35197  -0.610811  0  2.289229  0
O  O109  1  0.26670409  0.92332338  0.23991582  1  -1.175659  0  -0.350675  -0.615909  0  2.261836  0
O  O110  1  0.91946144  0.27195059  0.57383318  1  -1.184185  0  -0.347074  -0.611436  0  2.260699  0
O  O111  1  0.79534104  0.06981510  0.57015888  1  -1.225414  0  -0.693375  -1.067704  0  2.363284  0
O  O112  1  0.06473681  0.06854999  0.57186838  1  -1.239458  0  -0.69275  -1.069613  0  2.35095  0
O  O113  1  0.06555026  0.06851434  0.30105494  1  -1.235868  0  -0.695586  -1.072995  0  2.366477  0
O  O114  1  0.06419712  0.79967441  0.56977801  1  -1.240988  0  -0.69417  -1.068494  0  2.369759  0
O  O115  1  0.14656524  0.95122438  0.45430088  1  -1.199992  0  -0.792703  -1.150413  0  2.134382  0
O  O116  1  0.94780732  0.95240939  0.45298833  1  -1.201202  0  -0.789545  -1.14933  0  2.121164  0
O  O117  1  0.94851863  0.15012583  0.45379175  1  -1.197321  0  -0.792709  -1.151164  0  2.137821  0
O  O118  1  0.94722999  0.95268952  0.65179655  1  -1.199486  0  -0.791651  -1.150541  0  2.134481  0
F  F119  1  0.16563501  0.41744613  0.33657702  1  -0.633863  0  -0.094874  -0.133343  0  1.350327  0
F  F120  1  0.42168414  0.16033525  0.09543183  1  -0.62392  0  -0.097639  -0.135106  0  1.346351  0
F  F121  1  0.79976990  0.12962323  0.95377443  1  -0.624697  0  -0.094706  -0.132812  0  1.348657  0
F  F122  1  0.42007977  0.59179327  0.33037578  1  -0.625707  0  -0.099266  -0.138679  0  1.346725  0
F  F123  1  0.42276970  0.82510464  0.66326181  1  -0.627657  0  -0.100143  -0.138832  0  1.344984  0
