# generated using pymatgen
data_CoHC6O7
_symmetry_space_group_name_H-M   'P 1'
_cell_length_a   6.84281435
_cell_length_b   15.18911316
_cell_length_c   15.18651236
_cell_angle_alpha   117.80359487
_cell_angle_beta   98.62797377
_cell_angle_gamma   98.62980586
_symmetry_Int_Tables_number   1
_chemical_formula_structural   CoHC6O7
_chemical_formula_sum   'Co6 H6 C36 O42'
_cell_volume   1336.00060791
_cell_formula_units_Z   6
loop_
 _symmetry_equiv_pos_site_id
 _symmetry_equiv_pos_as_xyz
  1  'x, y, z'
loop_
 _atom_site_type_symbol
 _atom_site_label
 _atom_site_symmetry_multiplicity
 _atom_site_fract_x
 _atom_site_fract_y
 _atom_site_fract_z
 _atom_site_occupancy
 _atom_site_pbe_bader_charge
 _atom_site_pbe_bader_spin_density
 _atom_site_pbe_cm5_charge
 _atom_site_pbe_ddec_charge
 _atom_site_pbe_ddec_spin_density
 _atom_site_pbe_ddec_sum_bond_order
 _atom_site_pbe_magmom
Co  Co0  1  0.52082174  0.40233245  0.72914369  1  1.294044  2.573153  0.641987  0.977596  2.779612  2.44772  2.552
Co  Co1  1  0.79167622  0.27080953  0.67310230  1  1.292254  2.57369  0.642297  0.977683  2.7808  2.447902  2.552
Co  Co2  1  0.11853600  0.32677827  0.59752178  1  1.289682  2.573163  0.642088  0.977495  2.780085  2.448077  2.552
Co  Co3  1  0.47918581  0.59766245  0.27086060  1  1.294347  2.573137  0.642032  0.977791  2.779619  2.447603  2.552
Co  Co4  1  0.20831768  0.72918767  0.32691202  1  1.292142  2.57371  0.642319  0.977706  2.78077  2.447967  2.552
Co  Co5  1  0.88146234  0.67321893  0.40248889  1  1.289789  2.573152  0.642203  0.977677  2.7801  2.448053  2.552
H  H6  1  0.17740152  0.52605161  0.55071357  1  0.0998  0.000908  0.106177  0.132128  0.000281  1.019183  0.0
H  H7  1  0.62673637  0.44940567  0.97543077  1  0.128851  0.000883  0.106504  0.132266  0.00029  1.020112  0.0
H  H8  1  0.65142511  0.02473139  0.47402061  1  0.136366  0.000854  0.106862  0.132788  0.00028  1.01964  0.0
H  H9  1  0.82260088  0.47394482  0.44929109  1  0.099779  0.000908  0.106191  0.132176  0.000281  1.019174  0.0
H  H10  1  0.37327234  0.55059153  0.02457271  1  0.128976  0.000883  0.106497  0.132243  0.00029  1.020049  0.0
H  H11  1  0.34857584  0.97526812  0.52600383  1  0.13619  0.000854  0.106814  0.13273  0.00028  1.019465  0.0
C  C12  1  0.74883112  0.39299750  0.56507550  1  1.51775  -0.00477  0.223503  0.631245  -0.007218  4.099767  -0.004
C  C13  1  0.18362359  0.43480006  0.82784953  1  1.525936  -0.004893  0.222993  0.630429  -0.007419  4.101635  -0.004
C  C14  1  0.35582254  0.17205190  0.60685422  1  1.522667  -0.004767  0.223197  0.630847  -0.0072  4.101146  -0.004
C  C15  1  0.25115827  0.60699354  0.43491787  1  1.517397  -0.004775  0.223615  0.631293  -0.007226  4.099823  -0.004
C  C16  1  0.81638407  0.56520099  0.17216291  1  1.525541  -0.004898  0.22293  0.630259  -0.007422  4.101752  -0.004
C  C17  1  0.64417715  0.82793915  0.39316157  1  1.522799  -0.004764  0.223104  0.630734  -0.007198  4.100822  -0.004
C  C18  1  0.62034518  0.44964408  0.53563075  1  -0.046223  0.018908  -0.031821  -0.140662  0.009522  3.961484  0.014
C  C19  1  0.08459790  0.46426985  0.91397502  1  -0.017951  0.019003  -0.031976  -0.141652  0.00962  3.961196  0.014
C  C20  1  0.17071181  0.08595288  0.55025545  1  0.001443  0.018983  -0.031585  -0.140208  0.009625  3.96167  0.014
C  C21  1  0.37965653  0.55035389  0.46436931  1  -0.045986  0.018916  -0.03182  -0.140787  0.009526  3.961662  0.014
C  C22  1  0.91540937  0.53573043  0.08603835  1  -0.0174  0.019  -0.031912  -0.141449  0.009619  3.960869  0.014
C  C23  1  0.82928202  0.91404125  0.44976006  1  -0.061684  0.019114  -0.031645  -0.140161  0.009628  3.962041  0.014
C  C24  1  0.43515205  0.46552198  0.56651180  1  0.582635  0.011244  0.073272  0.307305  0.00711  4.085718  0.006
C  C25  1  0.86855949  0.43344346  0.89899735  1  0.582539  0.011484  0.072748  0.307392  0.007214  4.084348  0.006
C  C26  1  0.96969708  0.10098754  0.53443016  1  0.571215  0.011565  0.073412  0.307735  0.007246  4.087232  0.006
C  C27  1  0.56485601  0.53447984  0.43349181  1  0.582683  0.011239  0.073232  0.307311  0.007108  4.085753  0.006
C  C28  1  0.13144817  0.56655758  0.10101509  1  0.582085  0.011487  0.072687  0.307348  0.007215  4.084612  0.006
C  C29  1  0.03029303  0.89900505  0.46558571  1  0.571173  0.011566  0.073399  0.307413  0.007247  4.08787  0.006
C  C30  1  0.31985168  0.51501138  0.52872318  1  0.010409  0.020818  -0.105374  -0.212132  0.011004  3.962616  0.014
C  C31  1  0.79113361  0.47135313  0.98634380  1  -0.028238  0.020748  -0.105342  -0.211373  0.010946  3.961736  0.014
C  C32  1  0.80485441  0.01373379  0.48505720  1  0.001476  0.021068  -0.106078  -0.212976  0.011116  3.96426  0.014
C  C33  1  0.68015451  0.48498967  0.47127994  1  0.010325  0.020828  -0.105383  -0.212233  0.011009  3.96244  0.014
C  C34  1  0.20887514  0.52864715  0.01366967  1  -0.028357  0.020748  -0.105409  -0.211405  0.010947  3.962106  0.014
C  C35  1  0.19513980  0.98626111  0.51496397  1  -0.061912  0.021194  -0.106096  -0.212886  0.011115  3.964096  0.014
C  C36  1  0.80378117  0.65011726  0.89774414  1  2.152174  0.003966  0.374372  0.733685  0.002129  4.098353  0.004
C  C37  1  0.90668651  0.10235091  0.75242133  1  2.130207  0.003881  0.375633  0.735267  0.002114  4.098164  0.004
C  C38  1  0.15424608  0.24763335  0.34968896  1  2.137156  0.00391  0.375157  0.734864  0.002119  4.096815  0.004
C  C39  1  0.19616761  0.34985147  0.10218535  1  2.151509  0.00396  0.374703  0.734526  0.002125  4.098434  0.004
C  C40  1  0.09332143  0.89770089  0.24759108  1  2.130598  0.003876  0.375711  0.73506  0.002109  4.097651  0.004
C  C41  1  0.84580585  0.75238230  0.65032540  1  2.137471  0.00391  0.375256  0.735302  0.002119  4.096267  0.004
C  C42  1  0.70512361  0.33308347  0.20754990  1  2.142298  -4.7e-05  0.367598  0.719491  -0.000134  4.108686  0.0
C  C43  1  0.49722819  0.79273910  0.12532697  1  2.121813  -4.3e-05  0.367183  0.719097  -0.000128  4.108458  0.0
C  C44  1  0.37177891  0.87480366  0.66743535  1  2.127158  -4.7e-05  0.367735  0.719694  -0.000134  4.108132  0.0
C  C45  1  0.29484410  0.66687605  0.79242927  1  2.142014  -4.7e-05  0.367415  0.719345  -0.000134  4.108695  0.0
C  C46  1  0.50272646  0.20724732  0.87461710  1  2.122752  -4.3e-05  0.367251  0.719127  -0.000128  4.10828  0.0
C  C47  1  0.62829502  0.12524122  0.33258951  1  2.126252  -4.7e-05  0.367699  0.719615  -0.000134  4.107373  0.0
O  O48  1  0.68737782  0.35722800  0.62088784  1  -1.154395  0.12354  -0.316507  -0.596438  0.063789  2.691283  0.115
O  O49  1  0.06644577  0.37905417  0.73623655  1  -1.157231  0.123069  -0.316518  -0.595864  0.063644  2.691421  0.115
O  O50  1  0.33009187  0.26364428  0.64269996  1  -1.155303  0.123082  -0.316729  -0.596585  0.06371  2.691122  0.115
O  O51  1  0.31261293  0.64275689  0.37910209  1  -1.154391  0.123552  -0.316621  -0.596489  0.063797  2.691465  0.115
O  O52  1  0.93355385  0.62095149  0.26377551  1  -1.157246  0.123076  -0.316519  -0.595845  0.063647  2.691542  0.115
O  O53  1  0.66991265  0.73634754  0.35731125  1  -1.155484  0.123098  -0.316595  -0.596475  0.063718  2.691378  0.115
O  O54  1  0.90947596  0.37766552  0.53375744  1  -1.15274  0.065026  -0.307149  -0.557812  0.03385  2.331971  0.055
O  O55  1  0.37557424  0.46608447  0.84386271  1  -1.165495  0.065179  -0.30696  -0.557564  0.033892  2.332438  0.055
O  O56  1  0.53178002  0.15606390  0.62207852  1  -1.154226  0.065132  -0.306639  -0.557508  0.033953  2.333449  0.055
O  O57  1  0.09051188  0.62232245  0.46623439  1  -1.152752  0.065031  -0.307186  -0.557837  0.033852  2.332107  0.055
O  O58  1  0.62443040  0.53391350  0.15614809  1  -1.16549  0.065192  -0.306962  -0.557572  0.033897  2.332516  0.055
O  O59  1  0.46821515  0.84392407  0.37794541  1  -1.154294  0.065144  -0.306759  -0.557562  0.033958  2.332995  0.055
O  O60  1  0.36482932  0.43706989  0.62978918  1  -1.140005  0.168279  -0.350587  -0.596436  0.090642  2.594666  0.148
O  O61  1  0.73498342  0.37007272  0.80726593  1  -1.144106  0.1684  -0.349282  -0.595594  0.090848  2.593043  0.148
O  O62  1  0.92795070  0.19273466  0.56286072  1  -1.138203  0.169289  -0.35015  -0.596086  0.091165  2.595186  0.148
O  O63  1  0.63516993  0.56293500  0.37021592  1  -1.140045  0.168294  -0.350601  -0.596434  0.090648  2.594749  0.148
O  O64  1  0.26502275  0.62992833  0.19274707  1  -1.144545  0.168416  -0.349188  -0.595599  0.090846  2.593064  0.148
O  O65  1  0.07204050  0.80725716  0.43715420  1  -1.137658  0.169281  -0.350079  -0.595882  0.091173  2.595296  0.148
O  O66  1  0.87589075  0.72141883  0.98031224  1  -1.061691  0.003483  -0.167065  -0.340816  0.001585  2.170772  0.003
O  O67  1  0.89659507  0.01979158  0.74106495  1  -1.050279  0.003469  -0.167903  -0.341519  0.001582  2.171759  0.003
O  O68  1  0.15482971  0.25897705  0.27843336  1  -1.055275  0.003471  -0.167642  -0.341422  0.001586  2.171166  0.003
O  O69  1  0.12403797  0.27856298  0.01961475  1  -1.061609  0.003478  -0.167036  -0.340864  0.001582  2.170933  0.003
O  O70  1  0.10340485  0.98024406  0.25891766  1  -1.050923  0.00346  -0.167801  -0.34118  0.001578  2.171846  0.003
O  O71  1  0.84523099  0.74105322  0.72159433  1  -1.055716  0.003472  -0.167679  -0.341684  0.001587  2.170465  0.003
O  O72  1  0.73155985  0.57918849  0.81443023  1  -1.097465  0.015083  -0.162246  -0.364491  0.007503  2.349991  0.007
O  O73  1  0.91740512  0.18566249  0.76489933  1  -1.086588  0.015133  -0.162759  -0.365493  0.00748  2.348545  0.007
O  O74  1  0.15320958  0.23518921  0.42058780  1  -1.089138  0.015128  -0.162389  -0.364933  0.007488  2.347264  0.007
O  O75  1  0.26840865  0.42076948  0.18550744  1  -1.096884  0.01507  -0.16256  -0.365311  0.0075  2.349993  0.007
O  O76  1  0.08260880  0.81439546  0.23514336  1  -1.086304  0.015115  -0.16292  -0.3656  0.007477  2.347688  0.007
O  O77  1  0.84683620  0.76481414  0.57942238  1  -1.089056  0.015138  -0.162434  -0.365103  0.007489  2.347474  0.007
O  O78  1  0.86564281  0.38993479  0.23262566  1  -1.07042  -0.000164  -0.164409  -0.33229  -0.000478  2.215485  0.0
O  O79  1  0.63297171  0.76807646  0.15746730  1  -1.062773  -0.000156  -0.164253  -0.332097  -0.00047  2.215606  0.0
O  O80  1  0.47590327  0.84305380  0.61078911  1  -1.063929  -0.000164  -0.164787  -0.332585  -0.000474  2.21536  0.0
O  O81  1  0.13431416  0.61004473  0.76738119  1  -1.070886  -0.000164  -0.164417  -0.332252  -0.000478  2.215384  0.0
O  O82  1  0.36696227  0.23191305  0.84249854  1  -1.063105  -0.000156  -0.164291  -0.33221  -0.00047  2.21549  0.0
O  O83  1  0.52413162  0.15694263  0.38923027  1  -1.062862  -0.000164  -0.164832  -0.332619  -0.000474  2.215027  0.0
O  O84  1  0.54528909  0.27522388  0.18194206  1  -1.077847  -3.3e-05  -0.182391  -0.360858  -6.2e-05  2.167401  0.0
O  O85  1  0.36266868  0.81795447  0.09276694  1  -1.065512  -2.7e-05  -0.182099  -0.360768  -5.8e-05  2.166607  0.0
O  O86  1  0.26929106  0.90700347  0.72507169  1  -1.06933  -3.2e-05  -0.18209  -0.360892  -6.1e-05  2.167137  0.0
O  O87  1  0.45468351  0.72471872  0.81801046  1  -1.077123  -3.3e-05  -0.182193  -0.360746  -6.2e-05  2.167603  0.0
O  O88  1  0.63731427  0.18204118  0.90716887  1  -1.066105  -2.8e-05  -0.182108  -0.360656  -5.8e-05  2.166657  0.0
O  O89  1  0.73081156  0.09308985  0.27495993  1  -1.069513  -3.3e-05  -0.181999  -0.360772  -6.1e-05  2.166788  0.0
