# generated using pymatgen
data_CdH18C33N5(O2F3)3
_symmetry_space_group_name_H-M   'P 1'
_cell_length_a   10.79725423
_cell_length_b   12.35449078
_cell_length_c   13.71364000
_cell_angle_alpha   110.17619858
_cell_angle_beta   96.41884054
_cell_angle_gamma   99.72551519
_symmetry_Int_Tables_number   1
_chemical_formula_structural   CdH18C33N5(O2F3)3
_chemical_formula_sum   'Cd2 H36 C66 N10 O12 F18'
_cell_volume   1663.55550189
_cell_formula_units_Z   2
loop_
 _symmetry_equiv_pos_site_id
 _symmetry_equiv_pos_as_xyz
  1  'x, y, z'
loop_
 _atom_site_type_symbol
 _atom_site_label
 _atom_site_symmetry_multiplicity
 _atom_site_fract_x
 _atom_site_fract_y
 _atom_site_fract_z
 _atom_site_occupancy
 _atom_site_hle17_bader_spin_density
 _atom_site_hle17_ddec_charge
 _atom_site_hle17_ddec_spin_density
 _atom_site_hle17_ddec_sum_bond_order
 _atom_site_hle17_magmom
 _atom_site_hse06_10hf_bader_spin_density
 _atom_site_hse06_10hf_ddec_charge
 _atom_site_hse06_10hf_ddec_spin_density
 _atom_site_hse06_10hf_ddec_sum_bond_order
 _atom_site_hse06_10hf_magmom
 _atom_site_hse06_bader_spin_density
 _atom_site_hse06_ddec_charge
 _atom_site_hse06_ddec_spin_density
 _atom_site_hse06_ddec_sum_bond_order
 _atom_site_hse06_magmom
 _atom_site_pbe_bader_spin_density
 _atom_site_pbe_cm5_charge
 _atom_site_pbe_ddec_charge
 _atom_site_pbe_ddec_spin_density
 _atom_site_pbe_ddec_sum_bond_order
 _atom_site_pbe_magmom
Cd  Cd0  1  0.99667886  0.28343016  0.21647443  1  0  1.001258  0  1.782629  0  0  0.790607  0  2.235425  0  0  0.846936  0  2.188733  0  0  0.76785  0.750694  0  2.267387  0
Cd  Cd1  1  0.00332343  0.71656798  0.78352445  1  0  1.001266  0  1.782596  0  0  0.790633  0  2.235396  0  0  0.84695  0  2.188695  0  0  0.767863  0.750717  0  2.267358  0
H  H2  1  0.73216221  0.28421916  0.10087388  1  0  0.072727  0  0.968988  0  0  0.076173  0  1.041864  0  0  0.07855  0  1.040063  0  0  0.107478  0.074408  0  1.043189  0
H  H3  1  0.26784065  0.71578163  0.89912439  1  0  0.072695  0  0.969022  0  0  0.076165  0  1.041856  0  0  0.078573  0  1.04002  0  0  0.10748  0.074401  0  1.043178  0
H  H4  1  0.88975902  0.44408023  0.42050468  1  0  0.092386  0  0.93463  0  0  0.09753  0  1.00168  0  0  0.100562  0  0.998089  0  0  0.119975  0.095265  0  1.004375  0
H  H5  1  0.11023838  0.55591254  0.57949576  1  0  0.092429  0  0.934663  0  0  0.097603  0  1.001677  0  0  0.100635  0  0.998083  0  0  0.120006  0.095339  0  1.004366  0
H  H6  1  0.53317929  0.35481937  0.12937309  1  0  0.107718  0  0.974296  0  0  0.113297  0  1.041859  0  0  0.117007  0  1.040102  0  0  0.098714  0.110676  0  1.04318  0
H  H7  1  0.46682434  0.64518055  0.87062353  1  0  0.107688  0  0.97433  0  0  0.1133  0  1.041869  0  0  0.117009  0  1.040114  0  0  0.098716  0.110679  0  1.043192  0
H  H8  1  0.69780440  0.52070229  0.46252957  1  0  0.117141  0  0.948363  0  0  0.122864  0  1.01539  0  0  0.126651  0  1.013383  0  0  0.107201  0.120079  0  1.017113  0
H  H9  1  0.30219395  0.47929048  0.53746804  1  0  0.117143  0  0.94836  0  0  0.122896  0  1.015347  0  0  0.126683  0  1.013342  0  0  0.107207  0.120111  0  1.017072  0
H  H10  1  0.39322375  0.41899236  0.27576085  1  0  0.10511  0  0.939948  0  0  0.116918  0  1.004193  0  0  0.117923  0  1.005193  0  0  0.101406  0.116097  0  1.003742  0
H  H11  1  0.60677539  0.58100829  0.72423194  1  0  0.105095  0  0.9399  0  0  0.116861  0  1.004197  0  0  0.117873  0  1.005198  0  0  0.101411  0.116041  0  1.003746  0
H  H12  1  0.47289338  0.52334129  0.40195873  1  0  0.108323  0  0.918041  0  0  0.120159  0  0.979251  0  0  0.122665  0  0.977077  0  0  0.104235  0.118319  0  0.980914  0
H  H13  1  0.52709974  0.47665310  0.59803596  1  0  0.108288  0  0.918058  0  0  0.120104  0  0.979294  0  0  0.122614  0  0.977123  0  0  0.104208  0.118264  0  0.980956  0
H  H14  1  0.55547195  0.05958941  0.10640299  1  0  0.103701  0  0.924807  0  0  0.11379  0  0.993343  0  0  0.116322  0  0.990729  0  0  0.101266  0.1119  0  0.995396  0
H  H15  1  0.44453560  0.94042030  0.89360063  1  0  0.10371  0  0.924789  0  0  0.113741  0  0.993408  0  0  0.116274  0  0.990788  0  0  0.10125  0.11185  0  0.995463  0
H  H16  1  0.61573439  0.16105657  0.23690203  1  0  0.113085  0  0.927789  0  0  0.126231  0  0.987283  0  0  0.127644  0  0.987529  0  0  0.106421  0.125135  0  0.987385  0
H  H17  1  0.38426827  0.83894776  0.76310168  1  0  0.113069  0  0.927824  0  0  0.126268  0  0.987251  0  0  0.12769  0  0.987474  0  0  0.106453  0.125172  0  0.987355  0
H  H18  1  0.42596987  0.18829582  0.35954585  1  0  0.122941  0  0.952163  0  0  0.127774  0  1.017872  0  0  0.131813  0  1.015599  0  0  0.106064  0.124882  0  1.019639  0
H  H19  1  0.57403410  0.81170590  0.64045646  1  0  0.122885  0  0.952246  0  0  0.1278  0  1.017857  0  0  0.131839  0  1.015585  0  0  0.106073  0.124908  0  1.019623  0
H  H20  1  0.36550640  0.09358147  0.02046756  1  0  0.11414  0  0.953801  0  0  0.12177  0  1.018236  0  0  0.125549  0  1.016052  0  0  0.105982  0.11904  0  1.02  0
H  H21  1  0.63449795  0.90642201  0.97953459  1  0  0.11411  0  0.953786  0  0  0.121758  0  1.018209  0  0  0.125526  0  1.016047  0  0  0.105983  0.11903  0  1.019971  0
H  H22  1  0.22234203  0.25634874  0.35803934  1  0  0.090991  0  0.943927  0  0  0.095499  0  1.013985  0  0  0.098497  0  1.010573  0  0  0.115241  0.093272  0  1.016562  0
H  H23  1  0.77765837  0.74364938  0.64196154  1  0  0.091094  0  0.94386  0  0  0.095558  0  1.013952  0  0  0.098556  0  1.010529  0  0  0.11526  0.09333  0  1.016528  0
H  H24  1  0.16859574  0.17079607  0.03358545  1  0  0.080651  0  0.940289  0  0  0.08923  0  1.002504  0  0  0.091747  0  1.000229  0  0  0.117199  0.087433  0  1.004098  0
H  H25  1  0.83140636  0.82920561  0.96641668  1  0  0.080655  0  0.940277  0  0  0.089248  0  1.002481  0  0  0.091762  0  1.000217  0  0  0.117195  0.087451  0  1.004074  0
H  H26  1  0.95887627  0.43450594  0.06715630  1  0  0.080962  0  0.93731  0  0  0.091432  0  0.997962  0  0  0.093734  0  0.995956  0  0  0.11794  0.089726  0  0.999466  0
H  H27  1  0.04112338  0.56548864  0.93284344  1  0  0.08099  0  0.937316  0  0  0.091522  0  0.997896  0  0  0.09382  0  0.995893  0  0  0.117962  0.089816  0  0.999404  0
H  H28  1  0.92066549  0.07494647  0.99319306  1  0  0.078855  0  0.958519  0  0  0.087262  0  1.0259  0  0  0.089417  0  1.023995  0  0  0.113037  0.085629  0  1.027411  0
H  H29  1  0.07933606  0.92504812  0.00680247  1  0  0.07888  0  0.95858  0  0  0.087296  0  1.02593  0  0  0.089456  0  1.023992  0  0  0.113051  0.085665  0  1.027436  0
H  H30  1  0.88224351  0.40379775  0.87684324  1  0  0.118211  0  0.962275  0  0  0.12506  0  1.028893  0  0  0.128709  0  1.027142  0  0  0.106371  0.122407  0  1.030371  0
H  H31  1  0.11775183  0.59619848  0.12315733  1  0  0.118183  0  0.96234  0  0  0.125052  0  1.028915  0  0  0.128693  0  1.027187  0  0  0.106369  0.122402  0  1.030384  0
H  H32  1  0.84960448  0.03024139  0.80148196  1  0  0.114392  0  0.965396  0  0  0.121817  0  1.028222  0  0  0.124545  0  1.028967  0  0  0.103901  0.11981  0  1.027926  0
H  H33  1  0.15039575  0.96975581  0.19851571  1  0  0.114379  0  0.965393  0  0  0.12181  0  1.028198  0  0  0.124535  0  1.028955  0  0  0.103896  0.119802  0  1.027904  0
H  H34  1  0.79626067  0.27475077  0.70104719  1  0  0.114055  0  0.948326  0  0  0.119842  0  1.021463  0  0  0.122725  0  1.018992  0  0  0.100829  0.117711  0  1.023319  0
H  H35  1  0.20373692  0.72524728  0.29895341  1  0  0.114055  0  0.948298  0  0  0.119836  0  1.021442  0  0  0.12272  0  1.018972  0  0  0.100825  0.117704  0  1.023298  0
H  H36  1  0.71617643  0.13038079  0.68472429  1  0  0.098776  0  0.939946  0  0  0.109214  0  1.010076  0  0  0.110512  0  1.010189  0  0  0.097258  0.108291  0  1.010075  0
H  H37  1  0.28382473  0.86961645  0.31527493  1  0  0.098773  0  0.939986  0  0  0.109216  0  1.010104  0  0  0.110514  0  1.010217  0  0  0.09726  0.108292  0  1.010104  0
C  C38  1  0.72116570  0.33786079  0.17975617  1  0  0.12272  0  3.739368  0  0  0.091883  0  3.994814  0  0  0.099105  0  4.014074  0  0  0.035639  0.087366  0  3.981468  0
C  C39  1  0.27883848  0.66213739  0.82024143  1  0  0.122641  0  3.739455  0  0  0.091777  0  3.994936  0  0  0.098973  0  4.014178  0  0  0.035592  0.087259  0  3.981588  0
C  C40  1  0.80890494  0.42605596  0.35774737  1  0  0.156706  0  3.675827  0  0  0.120816  0  3.934944  0  0  0.130029  0  3.950759  0  0  0.053543  0.114655  0  3.924408  0
C  C41  1  0.19109172  0.57393765  0.64225107  1  0  0.156641  0  3.675707  0  0  0.120716  0  3.934838  0  0  0.129933  0  3.950642  0  0  0.053472  0.114558  0  3.9243  0
C  C42  1  0.60984472  0.37746121  0.19630623  1  0  -0.174685  0  3.724607  0  0  -0.19418  0  3.972945  0  0  -0.20277  0  3.995728  0  0  -0.09324  -0.188433  0  3.957309  0
C  C43  1  0.39015664  0.62253689  0.80369109  1  0  -0.174813  0  3.724639  0  0  -0.194312  0  3.973033  0  0  -0.202903  0  3.995825  0  0  -0.093347  -0.188564  0  3.957401  0
C  C44  1  0.69983650  0.46897506  0.38063288  1  0  -0.152045  0  3.67685  0  0  -0.174642  0  3.929806  0  0  -0.181874  0  3.9491  0  0  -0.078491  -0.170189  0  3.917232  0
C  C45  1  0.30015866  0.53101587  0.61936387  1  0  -0.152131  0  3.676625  0  0  -0.17472  0  3.929646  0  0  -0.181954  0  3.948935  0  0  -0.078491  -0.170268  0  3.917075  0
C  C46  1  0.59745855  0.44511260  0.29882304  1  0  0.152286  0  3.70038  0  0  0.172148  0  3.934863  0  0  0.175783  0  3.95914  0  0  0.013139  0.169938  0  3.918267  0
C  C47  1  0.40253982  0.55488456  0.70117371  1  0  0.152559  0  3.699941  0  0  0.172316  0  3.934565  0  0  0.175961  0  3.958842  0  0  0.013245  0.170105  0  3.917972  0
C  C48  1  0.47725967  0.49109911  0.31758110  1  0  -0.173605  0  3.694714  0  0  -0.219948  0  3.938989  0  0  -0.220666  0  3.948856  0  0  -0.150098  -0.219417  0  3.932491  0
C  C49  1  0.52273870  0.50889803  0.68241420  1  0  -0.173613  0  3.694595  0  0  -0.219857  0  3.938834  0  0  -0.220603  0  3.948739  0  0  -0.1501  -0.219326  0  3.932336  0
C  C50  1  0.47231823  0.58995684  0.27746495  1  0  -0.06107  0  3.761099  0  0  -0.069415  0  4.036654  0  0  -0.072053  0  4.057444  0  0  -0.01882  -0.067737  0  4.023149  0
C  C51  1  0.52768162  0.41004301  0.72253495  1  0  -0.061101  0  3.76113  0  0  -0.069454  0  4.036642  0  0  -0.072084  0  4.057436  0  0  -0.018829  -0.067775  0  4.023139  0
C  C52  1  0.42369471  0.56742926  0.17090880  1  0  0.177978  0  3.777722  0  0  0.14468  0  4.082767  0  0  0.153823  0  4.091314  0  0  0.092337  0.138127  0  4.077551  0
C  C53  1  0.57630496  0.43257410  0.82909288  1  0  0.177999  0  3.777792  0  0  0.144758  0  4.082776  0  0  0.1539  0  4.09132  0  0  0.092419  0.138205  0  4.077562  0
C  C54  1  0.51854930  0.70698132  0.34245260  1  0  0.266745  0  3.695783  0  0  0.231389  0  3.992874  0  0  0.242114  0  4.001671  0  0  0.108903  0.223678  0  3.98736  0
C  C55  1  0.48145150  0.29301855  0.65754667  1  0  0.266736  0  3.695751  0  0  0.231358  0  3.992918  0  0  0.242083  0  4.001714  0  0  0.108895  0.223647  0  3.987407  0
C  C56  1  0.42577037  0.65596858  0.13136975  1  0  0.166354  0  3.779752  0  0  0.133431  0  4.082631  0  0  0.141346  0  4.091485  0  0  0.085686  0.127687  0  4.077131  0
C  C57  1  0.57422442  0.34403378  0.86863045  1  0  0.166409  0  3.77971  0  0  0.133436  0  4.082579  0  0  0.141353  0  4.09143  0  0  0.085642  0.127693  0  4.07708  0
C  C58  1  0.52218651  0.80269714  0.30744682  1  0  -0.092324  0  3.802144  0  0  -0.096226  0  4.059201  0  0  -0.099187  0  4.081521  0  0  -0.014133  -0.094291  0  4.044621  0
C  C59  1  0.47780810  0.19730433  0.69255237  1  0  -0.092219  0  3.802037  0  0  -0.096273  0  4.059257  0  0  -0.099234  0  4.081575  0  0  -0.014137  -0.094339  0  4.044679  0
C  C60  1  0.47553520  0.77611991  0.19697938  1  0  -0.091587  0  3.824571  0  0  -0.096518  0  4.084272  0  0  -0.099461  0  4.107564  0  0  -0.016108  -0.094533  0  4.06881  0
C  C61  1  0.52446354  0.22388341  0.80302002  1  0  -0.091675  0  3.824533  0  0  -0.096523  0  4.084264  0  0  -0.099468  0  4.107555  0  0  -0.016142  -0.094538  0  4.068806  0
C  C62  1  0.56907454  0.92289654  0.37385637  1  0  0.185094  0  3.769626  0  0  0.150469  0  4.075082  0  0  0.159586  0  4.081964  0  0  0.092441  0.143782  0  4.071145  0
C  C63  1  0.43092118  0.07710585  0.62614466  1  0  0.185186  0  3.769756  0  0  0.15059  0  4.075046  0  0  0.15971  0  4.081918  0  0  0.092505  0.143903  0  4.071111  0
C  C64  1  0.48077227  0.87222860  0.16248090  1  0  0.242869  0  3.708619  0  0  0.207917  0  4.007683  0  0  0.217855  0  4.017472  0  0  0.097203  0.200845  0  4.001349  0
C  C65  1  0.51922703  0.12777739  0.83752009  1  0  0.242963  0  3.70831  0  0  0.207833  0  4.007596  0  0  0.217771  0  4.017379  0  0  0.097196  0.200761  0  4.001264  0
C  C66  1  0.57378442  0.01170758  0.33452590  1  0  0.181244  0  3.779056  0  0  0.142255  0  4.089704  0  0  0.151391  0  4.097865  0  0  0.092128  0.135734  0  4.084645  0
C  C67  1  0.42621430  0.98829578  0.66547715  1  0  0.180675  0  3.779936  0  0  0.14226  0  4.089689  0  0  0.151399  0  4.097815  0  0  0.092147  0.13574  0  4.084627  0
C  C68  1  0.52953538  0.98898472  0.22718003  1  0  -0.060306  0  3.763395  0  0  -0.067649  0  4.039888  0  0  -0.069558  0  4.059805  0  0  -0.019119  -0.066498  0  4.026846  0
C  C69  1  0.47046749  0.01102047  0.77282105  1  0  -0.060172  0  3.763358  0  0  -0.067489  0  4.039749  0  0  -0.069394  0  4.059641  0  0  -0.019034  -0.066338  0  4.026706  0
C  C70  1  0.53539896  0.08860769  0.18689946  1  0  -0.173594  0  3.698058  0  0  -0.22161  0  3.945597  0  0  -0.222025  0  3.954423  0  0  -0.148926  -0.221232  0  3.939692  0
C  C71  1  0.46460484  0.91139753  0.81310244  1  0  -0.173707  0  3.698284  0  0  -0.22171  0  3.945834  0  0  -0.222124  0  3.954633  0  0  -0.149019  -0.221331  0  3.939928  0
C  C72  1  0.41384146  0.13426045  0.18951652  1  0  0.155857  0  3.707494  0  0  0.173153  0  3.94705  0  0  0.177353  0  3.970601  0  0  0.014655  0.170603  0  3.930835  0
C  C73  1  0.58616459  0.86574658  0.81048541  1  0  0.155916  0  3.707384  0  0  0.173138  0  3.947093  0  0  0.177337  0  3.970645  0  0  0.0146  0.170587  0  3.930878  0
C  C74  1  0.37208705  0.18228692  0.28512088  1  0  -0.165681  0  3.67791  0  0  -0.187259  0  3.93403  0  0  -0.195103  0  3.954138  0  0  -0.086924  -0.182082  0  3.920358  0
C  C75  1  0.62791693  0.81771479  0.71488070  1  0  -0.16565  0  3.677984  0  0  -0.187224  0  3.934065  0  0  -0.195067  0  3.954177  0  0  -0.086895  -0.182048  0  3.920393  0
C  C76  1  0.33903433  0.13003621  0.09757864  1  0  -0.168582  0  3.696694  0  0  -0.188513  0  3.946242  0  0  -0.196483  0  3.967228  0  0  -0.083228  -0.18341  0  3.932156  0
C  C77  1  0.66096928  0.86996814  0.90242370  1  0  -0.168512  0  3.696529  0  0  -0.188462  0  3.946136  0  0  -0.196425  0  3.967138  0  0  -0.083174  -0.183364  0  3.932057  0
C  C78  1  0.25868301  0.22122845  0.28519118  1  0  0.13442  0  3.706869  0  0  0.098313  0  3.97077  0  0  0.106761  0  3.987192  0  0  0.044378  0.092894  0  3.959429  0
C  C79  1  0.74131966  0.77877147  0.71480901  1  0  0.134265  0  3.706777  0  0  0.098183  0  3.970709  0  0  0.106632  0  3.987113  0  0  0.04431  0.092765  0  3.959366  0
C  C80  1  0.22764734  0.17266438  0.10430376  1  0  0.134342  0  3.714726  0  0  0.10418  0  3.967262  0  0  0.112005  0  3.985244  0  0  0.046384  0.099116  0  3.954984  0
C  C81  1  0.77235476  0.82733728  0.89569763  1  0  0.13433  0  3.714761  0  0  0.104158  0  3.967295  0  0  0.111984  0  3.985278  0  0  0.046381  0.099094  0  3.955016  0
C  C82  1  0.93411288  0.34645007  0.00522532  1  0  0.137555  0  3.710689  0  0  0.105239  0  3.964292  0  0  0.113336  0  3.981906  0  0  0.046482  0.100037  0  3.95224  0
C  C83  1  0.06588659  0.65354361  0.99477339  1  0  0.13758  0  3.710743  0  0  0.105221  0  3.964342  0  0  0.113322  0  3.981951  0  0  0.046483  0.100017  0  3.952289  0
C  C84  1  0.91375965  0.14560094  0.96378182  1  0  0.1252  0  3.726705  0  0  0.093467  0  3.980629  0  0  0.101065  0  3.998731  0  0  0.039273  0.08859  0  3.968321  0
C  C85  1  0.08624753  0.85439379  0.03621428  1  0  0.125286  0  3.726754  0  0  0.093568  0  3.980656  0  0  0.101161  0  3.998744  0  0  0.039309  0.08869  0  3.968348  0
C  C86  1  0.89202663  0.32927720  0.90017249  1  0  -0.176449  0  3.696911  0  0  -0.196039  0  3.945878  0  0  -0.204185  0  3.966872  0  0  -0.08681  -0.190842  0  3.931877  0
C  C87  1  0.10797434  0.67071915  0.09982645  1  0  -0.176454  0  3.697091  0  0  -0.196086  0  3.946078  0  0  -0.204234  0  3.967065  0  0  -0.08681  -0.190886  0  3.932076  0
C  C88  1  0.87275976  0.12135322  0.85736727  1  0  -0.162813  0  3.684902  0  0  -0.182579  0  3.934206  0  0  -0.190858  0  3.956571  0  0  -0.086448  -0.17726  0  3.919276  0
C  C89  1  0.12723822  0.87864218  0.14263038  1  0  -0.162832  0  3.68496  0  0  -0.182614  0  3.934216  0  0  -0.190901  0  3.956612  0  0  -0.086436  -0.177296  0  3.919288  0
C  C90  1  0.85968589  0.21449713  0.82370399  1  0  0.170124  0  3.687574  0  0  0.187304  0  3.924924  0  0  0.191795  0  3.947524  0  0  0.017985  0.184522  0  3.909476  0
C  C91  1  0.14031321  0.78549918  0.17629476  1  0  0.170094  0  3.687749  0  0  0.18734  0  3.925011  0  0  0.191831  0  3.947611  0  0  0.017919  0.184557  0  3.909563  0
C  C92  1  0.80994478  0.19225227  0.70963367  1  0  -0.179106  0  3.693376  0  0  -0.222765  0  3.933071  0  0  -0.223456  0  3.941857  0  0  -0.153379  -0.222085  0  3.926971  0
C  C93  1  0.19005508  0.80774757  0.29036623  1  0  -0.179157  0  3.693378  0  0  -0.222813  0  3.933071  0  0  -0.223505  0  3.941857  0  0  -0.153366  -0.222132  0  3.92697  0
C  C94  1  0.89556672  0.13863097  0.63594960  1  0  -0.062377  0  3.755907  0  0  -0.068427  0  4.027308  0  0  -0.070538  0  4.046543  0  0  -0.022615  -0.067013  0  4.014445  0
C  C95  1  0.10443276  0.86136710  0.36404900  1  0  -0.062177  0  3.755712  0  0  -0.068265  0  4.027128  0  0  -0.070375  0  4.046371  0  0  -0.022564  -0.066851  0  4.014261  0
C  C96  1  0.88052061  0.01794370  0.58831876  1  0  0.250758  0  3.720982  0  0  0.211286  0  4.025635  0  0  0.222472  0  4.033973  0  0  0.096761  0.203407  0  4.020215  0
C  C97  1  0.11947512  0.98205428  0.41167946  1  0  0.250651  0  3.72084  0  0  0.211262  0  4.02545  0  0  0.222443  0  4.033813  0  0  0.096762  0.203395  0  4.020043  0
C  C98  1  0.95120250  0.96235881  0.51273966  1  0  -0.080069  0  3.817125  0  0  -0.088062  0  4.080971  0  0  -0.090522  0  4.102097  0  0  -0.014095  -0.086371  0  4.067028  0
C  C99  1  0.04880018  0.03764549  0.48726040  1  0  -0.079831  0  3.816855  0  0  -0.087895  0  4.080835  0  0  -0.090354  0  4.101985  0  0  -0.014027  -0.086263  0  4.066948  0
C  C100  1  0.93163113  0.83841824  0.46032272  1  0  0.185472  0  3.764847  0  0  0.151211  0  4.068321  0  0  0.16019  0  4.075208  0  0  0.090845  0.144654  0  4.064364  0
C  C101  1  0.06837170  0.16158259  0.53968213  1  0  0.185566  0  3.764502  0  0  0.151223  0  4.068086  0  0  0.160201  0  4.074993  0  0  0.090846  0.144677  0  4.064146  0
C  C102  1  0.99417087  0.20945703  0.61126804  1  0  0.177963  0  3.774097  0  0  0.148258  0  4.068142  0  0  0.156726  0  4.077319  0  0  0.092906  0.14216  0  4.062362  0
C  C103  1  0.00582672  0.79054102  0.38873329  1  0  0.178022  0  3.774061  0  0  0.148277  0  4.068156  0  0  0.156745  0  4.077334  0  0  0.09297  0.14218  0  4.062375  0
N  N104  1  0.81991225  0.36169902  0.25882720  1  0  -0.341601  0  3.272089  0  0  -0.260244  0  3.535141  0  0  -0.282093  0  3.555443  0  0  -0.335615  -0.24529  0  3.520959  0
N  N105  1  0.18008797  0.63829820  0.74117193  1  0  -0.341437  0  3.271829  0  0  -0.260072  0  3.534914  0  0  -0.281921  0  3.555208  0  0  -0.335536  -0.245117  0  3.520729  0
N  N106  1  0.18693968  0.21662274  0.19623977  1  0  -0.342239  0  3.267578  0  0  -0.26447  0  3.534958  0  0  -0.285692  0  3.555124  0  0  -0.33548  -0.249994  0  3.520928  0
N  N107  1  0.81306260  0.78337982  0.80376264  1  0  -0.342196  0  3.267444  0  0  -0.26442  0  3.534804  0  0  -0.285639  0  3.554946  0  0  -0.335453  -0.249943  0  3.520768  0
N  N108  1  0.94426537  0.25629957  0.03713926  1  0  -0.342547  0  3.27156  0  0  -0.264265  0  3.536674  0  0  -0.28473  0  3.555162  0  0  -0.336445  -0.250329  0  3.523678  0
N  N109  1  0.05573504  0.74369414  0.96285955  1  0  -0.342659  0  3.271651  0  0  -0.264406  0  3.536815  0  0  -0.284871  0  3.555293  0  0  -0.336479  -0.250474  0  3.523828  0
N  N110  1  0.16647991  0.51156695  0.34039440  1  0  0.684106  0  4.132904  0  0  0.728305  0  4.413394  0  0  0.743071  0  4.439396  0  0  0.09038  0.708771  0  4.408851  0
N  N111  1  0.83352162  0.48843206  0.65960613  1  0  0.684033  0  4.133131  0  0  0.728155  0  4.413691  0  0  0.742984  0  4.439625  0  0  0.090316  0.70862  0  4.409146  0
N  N112  1  0.88196443  0.06558822  0.24038965  1  0  0.689437  0  4.130595  0  0  0.738508  0  4.400662  0  0  0.754567  0  4.424662  0  0  0.088875  0.718922  0  4.396881  0
N  N113  1  0.11803766  0.93441346  0.75961393  1  0  0.689345  0  4.130907  0  0  0.738437  0  4.400975  0  0  0.767331  0  4.406337  0  0  0.088851  0.71885  0  4.397193  0
O  O114  1  0.85479994  0.07248082  0.14916420  1  0  -0.516192  0  1.726052  0  0  -0.507876  0  1.9468  0  0  -0.52173  0  1.944704  0  0  -0.22765  -0.495216  0  1.951751  0
O  O115  1  0.14520647  0.92751920  0.85083781  1  0  -0.516164  0  1.726246  0  0  -0.507869  0  1.94703  0  0  -0.525985  0  1.93985  0  0  -0.227616  -0.495209  0  1.951983  0
O  O116  1  0.95720580  0.15593410  0.31414160  1  0  -0.481354  0  1.756937  0  0  -0.465218  0  1.976065  0  0  -0.480455  0  1.973701  0  0  -0.21229  -0.451557  0  1.980982  0
O  O117  1  0.04279291  0.84406926  0.68586291  1  0  -0.481293  0  1.757052  0  0  -0.4652  0  1.976181  0  0  -0.484667  0  1.96877  0  0  -0.212288  -0.45154  0  1.981099  0
O  O118  1  0.83735871  0.97545422  0.25702680  1  0  -0.420884  0  1.713097  0  0  -0.428016  0  1.9039  0  0  -0.435445  0  1.905808  0  0  -0.185528  -0.41968  0  1.906446  0
O  O119  1  0.16263983  0.02454824  0.74297523  1  0  -0.420839  0  1.713118  0  0  -0.427978  0  1.90388  0  0  -0.4398  0  1.900306  0  0  -0.185541  -0.419643  0  1.906425  0
O  O120  1  0.13566073  0.48498722  0.24067862  1  0  -0.496726  0  1.749404  0  0  -0.489437  0  1.975832  0  0  -0.50218  0  1.973718  0  0  -0.211667  -0.477057  0  1.981014  0
O  O121  1  0.86433987  0.51501177  0.75932182  1  0  -0.496719  0  1.749499  0  0  -0.489381  0  1.975942  0  0  -0.502145  0  1.973812  0  0  -0.211626  -0.476999  0  1.981123  0
O  O122  1  0.11878145  0.43590804  0.37936365  1  0  -0.488914  0  1.762027  0  0  -0.464849  0  1.979467  0  0  -0.480236  0  1.977072  0  0  -0.204134  -0.45071  0  1.984482  0
O  O123  1  0.88121728  0.56409089  0.62063514  1  0  -0.488896  0  1.762038  0  0  -0.464808  0  1.979505  0  0  -0.480226  0  1.977101  0  0  -0.204124  -0.450668  0  1.98452  0
O  O124  1  0.24093926  0.60626270  0.39864064  1  0  -0.408706  0  1.735641  0  0  -0.412792  0  1.935737  0  0  -0.419438  0  1.936026  0  0  -0.168621  -0.404613  0  1.939546  0
O  O125  1  0.75906247  0.39373720  0.60135945  1  0  -0.408638  0  1.735608  0  0  -0.412742  0  1.935822  0  0  -0.419408  0  1.936089  0  0  -0.168613  -0.404563  0  1.939633  0
F  F126  1  0.37259174  0.45427809  0.10387852  1  0  -0.15845  0  1.217876  0  0  -0.112049  0  1.381707  0  0  -0.120084  0  1.371674  0  0  -0.083972  -0.106218  0  1.388749  0
F  F127  1  0.62741169  0.54572535  0.89612062  1  0  -0.158416  0  1.217967  0  0  -0.112032  0  1.381775  0  0  -0.120067  0  1.371742  0  0  -0.083952  -0.106201  0  1.388817  0
F  F128  1  0.56266728  0.73067640  0.44599747  1  0  -0.179171  0  1.248446  0  0  -0.122999  0  1.410825  0  0  -0.131991  0  1.400518  0  0  -0.080588  -0.116441  0  1.417866  0
F  F129  1  0.43733577  0.26932526  0.55400110  1  0  -0.179167  0  1.248399  0  0  -0.123004  0  1.410821  0  0  -0.131996  0  1.400515  0  0  -0.080608  -0.116445  0  1.417864  0
F  F130  1  0.37817663  0.62456401  0.02726223  1  0  -0.16463  0  1.265741  0  0  -0.12223  0  1.442259  0  0  -0.130533  0  1.432771  0  0  -0.085703  -0.116173  0  1.448833  0
F  F131  1  0.62182324  0.37544021  0.97273609  1  0  -0.164691  0  1.265703  0  0  -0.122281  0  1.44223  0  0  -0.130584  0  1.432739  0  0  -0.085717  -0.116223  0  1.448807  0
F  F132  1  0.61114789  0.95365088  0.47816772  1  0  -0.153221  0  1.302869  0  0  -0.114338  0  1.488291  0  0  -0.123041  0  1.478368  0  0  -0.080785  -0.108032  0  1.495198  0
F  F133  1  0.38884052  0.04635662  0.52183637  1  0  -0.153255  0  1.303001  0  0  -0.114351  0  1.488333  0  0  -0.123054  0  1.47841  0  0  -0.080819  -0.108044  0  1.49524  0
F  F134  1  0.43605242  0.84916422  0.05834563  1  0  -0.195846  0  1.234844  0  0  -0.131794  0  1.394276  0  0  -0.141621  0  1.385875  0  0  -0.084703  -0.124651  0  1.400007  0
F  F135  1  0.56393918  0.15084072  0.94165652  1  0  -0.195847  0  1.234737  0  0  -0.131779  0  1.394227  0  0  -0.141608  0  1.385824  0  0  -0.084704  -0.124636  0  1.399959  0
F  F136  1  0.62327279  0.12481675  0.40142717  1  0  -0.154242  0  1.224207  0  0  -0.099455  0  1.380943  0  0  -0.109176  0  1.372814  0  0  -0.07456  -0.092399  0  1.38652  0
F  F137  1  0.37671861  0.87518731  0.59857616  1  0  -0.154103  0  1.224419  0  0  -0.099518  0  1.381015  0  0  -0.109238  0  1.372873  0  0  -0.07457  -0.092463  0  1.38659  0
F  F138  1  0.79108118  0.94875294  0.61695005  1  0  -0.197188  0  1.313345  0  0  -0.137546  0  1.492329  0  0  -0.147947  0  1.484042  0  0  -0.081588  -0.129962  0  1.497932  0
F  F139  1  0.20891307  0.05124675  0.38304637  1  0  -0.197195  0  1.313254  0  0  -0.137572  0  1.49223  0  0  -0.147975  0  1.483952  0  0  -0.081603  -0.129987  0  1.49783  0
F  F140  1  0.83819913  0.76322586  0.47818463  1  0  -0.15954  0  1.25116  0  0  -0.119043  0  1.426369  0  0  -0.127252  0  1.41592  0  0  -0.088046  -0.113008  0  1.433604  0
F  F141  1  0.16180578  0.23677148  0.52181643  1  0  -0.15959  0  1.251051  0  0  -0.119057  0  1.4263  0  0  -0.127266  0  1.415861  0  0  -0.088055  -0.11302  0  1.433534  0
F  F142  1  0.01756908  0.32878123  0.66041932  1  0  -0.156999  0  1.221095  0  0  -0.110345  0  1.383595  0  0  -0.119575  0  1.375461  0  0  -0.088548  -0.103639  0  1.389164  0
F  F143  1  0.98243467  0.67121524  0.33958574  1  0  -0.157044  0  1.221079  0  0  -0.110387  0  1.383599  0  0  -0.119616  0  1.375465  0  0  -0.088608  -0.103682  0  1.389169  0
