# generated using pymatgen
data_MnH10C11(NO3)2
_symmetry_space_group_name_H-M   'P 1'
_cell_length_a   7.61466208
_cell_length_b   8.29985294
_cell_length_c   8.80884990
_cell_angle_alpha   83.57960240
_cell_angle_beta   84.53173899
_cell_angle_gamma   88.27998747
_symmetry_Int_Tables_number   1
_chemical_formula_structural   MnH10C11(NO3)2
_chemical_formula_sum   'Mn2 H20 C22 N4 O12'
_cell_volume   550.60954451
_cell_formula_units_Z   2
loop_
 _symmetry_equiv_pos_site_id
 _symmetry_equiv_pos_as_xyz
  1  'x, y, z'
loop_
 _atom_site_type_symbol
 _atom_site_label
 _atom_site_symmetry_multiplicity
 _atom_site_fract_x
 _atom_site_fract_y
 _atom_site_fract_z
 _atom_site_occupancy
 _atom_site_hle17_ddec_charge
 _atom_site_hle17_ddec_spin_density
 _atom_site_hle17_ddec_sum_bond_order
 _atom_site_hle17_magmom
 _atom_site_hse06_10hf_ddec_charge
 _atom_site_hse06_10hf_ddec_spin_density
 _atom_site_hse06_10hf_ddec_sum_bond_order
 _atom_site_hse06_10hf_magmom
 _atom_site_hse06_ddec_charge
 _atom_site_hse06_ddec_spin_density
 _atom_site_hse06_ddec_sum_bond_order
 _atom_site_hse06_magmom
 _atom_site_pbe_cm5_charge
 _atom_site_pbe_ddec_charge
 _atom_site_pbe_ddec_spin_density
 _atom_site_pbe_ddec_sum_bond_order
 _atom_site_pbe_magmom
Mn  Mn0  1  0.25709281  0.89692652  0.84985828  1  1.218715  -4.799976  1.713201  -4.69  1.062186  -4.724473  2.201424  -4.551  1.115441  -4.76579  2.133968  -4.61  0.597275  1.022612  -4.680071  2.250467  -4.49
Mn  Mn1  1  0.74291023  0.10307160  0.15014270  1  1.218666  -4.799989  1.713202  -4.69  1.0622  -4.724473  2.201398  -4.551  1.115452  -4.765798  2.133945  -4.61  0.597289  1.022629  -4.680071  2.250438  -4.49
H  H2  1  0.52818513  0.81698331  0.02953319  1  0.416313  0.000494  0.890293  -0.001  0.383203  -0.000253  0.960979  -0.002  0.393866  2.7e-05  0.945775  -0.002  0.293683  0.375689  -0.00051  0.971652  -0.002
H  H3  1  0.47181301  0.18300383  0.97047270  1  0.416348  0.000492  0.890127  -0.001  0.383257  -0.000252  0.960898  -0.002  0.393908  2.7e-05  0.945689  -0.002  0.293727  0.37575  -0.00051  0.971572  -0.002
H  H4  1  0.34390564  0.79746298  0.12994897  1  0.421797  4.3e-05  0.870599  -0.001  0.390499  -0.000733  0.943702  -0.002  0.400764  -0.000478  0.928895  -0.001  0.298503  0.383168  -0.000944  0.954306  -0.002
H  H5  1  0.65608829  0.20253142  0.87005200  1  0.421826  4.3e-05  0.870536  -0.001  0.39053  -0.000733  0.943655  -0.002  0.400792  -0.000478  0.928854  -0.001  0.298515  0.383197  -0.000944  0.954263  -0.002
H  H6  1  0.96789926  0.04594463  0.69910840  1  0.420541  4.3e-05  0.891113  -0.001  0.384107  -0.00059  0.96403  -0.002  0.396131  -0.000337  0.946737  -0.001  0.286809  0.375542  -0.000847  0.976357  -0.002
H  H7  1  0.03210770  0.95405475  0.30089213  1  0.42043  4.2e-05  0.891263  -0.001  0.383989  -0.00059  0.964193  -0.002  0.396013  -0.000337  0.9469  -0.001  0.286811  0.375424  -0.000847  0.97652  -0.002
H  H8  1  0.08483350  0.93679117  0.59338054  1  0.39945  -5.9e-05  0.859951  -0.001  0.37709  -0.001134  0.92852  -0.001  0.384654  -0.000715  0.920363  -0.001  0.308713  0.371438  -0.001621  0.934805  -0.002
H  H9  1  0.91516240  0.06318375  0.40663582  1  0.399408  -5.8e-05  0.859982  -0.001  0.377073  -0.001134  0.928518  -0.001  0.384635  -0.000715  0.920365  -0.001  0.308686  0.371423  -0.001621  0.934797  -0.002
H  H10  1  0.60387011  0.80283106  0.49698801  1  0.121507  0.000446  0.960907  0.0  0.128254  0.000517  1.027659  0.0  0.131961  0.000527  1.02537  0.0  0.111115  0.125457  0.000477  1.029878  0.0
H  H11  1  0.39614963  0.19718063  0.50300343  1  0.121513  0.000442  0.96086  0.0  0.128256  0.000517  1.027595  0.0  0.131966  0.000527  1.025303  0.0  0.111111  0.125442  0.000477  1.029861  0.0
H  H12  1  0.90053780  0.37780583  0.66503110  1  0.120234  3.3e-05  0.941587  0.0  0.130999  2.6e-05  0.999963  0.0  0.13474  4.9e-05  0.997491  0.0  0.111366  0.128052  2e-06  1.002064  0.0
H  H13  1  0.09945729  0.62219343  0.33497043  1  0.120188  3.4e-05  0.941604  0.0  0.13097  2.6e-05  0.99996  0.0  0.13471  4.9e-05  0.997488  0.0  0.111349  0.128022  2e-06  1.002061  0.0
H  H14  1  0.96300932  0.51246620  0.88640985  1  0.099859  0.000352  0.959391  0.0  0.107999  0.000317  1.02531  0.0  0.110667  0.000342  1.024522  0.0  0.106036  0.105936  0.000293  1.025626  0.0
H  H15  1  0.03698462  0.48752816  0.11359680  1  0.099941  0.000349  0.959445  0.0  0.108068  0.000317  1.025359  0.0  0.110737  0.000342  1.024572  0.0  0.106112  0.106003  0.000293  1.025675  0.0
H  H16  1  0.76812089  0.25655619  0.50529239  1  0.091844  0.00025  0.988835  0.0  0.098187  -0.000131  1.056661  0.0  0.101636  -3.1e-05  1.052402  0.0  0.129765  0.095544  -0.000236  1.060156  0.0
H  H17  1  0.23189114  0.74344933  0.49470258  1  0.091831  0.000254  0.988876  0.0  0.098163  -0.000131  1.056707  0.0  0.10161  -3.1e-05  1.052454  0.0  0.129767  0.095523  -0.000236  1.060195  0.0
H  H18  1  0.63847988  0.71794703  0.28155952  1  0.129781  0.000288  0.981663  0.0  0.134618  0.000201  1.048649  0.0  0.138766  0.000306  1.045126  0.0  0.125634  0.131316  8.3e-05  1.051524  0.0
H  H19  1  0.36152168  0.28205598  0.71843429  1  0.129747  0.000291  0.981664  0.0  0.134574  0.000201  1.048658  0.0  0.13872  0.000306  1.045138  0.0  0.125593  0.131275  8.3e-05  1.051534  0.0
H  H20  1  0.62409992  0.48401574  0.08116095  1  0.112062  0.00033  0.959725  0.0  0.120601  0.000141  1.021656  0.0  0.123233  0.000213  1.020642  0.0  0.119902  0.118706  5.9e-05  1.021874  0.0
H  H21  1  0.37589657  0.51598113  0.91883729  1  0.112035  0.000322  0.959759  0.0  0.120603  0.000141  1.021657  0.0  0.123235  0.000213  1.020643  0.0  0.11989  0.118707  5.9e-05  1.021876  0.0
C  C22  1  0.74767809  0.58132591  0.56519970  1  0.186619  -0.002016  3.771543  -0.002  0.177225  -0.002529  4.024949  -0.002  0.1841  -0.001875  4.045709  -0.002  0.097391  0.172194  -0.004408  4.011553  -0.004
C  C23  1  0.25232731  0.41868078  0.43479343  1  0.186532  -0.002038  3.771541  -0.002  0.177092  -0.002532  4.025036  -0.002  0.183989  -0.001872  4.045766  -0.002  0.097302  0.172064  -0.00441  4.011634  -0.004
C  C24  1  0.82076432  0.73421770  0.82003838  1  -0.104856  0.001131  3.756386  0.001  -0.089119  -0.000244  3.990976  0.0  -0.095865  0.000573  4.011961  0.0  -0.016438  -0.086406  -0.001087  3.978421  -0.001
C  C25  1  0.17923329  0.26578525  0.17995916  1  -0.104933  0.001148  3.756669  0.001  -0.089232  -0.000245  3.991253  0.0  -0.095976  0.000573  4.012238  0.0  -0.016487  -0.08652  -0.001087  3.978692  -0.001
C  C26  1  0.68149528  0.73749300  0.58246535  1  -0.142346  0.001539  3.703619  0.001  -0.174675  0.00025  3.959154  0.0  -0.176977  0.000862  3.976671  0.0  -0.084047  -0.175106  -8.6e-05  3.950168  0.0
C  C27  1  0.31851930  0.26251499  0.41752689  1  -0.142351  0.00157  3.703491  0.001  -0.174656  0.000253  3.959006  0.0  -0.176957  0.000857  3.9765  0.0  -0.083972  -0.175088  -8.6e-05  3.950002  0.0
C  C28  1  0.71697373  0.81362336  0.70922103  1  -0.068334  -0.001822  3.755194  -0.002  -0.053469  -0.002703  3.98992  -0.002  -0.05681  -0.001908  4.009286  -0.002  -0.011915  -0.05151  -0.003851  3.978734  -0.003
C  C29  1  0.28303278  0.18638938  0.29077480  1  -0.068241  -0.001831  3.755285  -0.002  -0.053317  -0.002704  3.989937  -0.002  -0.056663  -0.001905  4.009309  -0.002  -0.011858  -0.051349  -0.003851  3.978737  -0.003
C  C30  1  0.84785651  0.49962572  0.67620338  1  -0.138851  0.001392  3.703357  0.001  -0.166538  0.0002  3.968587  0.0  -0.169385  0.000698  3.985906  0.0  -0.088242  -0.163299  -2.6e-05  3.956112  0.0
C  C31  1  0.15213974  0.50037844  0.32379302  1  -0.138754  0.001413  3.70351  0.001  -0.166446  0.000201  3.968712  0.0  -0.169312  0.000693  3.986055  0.0  -0.088234  -0.163202  -2.6e-05  3.956224  0.0
C  C32  1  0.88348903  0.57659568  0.80180938  1  -0.044014  -0.001335  3.739861  -0.001  -0.068832  -0.001642  3.996049  -0.002  -0.067837  -0.00116  4.015307  -0.001  -0.078565  -0.068994  -0.002989  3.982354  -0.003
C  C33  1  0.11650994  0.42340606  0.19818931  1  -0.044027  -0.001347  3.740024  -0.001  -0.068806  -0.001641  3.996165  -0.002  -0.067815  -0.00116  4.015424  -0.001  -0.078555  -0.068979  -0.00299  3.9825  -0.003
C  C34  1  0.86453361  0.81577493  0.95509492  1  0.676706  -0.011928  3.871783  -0.012  0.616719  -0.019572  4.175058  -0.018  0.653561  -0.014597  4.165484  -0.014  0.226802  0.591026  -0.025779  4.180518  -0.022
C  C35  1  0.13546803  0.18422559  0.04490934  1  0.676801  -0.011933  3.871798  -0.012  0.616837  -0.019573  4.175044  -0.018  0.653683  -0.014597  4.165468  -0.014  0.226798  0.591146  -0.025779  4.180501  -0.022
C  C36  1  0.73804902  0.34766398  0.41245485  1  0.154473  -0.004956  3.655592  -0.005  0.097461  -0.00735  3.926471  -0.007  0.110615  -0.006226  3.938673  -0.006  0.13917  0.088298  -0.008497  3.918945  -0.008
C  C37  1  0.26195913  0.65233908  0.58754181  1  0.154424  -0.004955  3.655616  -0.005  0.097422  -0.00735  3.926499  -0.007  0.110575  -0.006227  3.938702  -0.006  0.139112  0.088257  -0.008498  3.918974  -0.008
C  C38  1  0.64954550  0.98500298  0.71613885  1  0.674326  -0.005352  3.866319  -0.006  0.61514  -0.009371  4.170191  -0.009  0.65068  -0.006806  4.160074  -0.007  0.225279  0.590661  -0.012378  4.17624  -0.011
C  C39  1  0.35046253  0.01500369  0.28385973  1  0.674366  -0.005351  3.866571  -0.006  0.615139  -0.009372  4.170514  -0.009  0.650687  -0.006808  4.160387  -0.007  0.225239  0.590658  -0.01238  4.176567  -0.011
C  C40  1  0.66425253  0.58836843  0.29632133  1  -0.051222  0.001272  3.617999  0.001  -0.09345  0.000478  3.880775  0.0  -0.091635  0.001094  3.897932  0.0  0.003585  -0.092657  -0.000489  3.867298  0.0
C  C41  1  0.33574787  0.41162968  0.70367760  1  -0.051201  0.001243  3.617857  0.001  -0.093392  0.000478  3.880615  0.0  -0.091587  0.001094  3.897803  0.0  0.00361  -0.092597  -0.000489  3.867127  0.0
C  C42  1  0.65932775  0.47203367  0.19812046  1  0.013298  -0.001658  3.7234  -0.002  -0.01904  -0.003076  3.993236  -0.003  -0.017996  -0.002514  4.01353  -0.003  0.004288  -0.018442  -0.003577  3.976955  -0.004
C  C43  1  0.34067389  0.52796689  0.80187699  1  0.013283  -0.001627  3.723478  -0.002  -0.019095  -0.003077  3.993318  -0.003  -0.018053  -0.002516  4.013612  -0.003  0.004282  -0.018496  -0.003578  3.977035  -0.004
N  N44  1  0.71547421  0.50828519  0.43258698  1  -0.089053  -0.001359  3.596369  -0.001  -2.3e-05  -0.002642  3.807469  -0.003  -0.015485  -0.00209  3.83398  -0.002  -0.225574  0.009736  -0.003247  3.789606  -0.003
N  N45  1  0.28453127  0.49171905  0.56740979  1  -0.088965  -0.001357  3.596219  -0.001  6.6e-05  -0.002642  3.807327  -0.003  -0.015406  -0.00209  3.833832  -0.002  -0.225528  0.009826  -0.003247  3.78946  -0.003
N  N46  1  0.70575059  0.32257704  0.27145112  1  -0.408865  -0.028533  3.269207  -0.013  -0.342814  -0.032492  3.562554  -0.012  -0.362939  -0.029056  3.577812  -0.01  -0.346481  -0.329353  -0.035776  3.55203  -0.015
N  N47  1  0.29425760  0.67742479  0.72854679  1  -0.408801  -0.028545  3.269231  -0.013  -0.342741  -0.032491  3.562577  -0.012  -0.362863  -0.029054  3.577833  -0.01  -0.346426  -0.329283  -0.035776  3.552063  -0.015
O  O48  1  0.48531864  0.01452351  0.71614932  1  -0.630697  -0.026419  2.025566  -0.014  -0.563547  -0.03321  2.287289  -0.018  -0.59205  -0.029862  2.27355  -0.015  -0.300532  -0.542608  -0.036455  2.296096  -0.021
O  O49  1  0.51468952  0.98547950  0.28385416  1  -0.630546  -0.026417  2.025759  -0.014  -0.563518  -0.033212  2.287683  -0.018  -0.592023  -0.029863  2.273939  -0.015  -0.300381  -0.542587  -0.036457  2.296494  -0.021
O  O50  1  0.73641534  0.88657701  0.02877700  1  -0.666802  -0.029847  2.10464  -0.018  -0.589538  -0.037437  2.359451  -0.023  -0.620464  -0.033503  2.346702  -0.019  -0.297712  -0.567015  -0.041098  2.367788  -0.026
O  O51  1  0.26357875  0.11341251  0.97123012  1  -0.66687  -0.029844  2.104611  -0.018  -0.589563  -0.037439  2.35933  -0.023  -0.620502  -0.033504  2.346585  -0.019  -0.297658  -0.56704  -0.0411  2.367675  -0.026
O  O52  1  0.02220150  0.81125174  0.99016610  1  -0.625883  -0.028411  2.004356  -0.016  -0.561536  -0.037354  2.265833  -0.022  -0.589824  -0.032373  2.252283  -0.018  -0.301882  -0.540967  -0.042481  2.274617  -0.026
O  O53  1  0.97780154  0.18874639  0.00983488  1  -0.625912  -0.028409  2.004379  -0.016  -0.561621  -0.037355  2.265878  -0.022  -0.58991  -0.032374  2.252326  -0.018  -0.301925  -0.54105  -0.042482  2.27466  -0.026
O  O54  1  0.40630915  0.77478525  0.03023173  1  -0.823473  -0.031979  1.89265  -0.021  -0.760918  -0.040413  2.107858  -0.026  -0.78528  -0.036131  2.075578  -0.022  -0.566386  -0.742485  -0.044203  2.130356  -0.029
O  O55  1  0.59368614  0.22520794  0.96977152  1  -0.823537  -0.031977  1.892462  -0.021  -0.761009  -0.040414  2.10767  -0.026  -0.785342  -0.036131  2.075453  -0.022  -0.56644  -0.742611  -0.044204  2.130196  -0.029
O  O56  1  0.76296226  0.09585803  0.71735472  1  -0.651176  -0.003493  2.019653  -0.005  -0.584297  -0.006422  2.240364  -0.008  -0.610269  -0.00471  2.228466  -0.006  -0.306353  -0.565985  -0.008595  2.248577  -0.01
O  O57  1  0.23704573  0.90414988  0.28264034  1  -0.651366  -0.003499  2.019811  -0.005  -0.584439  -0.006422  2.240518  -0.008  -0.610406  -0.004711  2.228611  -0.006  -0.30651  -0.566133  -0.008596  2.248734  -0.01
O  O58  1  0.09510736  0.01317415  0.66810696  1  -0.811982  -0.028467  1.87473  -0.016  -0.756524  -0.038357  2.088225  -0.022  -0.778026  -0.034519  2.058891  -0.02  -0.561219  -0.740559  -0.041654  2.109771  -0.025
O  O59  1  0.90489728  0.98681551  0.33189359  1  -0.811807  -0.028464  1.874854  -0.016  -0.756369  -0.038354  2.088326  -0.022  -0.77787  -0.034516  2.058998  -0.02  -0.561189  -0.740405  -0.041651  2.109866  -0.025
