# generated using pymatgen
data_LiH29C23NO3
_symmetry_space_group_name_H-M   'P 1'
_cell_length_a   8.98624167
_cell_length_b   9.26163541
_cell_length_c   12.62400987
_cell_angle_alpha   76.04896252
_cell_angle_beta   86.52399704
_cell_angle_gamma   80.97226775
_symmetry_Int_Tables_number   1
_chemical_formula_structural   LiH29C23NO3
_chemical_formula_sum   'Li2 H58 C46 N2 O6'
_cell_volume   1006.75375107
_cell_formula_units_Z   2
loop_
 _symmetry_equiv_pos_site_id
 _symmetry_equiv_pos_as_xyz
  1  'x, y, z'
loop_
 _atom_site_type_symbol
 _atom_site_label
 _atom_site_symmetry_multiplicity
 _atom_site_fract_x
 _atom_site_fract_y
 _atom_site_fract_z
 _atom_site_occupancy
 _atom_site_hle17_bader_spin_density
 _atom_site_hle17_ddec_charge
 _atom_site_hle17_ddec_spin_density
 _atom_site_hle17_ddec_sum_bond_order
 _atom_site_hle17_magmom
 _atom_site_hse06_10hf_bader_spin_density
 _atom_site_hse06_10hf_ddec_charge
 _atom_site_hse06_10hf_ddec_spin_density
 _atom_site_hse06_10hf_ddec_sum_bond_order
 _atom_site_hse06_10hf_magmom
 _atom_site_hse06_bader_spin_density
 _atom_site_hse06_ddec_charge
 _atom_site_hse06_ddec_spin_density
 _atom_site_hse06_ddec_sum_bond_order
 _atom_site_hse06_magmom
 _atom_site_pbe_bader_spin_density
 _atom_site_pbe_cm5_charge
 _atom_site_pbe_ddec_charge
 _atom_site_pbe_ddec_spin_density
 _atom_site_pbe_ddec_sum_bond_order
 _atom_site_pbe_magmom
Li  Li0  1  0.38653732  0.56938460  0.41235316  1  0  0.756946  0  0.539486  0  0  0.682522  0  0.688973  0  0  0.693294  0  0.673996  0  0  0.406482  0.674597  0  0.699703  0
Li  Li1  1  0.61346434  0.43061322  0.58764669  1  0  0.756977  0  0.53944  0  0  0.682517  0  0.688979  0  0  0.693284  0  0.674009  0  0  0.406478  0.67459  0  0.699713  0
H  H2  1  0.92987495  0.22732001  0.21573438  1  0  0.102594  0  0.989181  0  0  0.110724  0  1.056079  0  0  0.113529  0  1.055394  0  0  0.09697  0.109272  0  1.055407  0
H  H3  1  0.07012543  0.77267893  0.78426452  1  0  0.102578  0  0.98912  0  0  0.110686  0  1.056072  0  0  0.113493  0  1.055385  0  0  0.096944  0.109247  0  1.055385  0
H  H4  1  0.75637449  0.44808982  0.11484653  1  0  0.072268  0  1.000917  0  0  0.085095  0  1.066546  0  0  0.086887  0  1.066288  0  0  0.091549  0.083788  0  1.066912  0
H  H5  1  0.24362890  0.55191138  0.88515184  1  0  0.072293  0  1.000906  0  0  0.085137  0  1.066515  0  0  0.086926  0  1.06626  0  0  0.091553  0.083827  0  1.066884  0
H  H6  1  0.99534287  0.99804237  0.09645299  1  0  0.082819  0  0.990372  0  0  0.095058  0  1.055999  0  0  0.097361  0  1.055468  0  0  0.095831  0.094871  0  1.053297  0
H  H7  1  0.00465957  0.00195773  0.90354878  1  0  0.082854  0  0.990266  0  0  0.095088  0  1.055901  0  0  0.097389  0  1.055374  0  0  0.095842  0.094905  0  1.0532  0
H  H8  1  0.49114789  0.78460463  0.04362015  1  0  0.120094  0  0.977605  0  0  0.137916  0  1.042614  0  0  0.139551  0  1.043693  0  0  0.095779  0.136842  0  1.041702  0
H  H9  1  0.50885661  0.21539659  0.95638054  1  0  0.120028  0  0.977631  0  0  0.137858  0  1.042652  0  0  0.139494  0  1.04373  0  0  0.095764  0.136785  0  1.041737  0
H  H10  1  0.56690680  0.60092000  0.02851407  1  0  0.110434  0  0.94909  0  0  0.133284  0  1.010714  0  0  0.13504  0  1.009745  0  0  0.093446  0.131904  0  1.011854  0
H  H11  1  0.43309753  0.39908232  0.97148484  1  0  0.110415  0  0.949043  0  0  0.133265  0  1.010671  0  0  0.135022  0  1.0097  0  0  0.093428  0.131884  0  1.011811  0
H  H12  1  0.68293583  0.71115060  0.07185804  1  0  0.120872  0  0.962117  0  0  0.1442  0  1.023157  0  0  0.145557  0  1.023661  0  0  0.097772  0.14258  0  1.024177  0
H  H13  1  0.31706884  0.28884949  0.92814284  1  0  0.120858  0  0.962136  0  0  0.14417  0  1.023198  0  0  0.145526  0  1.023705  0  0  0.097782  0.142551  0  1.024218  0
H  H14  1  0.37027651  0.19669465  0.16209741  1  0  0.08612  0  0.954713  0  0  0.103354  0  1.007376  0  0  0.105664  0  1.006896  0  0  0.099373  0.101206  0  1.008567  0
H  H15  1  0.62972481  0.80330543  0.83790283  1  0  0.08611  0  0.954739  0  0  0.10336  0  1.007384  0  0  0.10567  0  1.006901  0  0  0.099368  0.101207  0  1.008572  0
H  H16  1  0.61515889  0.82494145  0.25468371  1  0  0.048154  0  0.933623  0  0  0.069097  0  0.980734  0  0  0.069038  0  0.982364  0  0  0.099877  0.06845  0  0.980314  0
H  H17  1  0.38484450  0.17505975  0.74531465  1  0  0.048237  0  0.933633  0  0  0.069178  0  0.980724  0  0  0.069119  0  0.982355  0  0  0.099909  0.068531  0  0.980305  0
H  H18  1  0.11331378  0.22508577  0.09195204  1  0  0.075234  0  0.9704  0  0  0.089604  0  1.02905  0  0  0.092166  0  1.027624  0  0  0.092964  0.086212  0  1.03266  0
H  H19  1  0.88668994  0.77491317  0.90804672  1  0  0.075242  0  0.970435  0  0  0.08961  0  1.029084  0  0  0.092173  0  1.027658  0  0  0.092959  0.086212  0  1.03271  0
H  H20  1  0.66399408  0.99797028  0.07426936  1  0  0.095591  0  0.968031  0  0  0.114938  0  1.03504  0  0  0.11532  0  1.037159  0  0  0.081974  0.114696  0  1.033569  0
H  H21  1  0.33600452  0.00203318  0.92573039  1  0  0.095571  0  0.968069  0  0  0.114919  0  1.035062  0  0  0.115298  0  1.037184  0  0  0.081971  0.114677  0  1.033591  0
H  H22  1  0.77541581  0.02085781  0.17920326  1  0  0.086046  0  0.988228  0  0  0.106684  0  1.055363  0  0  0.107448  0  1.056375  0  0  0.081361  0.107531  0  1.051981  0
H  H23  1  0.22458389  0.97914563  0.82079485  1  0  0.086051  0  0.988194  0  0  0.106692  0  1.055329  0  0  0.107458  0  1.056339  0  0  0.081363  0.107539  0  1.051951  0
H  H24  1  0.61707461  0.15520598  0.13422994  1  0  0.090422  0  0.97115  0  0  0.112123  0  1.034649  0  0  0.1128  0  1.03581  0  0  0.080962  0.110779  0  1.035483  0
H  H25  1  0.38292526  0.84479635  0.86576995  1  0  0.090406  0  0.971123  0  0  0.112117  0  1.034621  0  0  0.112788  0  1.035787  0  0  0.080964  0.110777  0  1.035452  0
H  H26  1  0.79189743  0.01488852  0.58867438  1  0  0.054834  0  0.911963  0  0  0.064465  0  0.978928  0  0  0.064264  0  0.978645  0  0  0.116405  0.064376  0  0.979606  0
H  H27  1  0.20810501  0.98511156  0.41132581  1  0  0.054856  0  0.911919  0  0  0.064489  0  0.97887  0  0  0.064289  0  0.978586  0  0  0.116408  0.064399  0  0.979546  0
H  H28  1  0.90326387  0.15860594  0.59643675  1  0  0.044149  0  0.911875  0  0  0.051532  0  0.98275  0  0  0.052098  0  0.9809  0  0  0.111992  0.051363  0  0.983773  0
H  H29  1  0.09673600  0.84139637  0.40356156  1  0  0.044148  0  0.911885  0  0  0.051539  0  0.982742  0  0  0.052102  0  0.980903  0  0  0.111975  0.051371  0  0.983756  0
H  H30  1  0.90733542  0.77904100  0.25267116  1  0  0.09197  0  0.962984  0  0  0.111629  0  1.029569  0  0  0.113561  0  1.028474  0  0  0.084377  0.110147  0  1.030063  0
H  H31  1  0.09266574  0.22096022  0.74733046  1  0  0.091954  0  0.963024  0  0  0.11163  0  1.029581  0  0  0.11356  0  1.028489  0  0  0.084399  0.110152  0  1.030071  0
H  H32  1  0.90181554  0.61696674  0.20191631  1  0  0.095589  0  0.978773  0  0  0.115515  0  1.044816  0  0  0.116137  0  1.046838  0  0  0.08268  0.115357  0  1.042736  0
H  H33  1  0.09818467  0.38303334  0.79808398  1  0  0.095563  0  0.978779  0  0  0.115491  0  1.044826  0  0  0.116114  0  1.046846  0  0  0.082679  0.115334  0  1.042747  0
H  H34  1  0.89143883  0.79682369  0.11081799  1  0  0.088806  0  0.978638  0  0  0.110794  0  1.044004  0  0  0.111223  0  1.045423  0  0  0.08275  0.109961  0  1.044009  0
H  H35  1  0.10856105  0.20317864  0.88918190  1  0  0.088764  0  0.978629  0  0  0.11074  0  1.044027  0  0  0.111169  0  1.045446  0  0  0.082707  0.109914  0  1.044026  0
H  H36  1  0.49885015  0.92240837  0.41099974  1  0  0.104958  0  0.97796  0  0  0.121413  0  1.045161  0  0  0.123974  0  1.044119  0  0  0.087627  0.119411  0  1.046003  0
H  H37  1  0.50115391  0.07758834  0.58900020  1  0  0.104884  0  0.977988  0  0  0.12133  0  1.045204  0  0  0.123891  0  1.044161  0  0  0.087588  0.119329  0  1.046047  0
H  H38  1  0.51401973  0.11063335  0.33786440  1  0  0.09572  0  0.960166  0  0  0.117435  0  1.023363  0  0  0.117708  0  1.025817  0  0  0.08283  0.116998  0  1.021985  0
H  H39  1  0.48598416  0.88936450  0.66213771  1  0  0.095693  0  0.960167  0  0  0.117393  0  1.023387  0  0  0.117665  0  1.025842  0  0  0.082799  0.116957  0  1.022008  0
H  H40  1  0.67896376  0.97948440  0.37469448  1  0  0.092125  0  0.965235  0  0  0.11185  0  1.029792  0  0  0.113711  0  1.029176  0  0  0.080585  0.110156  0  1.03069  0
H  H41  1  0.32104142  0.02051232  0.62530620  1  0  0.092134  0  0.965203  0  0  0.111864  0  1.02975  0  0  0.113726  0  1.029135  0  0  0.080607  0.110172  0  1.030645  0
H  H42  1  0.10714862  0.32936928  0.35513853  1  0  0.078495  0  0.957477  0  0  0.092159  0  1.028364  0  0  0.092796  0  1.028773  0  0  0.09316  0.092572  0  1.026671  0
H  H43  1  0.89285209  0.67062743  0.64486314  1  0  0.078499  0  0.957422  0  0  0.092144  0  1.028324  0  0  0.092794  0  1.02872  0  0  0.093163  0.092558  0  1.02663  0
H  H44  1  0.24809136  0.23716111  0.45463245  1  0  0.081205  0  0.93887  0  0  0.097952  0  1.005204  0  0  0.099295  0  1.003887  0  0  0.099676  0.096991  0  1.006296  0
H  H45  1  0.75191014  0.76283786  0.54536957  1  0  0.081223  0  0.938857  0  0  0.097955  0  1.005195  0  0  0.099297  0  1.003881  0  0  0.099684  0.096994  0  1.006287  0
H  H46  1  0.30110884  0.35674391  0.32908969  1  0  0.095723  0  0.946611  0  0  0.111036  0  1.014155  0  0  0.111268  0  1.014485  0  0  0.110011  0.111793  0  1.012593  0
H  H47  1  0.69889154  0.64325505  0.67091159  1  0  0.095729  0  0.946546  0  0  0.111026  0  1.014104  0  0  0.111257  0  1.014434  0  0  0.110006  0.111783  0  1.012541  0
H  H48  1  0.16245946  0.61679611  0.24445966  1  0  0.046403  0  0.950237  0  0  0.060081  0  1.011081  0  0  0.061698  0  1.010441  0  0  0.099676  0.059155  0  1.011287  0
H  H49  1  0.83754092  0.38320284  0.75554003  1  0  0.046404  0  0.950237  0  0  0.060076  0  1.011081  0  0  0.061694  0  1.010441  0  0  0.099677  0.05915  0  1.011288  0
H  H50  1  0.28641788  0.60458231  0.06661107  1  0  0.095566  0  0.972191  0  0  0.116622  0  1.03613  0  0  0.117253  0  1.037288  0  0  0.084882  0.116403  0  1.035005  0
H  H51  1  0.71358328  0.39541891  0.93338976  1  0  0.095574  0  0.972203  0  0  0.116629  0  1.036142  0  0  0.11726  0  1.037301  0  0  0.084879  0.11641  0  1.035017  0
H  H52  1  0.12926197  0.71988357  0.99656283  1  0  0.094921  0  0.958481  0  0  0.119291  0  1.017736  0  0  0.119671  0  1.019209  0  0  0.08584  0.119368  0  1.016109  0
H  H53  1  0.87074013  0.28011877  0.00343775  1  0  0.094939  0  0.958445  0  0  0.11932  0  1.017685  0  0  0.119702  0  1.019155  0  0  0.085853  0.119397  0  1.01606  0
H  H54  1  0.11079607  0.53552767  0.07540174  1  0  0.091277  0  0.94693  0  0  0.115987  0  1.004033  0  0  0.117091  0  1.004191  0  0  0.084048  0.114306  0  1.005568  0
H  H55  1  0.88920508  0.46447352  0.92459672  1  0  0.091269  0  0.946925  0  0  0.115975  0  1.004035  0  0  0.117079  0  1.004194  0  0  0.084044  0.114293  0  1.005569  0
H  H56  1  0.11138921  0.52281282  0.58142831  1  0  0.066087  0  0.954584  0  0  0.077808  0  1.01901  0  0  0.077111  0  1.021578  0  0  0.107389  0.078519  0  1.016832  0
H  H57  1  0.88861006  0.47718614  0.41857302  1  0  0.066085  0  0.954578  0  0  0.077815  0  1.018996  0  0  0.077119  0  1.021562  0  0  0.107389  0.078528  0  1.016821  0
H  H58  1  0.07324951  0.34593489  0.56727738  1  0  0.053978  0  0.932452  0  0  0.068657  0  0.995534  0  0  0.06913  0  0.994679  0  0  0.103871  0.068242  0  0.996347  0
H  H59  1  0.92674864  0.65406407  0.43272400  1  0  0.053968  0  0.93247  0  0  0.068664  0  0.995536  0  0  0.069137  0  0.994681  0  0  0.103887  0.068259  0  0.996341  0
C  C60  1  0.61646803  0.47858824  0.25690018  1  0  0.015655  0  3.843118  0  0  0.033521  0  4.083074  0  0  0.026473  0  4.111103  0  0  -0.037164  0.037346  0  4.064404  0
C  C61  1  0.38353346  0.52141069  0.74309789  1  0  0.01562  0  3.843073  0  0  0.033471  0  4.083065  0  0  0.026426  0  4.111087  0  0  -0.037167  0.037295  0  4.064393  0
C  C62  1  0.83666969  0.28316321  0.25708495  1  0  -0.198169  0  3.802842  0  0  -0.21595  0  4.058802  0  0  -0.222201  0  4.079089  0  0  -0.117971  -0.212011  0  4.043807  0
C  C63  1  0.16333180  0.71683573  0.74291391  1  0  -0.198111  0  3.802785  0  0  -0.215878  0  4.058753  0  0  -0.222128  0  4.079041  0  0  -0.117926  -0.211947  0  4.043748  0
C  C64  1  0.68652968  0.30779118  0.41808411  1  0  0.167273  0  3.9456  0  0  0.163211  0  4.204078  0  0  0.167573  0  4.219809  0  0  0.036494  0.15991  0  4.192625  0
C  C65  1  0.31346959  0.69220775  0.58191405  1  0  0.167299  0  3.945528  0  0  0.163233  0  4.204035  0  0  0.167596  0  4.219757  0  0  0.036489  0.159934  0  4.192576  0
C  C66  1  0.33666692  0.82573142  0.20143379  1  0  0.138429  0  3.788124  0  0  0.130895  0  4.039097  0  0  0.136216  0  4.060476  0  0  0.092959  0.126672  0  4.026455  0
C  C67  1  0.66333457  0.17426755  0.79856743  1  0  0.138486  0  3.78799  0  0  0.130834  0  4.039134  0  0  0.136153  0  4.060516  0  0  0.092904  0.126611  0  4.026493  0
C  C68  1  0.52555624  0.61712424  0.19567198  1  0  0.328312  0  3.672297  0  0  0.327893  0  3.924112  0  0  0.343382  0  3.935402  0  0  0.152466  0.317267  0  3.916277  0
C  C69  1  0.47444620  0.38287583  0.80432663  1  0  0.328352  0  3.672133  0  0  0.327927  0  3.923969  0  0  0.343413  0  3.935255  0  0  0.152454  0.317301  0  3.916131  0
C  C70  1  0.40416781  0.95470974  0.20014716  1  0  -0.008372  0  3.651977  0  0  0.009153  0  3.882486  0  0  0.007903  0  3.905477  0  0  -0.007388  0.009702  0  3.866627  0
C  C71  1  0.59583480  0.04528922  0.79985323  1  0  -0.008409  0  3.65194  0  0  0.009104  0  3.882529  0  0  0.007852  0  3.905523  0  0  -0.00734  0.009654  0  3.866671  0
C  C72  1  0.58445999  0.42944774  0.37190531  1  0  -0.652615  0  3.511128  0  0  -0.662991  0  3.81909  0  0  -0.666265  0  3.831525  0  0  -0.239323  -0.659361  0  3.809498  0
C  C73  1  0.41553927  0.57055118  0.62809285  1  0  -0.652571  0  3.511057  0  0  -0.662923  0  3.819033  0  0  -0.666203  0  3.83147  0  0  -0.23928  -0.659299  0  3.809448  0
C  C74  1  0.73691009  0.40695006  0.20214310  1  0  -0.103391  0  3.772283  0  0  -0.124831  0  4.021157  0  0  -0.124433  0  4.04406  0  0  -0.104589  -0.125246  0  4.006181  0
C  C75  1  0.26309124  0.59305001  0.79785556  1  0  -0.103466  0  3.772292  0  0  -0.124918  0  4.021187  0  0  -0.124518  0  4.044088  0  0  -0.104608  -0.125329  0  4.006211  0
C  C76  1  0.10882687  0.98529742  0.12672237  1  0  -0.131438  0  3.803934  0  0  -0.155461  0  4.059701  0  0  -0.157618  0  4.081189  0  0  -0.105644  -0.153589  0  4.042374  0
C  C77  1  0.89117351  0.01470155  0.87327970  1  0  -0.131473  0  3.80382  0  0  -0.15551  0  4.059593  0  0  -0.157665  0  4.081079  0  0  -0.105658  -0.153638  0  4.042258  0
C  C78  1  0.18676969  0.84093475  0.16679801  1  0  -0.016649  0  3.673374  0  0  0.000159  0  3.905616  0  0  -0.001391  0  3.92921  0  0  -0.012398  0.000242  0  3.89115  0
C  C79  1  0.81323181  0.15906423  0.83320401  1  0  -0.01672  0  3.673253  0  0  0.000167  0  3.905459  0  0  -0.001384  0  3.929054  0  0  -0.012432  0.000251  0  3.890995  0
C  C80  1  0.80862120  0.23542010  0.36807874  1  0  0.183408  0  3.852026  0  0  0.173876  0  4.108047  0  0  0.183501  0  4.123043  0  0  0.068316  0.168124  0  4.096503  0
C  C81  1  0.19137918  0.76457884  0.63192016  1  0  0.183416  0  3.851998  0  0  0.173908  0  4.108007  0  0  0.183532  0  4.123001  0  0  0.06834  0.168154  0  4.096467  0
C  C82  1  0.56810764  0.68275261  0.07866135  1  0  -0.38835  0  3.70847  0  0  -0.472676  0  3.945191  0  0  -0.476973  0  3.951597  0  0  -0.241628  -0.469484  0  3.941393  0
C  C83  1  0.43189575  0.31724860  0.92133780  1  0  -0.388252  0  3.708446  0  0  -0.472553  0  3.945113  0  0  -0.476851  0  3.951518  0  0  -0.241605  -0.469364  0  3.941318  0
C  C84  1  0.31971936  0.09678626  0.16268929  1  0  -0.120958  0  3.793843  0  0  -0.140851  0  4.041631  0  0  -0.142826  0  4.063115  0  0  -0.100842  -0.139516  0  4.027146  0
C  C85  1  0.68028197  0.90321384  0.83731333  1  0  -0.12088  0  3.793871  0  0  -0.140762  0  4.041636  0  0  -0.142737  0  4.063121  0  0  -0.100807  -0.13942  0  4.027143  0
C  C86  1  0.56332295  0.94346362  0.23885918  1  0  0.07978  0  3.654448  0  0  0.086637  0  3.879209  0  0  0.087095  0  3.896265  0  0  -0.087169  0.086604  0  3.867268  0
C  C87  1  0.43667787  0.05653985  0.76114205  1  0  0.079688  0  3.654463  0  0  0.08657  0  3.879228  0  0  0.087027  0  3.896282  0  0  -0.087159  0.086536  0  3.867291  0
C  C88  1  0.17455781  0.11301522  0.12432427  1  0  -0.102835  0  3.871358  0  0  -0.120159  0  4.133493  0  0  -0.121435  0  4.154173  0  0  -0.112262  -0.118718  0  4.119875  0
C  C89  1  0.82544240  0.88698487  0.87567681  1  0  -0.102886  0  3.871436  0  0  -0.1202  0  4.133557  0  0  -0.121477  0  4.154236  0  0  -0.112289  -0.118759  0  4.119938  0
C  C90  1  0.65983039  0.03439743  0.15116075  1  0  -0.320128  0  3.691784  0  0  -0.400694  0  3.931201  0  0  -0.40349  0  3.943105  0  0  -0.25033  -0.399447  0  3.922568  0
C  C91  1  0.34016932  0.96560602  0.84883815  1  0  -0.320095  0  3.691815  0  0  -0.400668  0  3.931243  0  0  -0.403456  0  3.943148  0  0  -0.250337  -0.399425  0  3.92261  0
C  C92  1  0.82190955  0.12573223  0.54803658  1  0  0.288816  0  3.526783  0  0  0.207406  0  3.818655  0  0  0.222  0  3.817805  0  0  0.042298  0.197122  0  3.819003  0
C  C93  1  0.17809066  0.87426783  0.45196213  1  0  0.288753  0  3.526774  0  0  0.207386  0  3.818598  0  0  0.221973  0  3.817744  0  0  0.042313  0.197109  0  3.81893  0
C  C94  1  0.94485404  0.72505280  0.18518931  1  0  -0.320109  0  3.688261  0  0  -0.400615  0  3.928706  0  0  -0.403114  0  3.939413  0  0  -0.248762  -0.398254  0  3.920831  0
C  C95  1  0.05514617  0.27494728  0.81481098  1  0  -0.320011  0  3.688276  0  0  -0.400523  0  3.928736  0  0  -0.40302  0  3.939443  0  0  -0.248725  -0.39817  0  3.920855  0
C  C96  1  0.56286709  0.99179792  0.34713058  1  0  -0.317802  0  3.661595  0  0  -0.39339  0  3.897979  0  0  -0.396627  0  3.908029  0  0  -0.246078  -0.390776  0  3.891605  0
C  C97  1  0.43713663  0.00820105  0.65287055  1  0  -0.317722  0  3.661412  0  0  -0.393302  0  3.897818  0  0  -0.39654  0  3.907871  0  0  -0.246068  -0.390689  0  3.891444  0
C  C98  1  0.21162721  0.34021041  0.39188071  1  0  -0.085851  0  3.653676  0  0  -0.177274  0  3.919063  0  0  -0.17152  0  3.922591  0  0  -0.138226  -0.181815  0  3.915939  0
C  C99  1  0.78837205  0.65978856  0.60812141  1  0  -0.085826  0  3.653536  0  0  -0.177231  0  3.918904  0  0  -0.171486  0  3.922421  0  0  -0.138216  -0.181777  0  3.915791  0
C  C100  1  0.11642061  0.70072101  0.17208820  1  0  0.07748  0  3.671187  0  0  0.083604  0  3.90055  0  0  0.083483  0  3.917529  0  0  -0.087942  0.084279  0  3.888095  0
C  C101  1  0.88358261  0.29928133  0.82791155  1  0  0.077519  0  3.671083  0  0  0.083648  0  3.900429  0  0  0.083527  0  3.917408  0  0  -0.08792  0.084321  0  3.887977  0
C  C102  1  0.16376730  0.63603333  0.07197012  1  0  -0.307302  0  3.67136  0  0  -0.382782  0  3.904012  0  0  -0.38507  0  3.915503  0  0  -0.242151  -0.380733  0  3.895918  0
C  C103  1  0.83623385  0.36396787  0.92802913  1  0  -0.30732  0  3.671365  0  0  -0.382812  0  3.904003  0  0  -0.385101  0  3.915495  0  0  -0.242152  -0.380762  0  3.89591  0
C  C104  1  0.07726600  0.46360827  0.52338649  1  0  0.059914  0  3.600526  0  0  0.005731  0  3.860331  0  0  0.011894  0  3.866925  0  0  -0.066223  0.001122  0  3.856406  0
C  C105  1  0.92273326  0.53639069  0.47661405  1  0  0.059993  0  3.600492  0  0  0.005759  0  3.8603  0  0  0.011925  0  3.866888  0  0  -0.066221  0.001135  0  3.85638  0
N  N106  1  0.41359083  0.68115863  0.24654685  1  0  -0.484666  0  3.185975  0  0  -0.439  0  3.451782  0  0  -0.455906  0  3.465278  0  0  -0.385098  -0.428034  0  3.443619  0
N  N107  1  0.58641178  0.31884032  0.75345274  1  0  -0.484684  0  3.185772  0  0  -0.438982  0  3.451632  0  0  -0.455879  0  3.465128  0  0  -0.385065  -0.428012  0  3.443468  0
O  O108  1  0.68911884  0.23584888  0.53156066  1  0  -0.366904  0  2.249735  0  0  -0.293036  0  2.485541  0  0  -0.309292  0  2.484846  0  0  -0.22419  -0.280718  0  2.485297  0
O  O109  1  0.31088043  0.76415006  0.46843829  1  0  -0.366898  0  2.249777  0  0  -0.293076  0  2.485613  0  0  -0.309329  0  2.484922  0  0  -0.224218  -0.280758  0  2.485362  0
O  O110  1  0.88909358  0.11962413  0.44114255  1  0  -0.303557  0  2.210701  0  0  -0.239941  0  2.446021  0  0  -0.256846  0  2.445689  0  0  -0.180473  -0.227825  0  2.445321  0
O  O111  1  0.11090696  0.88037368  0.55885655  1  0  -0.303568  0  2.21074  0  0  -0.24  0  2.44608  0  0  -0.256909  0  2.445749  0  0  -0.180507  -0.227886  0  2.445375  0
O  O112  1  0.19242012  0.46883632  0.43893369  1  0  -0.329391  0  2.317978  0  0  -0.251282  0  2.574152  0  0  -0.266174  0  2.57468  0  0  -0.268828  -0.240735  0  2.574173  0
O  O113  1  0.80757803  0.53116263  0.56106689  1  0  -0.32952  0  2.317935  0  0  -0.251318  0  2.574062  0  0  -0.266216  0  2.574592  0  0  -0.26886  -0.240771  0  2.574086  0
