# generated using pymatgen
data_KH13C12SN2O5
_symmetry_space_group_name_H-M   'P 1'
_cell_length_a   7.18102043
_cell_length_b   12.90307420
_cell_length_c   15.87245582
_cell_angle_alpha   109.67452932
_cell_angle_beta   89.99991314
_cell_angle_gamma   90.00002234
_symmetry_Int_Tables_number   1
_chemical_formula_structural   KH13C12SN2O5
_chemical_formula_sum   'K4 H52 C48 S4 N8 O20'
_cell_volume   1384.83904574
_cell_formula_units_Z   4
loop_
 _symmetry_equiv_pos_site_id
 _symmetry_equiv_pos_as_xyz
  1  'x, y, z'
loop_
 _atom_site_type_symbol
 _atom_site_label
 _atom_site_symmetry_multiplicity
 _atom_site_fract_x
 _atom_site_fract_y
 _atom_site_fract_z
 _atom_site_occupancy
 _atom_site_hle17_bader_spin_density
 _atom_site_hle17_ddec_charge
 _atom_site_hle17_ddec_spin_density
 _atom_site_hle17_ddec_sum_bond_order
 _atom_site_hle17_magmom
 _atom_site_hse06_10hf_bader_spin_density
 _atom_site_hse06_10hf_ddec_charge
 _atom_site_hse06_10hf_ddec_spin_density
 _atom_site_hse06_10hf_ddec_sum_bond_order
 _atom_site_hse06_10hf_magmom
 _atom_site_hse06_bader_spin_density
 _atom_site_hse06_ddec_charge
 _atom_site_hse06_ddec_spin_density
 _atom_site_hse06_ddec_sum_bond_order
 _atom_site_hse06_magmom
 _atom_site_pbe_bader_spin_density
 _atom_site_pbe_cm5_charge
 _atom_site_pbe_ddec_charge
 _atom_site_pbe_ddec_spin_density
 _atom_site_pbe_ddec_sum_bond_order
 _atom_site_pbe_magmom
K  K0  1  0.32013700  0.41361997  0.05542294  1  0  0.931543  0  0.462988  0  0  0.891009  0  0.64038  0  0  0.903725  0  0.618599  0  0  0.782476  0.881111  0  0.656377  0
K  K1  1  0.82013537  0.08638465  0.94457638  1  0  0.931546  0  0.462965  0  0  0.890969  0  0.640402  0  0  0.903696  0  0.618612  0  0  0.782454  0.881061  0  0.65639  0
K  K2  1  0.67986996  0.58638172  0.94457387  1  0  0.931544  0  0.462985  0  0  0.891009  0  0.640376  0  0  0.903722  0  0.618598  0  0  0.782471  0.881091  0  0.656391  0
K  K3  1  0.17986324  0.91361705  0.05542359  1  0  0.931542  0  0.462969  0  0  0.890994  0  0.64038  0  0  0.903712  0  0.618596  0  0  0.782473  0.881114  0  0.656359  0
H  H4  1  0.65972199  0.76451260  0.39874164  1  0  0.090045  0  0.975455  0  0  0.097868  0  1.045283  0  0  0.100424  0  1.043962  0  0  0.101935  0.095991  0  1.046345  0
H  H5  1  0.15972167  0.73548781  0.60125880  1  0  0.089976  0  0.975419  0  0  0.097803  0  1.045257  0  0  0.100359  0  1.043935  0  0  0.101907  0.095933  0  1.046325  0
H  H6  1  0.34027940  0.23548663  0.60125954  1  0  0.089977  0  0.975477  0  0  0.0978  0  1.045323  0  0  0.100356  0  1.044  0  0  0.101911  0.095936  0  1.046381  0
H  H7  1  0.84027833  0.26451389  0.39874117  1  0  0.089989  0  0.975469  0  0  0.097807  0  1.045322  0  0  0.100363  0  1.043999  0  0  0.101906  0.095921  0  1.046398  0
H  H8  1  0.94583021  0.76371761  0.48665973  1  0  0.088109  0  0.967498  0  0  0.098666  0  1.029494  0  0  0.101018  0  1.029472  0  0  0.099109  0.096971  0  1.029618  0
H  H9  1  0.44582879  0.73628361  0.51334136  1  0  0.088115  0  0.967535  0  0  0.09868  0  1.029513  0  0  0.101029  0  1.029498  0  0  0.099139  0.097009  0  1.029626  0
H  H10  1  0.05417258  0.23628162  0.51334082  1  0  0.088115  0  0.967518  0  0  0.09867  0  1.029513  0  0  0.101021  0  1.029496  0  0  0.09913  0.096998  0  1.029617  0
H  H11  1  0.55417121  0.26371645  0.48665879  1  0  0.088115  0  0.967546  0  0  0.098693  0  1.029506  0  0  0.101043  0  1.029491  0  0  0.09912  0.097002  0  1.029637  0
H  H12  1  0.10378690  0.58506282  0.46837575  1  0  0.079898  0  0.962028  0  0  0.093552  0  1.021014  0  0  0.095679  0  1.020303  0  0  0.099918  0.091996  0  1.021609  0
H  H13  1  0.60378409  0.91493760  0.53162347  1  0  0.07989  0  0.96202  0  0  0.09353  0  1.021025  0  0  0.095656  0  1.020315  0  0  0.09992  0.091997  0  1.021601  0
H  H14  1  0.89621589  0.41493559  0.53162457  1  0  0.079903  0  0.962017  0  0  0.09353  0  1.021031  0  0  0.095657  0  1.020318  0  0  0.099917  0.091995  0  1.021613  0
H  H15  1  0.39621731  0.08506327  0.46837753  1  0  0.079958  0  0.961949  0  0  0.093633  0  1.020905  0  0  0.095752  0  1.020202  0  0  0.099907  0.092056  0  1.021503  0
H  H16  1  0.97063178  0.41118183  0.36635778  1  0  0.096872  0  0.96291  0  0  0.106221  0  1.028906  0  0  0.10907  0  1.027945  0  0  0.101689  0.104158  0  1.029737  0
H  H17  1  0.47062985  0.08882032  0.63364203  1  0  0.096871  0  0.962925  0  0  0.106232  0  1.028892  0  0  0.109085  0  1.027929  0  0  0.101711  0.104183  0  1.029719  0
H  H18  1  0.02936823  0.58881740  0.63364277  1  0  0.096911  0  0.962901  0  0  0.106226  0  1.028927  0  0  0.109075  0  1.027966  0  0  0.101727  0.104172  0  1.029757  0
H  H19  1  0.52936876  0.91118138  0.36635983  1  0  0.09689  0  0.962885  0  0  0.106258  0  1.028843  0  0  0.109109  0  1.027881  0  0  0.101712  0.104198  0  1.029668  0
H  H20  1  0.30444931  0.45886528  0.36846625  1  0  0.125848  0  0.94667  0  0  0.148943  0  1.005053  0  0  0.150844  0  1.004777  0  0  0.100378  0.147629  0  1.005221  0
H  H21  1  0.80445009  0.04113606  0.63153408  1  0  0.125914  0  0.946661  0  0  0.149014  0  1.005026  0  0  0.150914  0  1.004753  0  0  0.100399  0.147706  0  1.005191  0
H  H22  1  0.69554791  0.54113559  0.63153286  1  0  0.125921  0  0.946682  0  0  0.149027  0  1.005042  0  0  0.150927  0  1.004767  0  0  0.10041  0.147729  0  1.005203  0
H  H23  1  0.19554992  0.95886482  0.36846566  1  0  0.125849  0  0.946667  0  0  0.148943  0  1.005054  0  0  0.150844  0  1.004778  0  0  0.100371  0.147625  0  1.00522  0
H  H24  1  0.50335965  0.44666704  0.43053398  1  0  0.111204  0  0.967587  0  0  0.132191  0  1.028833  0  0  0.133713  0  1.029103  0  0  0.090788  0.1311  0  1.02865  0
H  H25  1  0.00335931  0.05333267  0.56946548  1  0  0.111203  0  0.967611  0  0  0.132196  0  1.028854  0  0  0.133718  0  1.029124  0  0  0.090796  0.131138  0  1.028646  0
H  H26  1  0.49664035  0.55333301  0.56946490  1  0  0.111202  0  0.967601  0  0  0.132197  0  1.028852  0  0  0.133718  0  1.029123  0  0  0.090796  0.131146  0  1.028642  0
H  H27  1  0.99664069  0.94666656  0.43053381  1  0  0.1112  0  0.967599  0  0  0.132191  0  1.02884  0  0  0.133713  0  1.02911  0  0  0.090786  0.1311  0  1.028657  0
H  H28  1  0.32417342  0.34429366  0.40573435  1  0  0.126805  0  0.959367  0  0  0.146439  0  1.021988  0  0  0.148521  0  1.021867  0  0  0.097048  0.144895  0  1.02218  0
H  H29  1  0.82417580  0.15570686  0.59426511  1  0  0.126867  0  0.95938  0  0  0.146509  0  1.021982  0  0  0.148591  0  1.021861  0  0  0.097084  0.144995  0  1.022165  0
H  H30  1  0.67582380  0.65570640  0.59426517  1  0  0.126862  0  0.959393  0  0  0.146513  0  1.021991  0  0  0.148594  0  1.021869  0  0  0.097085  0.145003  0  1.022171  0
H  H31  1  0.17582560  0.84429320  0.40573378  1  0  0.126831  0  0.959329  0  0  0.146463  0  1.021952  0  0  0.148543  0  1.021833  0  0  0.097072  0.144933  0  1.022145  0
H  H32  1  0.27362105  0.70044015  0.28392169  1  0  0.377806  0  0.902143  0  0  0.339089  0  0.994858  0  0  0.352169  0  0.981284  0  0  0.295951  0.329935  0  1.004288  0
H  H33  1  0.77362311  0.79956108  0.71607827  1  0  0.377812  0  0.902168  0  0  0.339093  0  0.994894  0  0  0.352172  0  0.981321  0  0  0.295932  0.329931  0  1.004342  0
H  H34  1  0.72637756  0.29955990  0.71607909  1  0  0.377865  0  0.90218  0  0  0.33915  0  0.994886  0  0  0.352231  0  0.98131  0  0  0.295953  0.329993  0  1.004325  0
H  H35  1  0.22637550  0.20043980  0.28392210  1  0  0.377801  0  0.902165  0  0  0.33909  0  0.994877  0  0  0.352169  0  0.981304  0  0  0.295942  0.329934  0  1.004314  0
H  H36  1  0.75759692  0.38319191  0.99796572  1  0  0.41606  0  0.893089  0  0  0.388859  0  0.951607  0  0  0.398822  0  0.936972  0  0  0.290216  0.381831  0  0.961909  0
H  H37  1  0.25759295  0.11680696  0.00203334  1  0  0.416067  0  0.893088  0  0  0.38888  0  0.951581  0  0  0.398843  0  0.936947  0  0  0.290235  0.381877  0  0.961851  0
H  H38  1  0.24240726  0.61680814  0.00203380  1  0  0.416075  0  0.893074  0  0  0.388874  0  0.951589  0  0  0.398838  0  0.936954  0  0  0.290223  0.381879  0  0.96185  0
H  H39  1  0.74240566  0.88319391  0.99796514  1  0  0.416068  0  0.893084  0  0  0.388864  0  0.951608  0  0  0.398827  0  0.936973  0  0  0.290188  0.381822  0  0.96193  0
H  H40  1  0.78045318  0.48597928  0.08347814  1  0  0.42255  0  0.872595  0  0  0.398031  0  0.927179  0  0  0.40649  0  0.914762  0  0  0.297091  0.392038  0  0.935984  0
H  H41  1  0.28045304  0.01401877  0.91652130  1  0  0.422534  0  0.872621  0  0  0.39801  0  0.927211  0  0  0.406471  0  0.914793  0  0  0.297082  0.392004  0  0.936035  0
H  H42  1  0.21954961  0.51401995  0.91652115  1  0  0.422556  0  0.872587  0  0  0.398028  0  0.927186  0  0  0.406489  0  0.914767  0  0  0.297089  0.392016  0  0.936021  0
H  H43  1  0.71954696  0.98598128  0.08347758  1  0  0.422545  0  0.872601  0  0  0.398025  0  0.927186  0  0  0.406484  0  0.914771  0  0  0.297098  0.392052  0  0.935961  0
H  H44  1  0.97691403  0.30740550  0.09896685  1  0  0.113124  0  0.952562  0  0  0.131438  0  1.01719  0  0  0.134951  0  1.01459  0  0  0.103684  0.12895  0  1.019002  0
H  H45  1  0.47690989  0.19259418  0.90103479  1  0  0.113049  0  0.952541  0  0  0.131369  0  1.017188  0  0  0.134882  0  1.014587  0  0  0.103656  0.128895  0  1.018982  0
H  H46  1  0.02309294  0.69259208  0.90103199  1  0  0.113136  0  0.952541  0  0  0.131454  0  1.017172  0  0  0.134967  0  1.01457  0  0  0.103703  0.128998  0  1.018965  0
H  H47  1  0.52308733  0.80740423  0.09896616  1  0  0.113058  0  0.95256  0  0  0.131372  0  1.017207  0  0  0.134887  0  1.014604  0  0  0.103662  0.128885  0  1.019029  0
H  H48  1  0.98216803  0.42858707  0.19616185  1  0  0.133371  0  0.969758  0  0  0.151037  0  1.030203  0  0  0.153428  0  1.029584  0  0  0.099836  0.149313  0  1.030684  0
H  H49  1  0.48217110  0.07141179  0.80383831  1  0  0.133308  0  0.969768  0  0  0.150998  0  1.030199  0  0  0.15339  0  1.02958  0  0  0.099835  0.149269  0  1.030694  0
H  H50  1  0.01783336  0.57141134  0.80383848  1  0  0.133344  0  0.969727  0  0  0.151033  0  1.030154  0  0  0.153424  0  1.029535  0  0  0.099844  0.149315  0  1.030643  0
H  H51  1  0.51783030  0.92858662  0.19616013  1  0  0.133317  0  0.969753  0  0  0.151016  0  1.030177  0  0  0.153408  0  1.029558  0  0  0.099834  0.14929  0  1.030657  0
H  H52  1  0.06324983  0.30066594  0.20135340  1  0  0.132049  0  0.947373  0  0  0.15035  0  1.010855  0  0  0.153186  0  1.009715  0  0  0.102397  0.14827  0  1.011743  0
H  H53  1  0.56325155  0.19933707  0.79865006  1  0  0.132046  0  0.947392  0  0  0.150351  0  1.010878  0  0  0.153187  0  1.009738  0  0  0.102413  0.148289  0  1.011749  0
H  H54  1  0.93675435  0.69933330  0.79864904  1  0  0.132099  0  0.947378  0  0  0.150416  0  1.010831  0  0  0.153254  0  1.009693  0  0  0.102448  0.148359  0  1.011706  0
H  H55  1  0.43674985  0.80066463  0.20135179  1  0  0.132044  0  0.947386  0  0  0.150359  0  1.010857  0  0  0.153197  0  1.00972  0  0  0.102423  0.148295  0  1.011734  0
C  C56  1  0.47565775  0.59717122  0.28584819  1  0  0.662953  0  3.807233  0  0  0.619424  0  4.09678  0  0  0.652622  0  4.087122  0  0  0.233334  0.596778  0  4.102961  0
C  C57  1  0.97566547  0.90282836  0.71415685  1  0  0.662838  0  3.807295  0  0  0.619279  0  4.096876  0  0  0.652476  0  4.08722  0  0  0.233277  0.596636  0  4.103062  0
C  C58  1  0.52433946  0.40282637  0.71415128  1  0  0.662794  0  3.80714  0  0  0.619274  0  4.096663  0  0  0.652472  0  4.087007  0  0  0.233304  0.596624  0  4.102855  0
C  C59  1  0.02433593  0.09717252  0.28584478  1  0  0.663186  0  3.807202  0  0  0.619542  0  4.096862  0  0  0.652739  0  4.087202  0  0  0.23337  0.596857  0  4.103028  0
C  C60  1  0.65020111  0.58914666  0.33492970  1  0  -0.122695  0  3.688744  0  0  -0.106843  0  3.91984  0  0  -0.115931  0  3.941766  0  0  -0.015364  -0.100932  0  3.905122  0
C  C61  1  0.15020487  0.91085294  0.66507178  1  0  -0.122727  0  3.688787  0  0  -0.106863  0  3.919874  0  0  -0.115951  0  3.941799  0  0  -0.015433  -0.100966  0  3.905183  0
C  C62  1  0.34979890  0.41085011  0.66507270  1  0  -0.122687  0  3.68874  0  0  -0.106799  0  3.9198  0  0  -0.115885  0  3.941722  0  0  -0.015388  -0.100896  0  3.905111  0
C  C63  1  0.84979652  0.08914958  0.33492967  1  0  -0.122841  0  3.688805  0  0  -0.106912  0  3.919831  0  0  -0.116001  0  3.941755  0  0  -0.01542  -0.101014  0  3.905119  0
C  C64  1  0.72819832  0.68720920  0.39284646  1  0  -0.060898  0  3.742233  0  0  -0.087161  0  3.996794  0  0  -0.086148  0  4.017354  0  0  -0.084895  -0.087645  0  3.982917  0
C  C65  1  0.22819942  0.81279203  0.60715479  1  0  -0.060797  0  3.742186  0  0  -0.087068  0  3.996736  0  0  -0.086054  0  4.017295  0  0  -0.084842  -0.087556  0  3.982869  0
C  C66  1  0.27180169  0.31279168  0.60715517  1  0  -0.060863  0  3.742239  0  0  -0.087144  0  3.996795  0  0  -0.086131  0  4.017355  0  0  -0.08486  -0.087608  0  3.982897  0
C  C67  1  0.77180058  0.18720884  0.39284621  1  0  -0.06074  0  3.742212  0  0  -0.087022  0  3.996738  0  0  -0.086007  0  4.017298  0  0  -0.084844  -0.087518  0  3.982887  0
C  C68  1  0.88952071  0.68696749  0.44112145  1  0  -0.071043  0  3.763943  0  0  -0.085759  0  4.01864  0  0  -0.088922  0  4.039273  0  0  -0.093824  -0.08377  0  4.004781  0
C  C69  1  0.38952059  0.81303291  0.55888009  1  0  -0.071036  0  3.763931  0  0  -0.085758  0  4.018633  0  0  -0.088921  0  4.039263  0  0  -0.093804  -0.083764  0  4.004741  0
C  C70  1  0.11047790  0.31303174  0.55887973  1  0  -0.071043  0  3.7637  0  0  -0.085756  0  4.018399  0  0  -0.088921  0  4.039029  0  0  -0.093794  -0.083763  0  4.004491  0
C  C71  1  0.61047663  0.18696879  0.44112240  1  0  -0.071075  0  3.763828  0  0  -0.085808  0  4.018541  0  0  -0.088972  0  4.039169  0  0  -0.093849  -0.083836  0  4.004697  0
C  C72  1  0.97739957  0.58711899  0.43091970  1  0  -0.042641  0  3.76338  0  0  -0.060909  0  4.01643  0  0  -0.060076  0  4.036196  0  0  -0.084634  -0.06125  0  4.003009  0
C  C73  1  0.47739948  0.91288140  0.56907989  1  0  -0.042631  0  3.763307  0  0  -0.060893  0  4.016373  0  0  -0.060062  0  4.036139  0  0  -0.084622  -0.061216  0  4.002908  0
C  C74  1  0.02259765  0.41288271  0.56908153  1  0  -0.04252  0  3.763188  0  0  -0.060758  0  4.016201  0  0  -0.059922  0  4.035962  0  0  -0.084565  -0.061089  0  4.00274  0
C  C75  1  0.52260192  0.08711865  0.43092152  1  0  -0.042737  0  3.763292  0  0  -0.061022  0  4.016357  0  0  -0.060183  0  4.036125  0  0  -0.084669  -0.061357  0  4.002923  0
C  C76  1  0.90232534  0.48919953  0.37353655  1  0  -0.130018  0  3.728412  0  0  -0.148061  0  3.975423  0  0  -0.153035  0  3.997001  0  0  -0.089914  -0.144823  0  3.960934  0
C  C77  1  0.40232618  0.01080098  0.62646411  1  0  -0.130031  0  3.728496  0  0  -0.14808  0  3.975514  0  0  -0.153055  0  3.997093  0  0  -0.089924  -0.144843  0  3.961023  0
C  C78  1  0.09767188  0.51079889  0.62646630  1  0  -0.130191  0  3.72862  0  0  -0.148206  0  3.975651  0  0  -0.153181  0  3.997229  0  0  -0.090027  -0.144971  0  3.96117  0
C  C79  1  0.59767661  0.98920072  0.37353774  1  0  -0.130028  0  3.728541  0  0  -0.1481  0  3.975569  0  0  -0.153074  0  3.997145  0  0  -0.089951  -0.144871  0  3.961068  0
C  C80  1  0.73825960  0.48710060  0.32472871  1  0  0.104389  0  3.741905  0  0  0.116393  0  3.962214  0  0  0.12117  0  3.987475  0  0  0.010496  0.113363  0  3.945148  0
C  C81  1  0.23826028  0.01289909  0.67526995  1  0  0.104368  0  3.741952  0  0  0.116387  0  3.962252  0  0  0.121161  0  3.987517  0  0  0.010501  0.113348  0  3.945202  0
C  C82  1  0.26173622  0.51289698  0.67527076  1  0  0.10447  0  3.741724  0  0  0.116442  0  3.962067  0  0  0.121216  0  3.987333  0  0  0.010543  0.113391  0  3.945037  0
C  C83  1  0.76173973  0.98710014  0.32472934  1  0  0.104377  0  3.741994  0  0  0.116411  0  3.962228  0  0  0.121186  0  3.987491  0  0  0.010513  0.113383  0  3.945145  0
C  C84  1  0.66352237  0.37842853  0.26781236  1  0  -0.263034  0  3.75257  0  0  -0.254299  0  4.003296  0  0  -0.273887  0  4.029212  0  0  -0.047211  -0.241689  0  3.985898  0
C  C85  1  0.16352293  0.12157035  0.73218802  1  0  -0.262941  0  3.752479  0  0  -0.254236  0  4.003236  0  0  -0.273833  0  4.02915  0  0  -0.047168  -0.241635  0  3.985827  0
C  C86  1  0.33647763  0.62157070  0.73218819  1  0  -0.26294  0  3.752515  0  0  -0.254225  0  4.003262  0  0  -0.273821  0  4.029174  0  0  -0.047174  -0.241599  0  3.98585  0
C  C87  1  0.83647847  0.87842888  0.26781127  1  0  -0.262949  0  3.752548  0  0  -0.25422  0  4.003278  0  0  -0.273813  0  4.029192  0  0  -0.047198  -0.241634  0  3.985863  0
C  C88  1  0.49849424  0.33769515  0.29352607  1  0  0.382245  0  3.713436  0  0  0.366989  0  3.977871  0  0  0.387792  0  3.99039  0  0  0.137961  0.353421  0  3.968868  0
C  C89  1  0.99849485  0.16230371  0.70647218  1  0  0.382181  0  3.713445  0  0  0.366956  0  3.977842  0  0  0.38776  0  3.99036  0  0  0.137969  0.353396  0  3.968805  0
C  C90  1  0.50150437  0.66230326  0.70647173  1  0  0.382173  0  3.713519  0  0  0.366985  0  3.977872  0  0  0.387789  0  3.99039  0  0  0.138003  0.353433  0  3.968836  0
C  C91  1  0.00150516  0.83769635  0.29352670  1  0  0.382089  0  3.713556  0  0  0.366874  0  3.977946  0  0  0.387677  0  3.990468  0  0  0.13794  0.353298  0  3.968915  0
C  C92  1  0.40314973  0.39983807  0.38001111  1  0  -0.375426  0  3.672353  0  0  -0.457909  0  3.908754  0  0  -0.46264  0  3.913977  0  0  -0.239289  -0.454436  0  3.904899  0
C  C93  1  0.90314919  0.10016079  0.61998784  1  0  -0.375539  0  3.672512  0  0  -0.458056  0  3.908911  0  0  -0.462787  0  3.914133  0  0  -0.239307  -0.454593  0  3.905026  0
C  C94  1  0.59685167  0.60016116  0.61998692  1  0  -0.37554  0  3.672548  0  0  -0.458077  0  3.908929  0  0  -0.462807  0  3.914149  0  0  -0.239292  -0.454604  0  3.905034  0
C  C95  1  0.09684942  0.89983843  0.38001082  1  0  -0.375392  0  3.672391  0  0  -0.457892  0  3.908799  0  0  -0.462623  0  3.914023  0  0  -0.239281  -0.454412  0  3.904939  0
C  C96  1  0.76586308  0.31044893  0.19355672  1  0  0.393046  0  3.71254  0  0  0.381139  0  3.980004  0  0  0.403239  0  3.990133  0  0  0.142852  0.366587  0  3.97268  0
C  C97  1  0.26586622  0.18955159  0.80644404  1  0  0.393129  0  3.712294  0  0  0.381197  0  3.979837  0  0  0.403321  0  3.989931  0  0  0.142867  0.366653  0  3.972511  0
C  C98  1  0.23413553  0.68955030  0.80644446  1  0  0.393109  0  3.712414  0  0  0.381182  0  3.979927  0  0  0.403308  0  3.99002  0  0  0.142874  0.366649  0  3.9726  0
C  C99  1  0.73413518  0.81044764  0.19355651  1  0  0.393124  0  3.71234  0  0  0.381151  0  3.979923  0  0  0.403268  0  3.990028  0  0  0.142846  0.366609  0  3.972594  0
C  C100  1  0.95774811  0.33971463  0.17175241  1  0  -0.384203  0  3.675111  0  0  -0.462284  0  3.913102  0  0  -0.467405  0  3.91571  0  0  -0.238997  -0.458458  0  3.911101  0
C  C101  1  0.45775116  0.16028423  0.82824839  1  0  -0.384046  0  3.674999  0  0  -0.462153  0  3.91301  0  0  -0.467281  0  3.915612  0  0  -0.238947  -0.458322  0  3.910989  0
C  C102  1  0.04225189  0.66028378  0.82824854  1  0  -0.384247  0  3.675038  0  0  -0.46236  0  3.913036  0  0  -0.467491  0  3.915636  0  0  -0.239011  -0.458529  0  3.911013  0
C  C103  1  0.54225024  0.83971500  0.17175216  1  0  -0.384084  0  3.674972  0  0  -0.462188  0  3.912965  0  0  -0.467318  0  3.915572  0  0  -0.23898  -0.458357  0  3.910957  0
S  S104  1  0.49203713  0.17970731  0.14525120  1  0  1.396081  0  5.600287  0  0  1.290095  0  6.130783  0  0  1.339815  0  6.108934  0  0  0.644721  1.256095  0  6.144653  0
S  S105  1  0.99204014  0.32029236  0.85474665  1  0  1.396048  0  5.60024  0  0  1.290045  0  6.130746  0  0  1.339761  0  6.108905  0  0  0.64467  1.255979  0  6.14466  0
S  S106  1  0.50796287  0.82029274  0.85474642  1  0  1.396168  0  5.600419  0  0  1.290162  0  6.13093  0  0  1.339883  0  6.109086  0  0  0.644747  1.256104  0  6.144856  0
S  S107  1  0.00796126  0.67970686  0.14525201  1  0  1.396181  0  5.600349  0  0  1.290209  0  6.13083  0  0  1.339929  0  6.10898  0  0  0.644704  1.256181  0  6.144708  0
N  N108  1  0.70476876  0.21281719  0.13835194  1  0  -0.647315  0  2.947607  0  0  -0.603204  0  3.239569  0  0  -0.627914  0  3.243179  0  0  -0.40059  -0.586566  0  3.236663  0
N  N109  1  0.20476760  0.28718745  0.86164746  1  0  -0.647361  0  2.947522  0  0  -0.603244  0  3.239505  0  0  -0.627959  0  3.243103  0  0  -0.400584  -0.586593  0  3.236626  0
N  N110  1  0.29523124  0.78718533  0.86164825  1  0  -0.647323  0  2.947547  0  0  -0.60321  0  3.239524  0  0  -0.627926  0  3.243122  0  0  -0.400571  -0.586582  0  3.236654  0
N  N111  1  0.79523101  0.71281425  0.13835313  1  0  -0.647368  0  2.947537  0  0  -0.60325  0  3.239535  0  0  -0.627963  0  3.243134  0  0  -0.400587  -0.586643  0  3.236677  0
N  N112  1  0.41739857  0.24168706  0.24622067  1  0  -0.616668  0  2.979234  0  0  -0.549481  0  3.246638  0  0  -0.575613  0  3.251637  0  0  -0.353222  -0.531935  0  3.243011  0
N  N113  1  0.91739630  0.25831592  0.75377877  1  0  -0.616744  0  2.979269  0  0  -0.549535  0  3.246631  0  0  -0.575667  0  3.251629  0  0  -0.353237  -0.531974  0  3.242991  0
N  N114  1  0.58260422  0.75831629  0.75377786  1  0  -0.61674  0  2.979244  0  0  -0.549558  0  3.24662  0  0  -0.575691  0  3.25162  0  0  -0.353264  -0.532009  0  3.242995  0
N  N115  1  0.08260370  0.74168578  0.24622056  1  0  -0.616673  0  2.979233  0  0  -0.549506  0  3.246622  0  0  -0.57564  0  3.251622  0  0  -0.35324  -0.53197  0  3.242962  0
O  O116  1  0.48058193  0.06092965  0.12486174  1  0  -0.695986  0  1.992823  0  0  -0.649901  0  2.251305  0  0  -0.669802  0  2.235133  0  0  -0.366476  -0.636023  0  2.261889  0
O  O117  1  0.98058495  0.43907168  0.87514036  1  0  -0.695937  0  1.992765  0  0  -0.649844  0  2.251231  0  0  -0.669747  0  2.235062  0  0  -0.366159  -0.635661  0  2.261712  0
O  O118  1  0.51941390  0.93907123  0.87513926  1  0  -0.696028  0  1.992947  0  0  -0.649907  0  2.251384  0  0  -0.669812  0  2.235214  0  0  -0.366166  -0.635675  0  2.26185  0
O  O119  1  0.01941645  0.56093002  0.12485961  1  0  -0.696028  0  1.992947  0  0  -0.649942  0  2.251405  0  0  -0.669843  0  2.235231  0  0  -0.366434  -0.636011  0  2.261967  0
O  O120  1  0.37945019  0.21759533  0.08348936  1  0  -0.717973  0  1.972056  0  0  -0.659789  0  2.219635  0  0  -0.683404  0  2.205769  0  0  -0.380872  -0.643115  0  2.228528  0
O  O121  1  0.87945296  0.28240847  0.91651222  1  0  -0.71798  0  1.971939  0  0  -0.659779  0  2.219517  0  0  -0.683398  0  2.205654  0  0  -0.380894  -0.643043  0  2.228405  0
O  O122  1  0.62055260  0.78240637  0.91650935  1  0  -0.71803  0  1.972035  0  0  -0.659837  0  2.219611  0  0  -0.683454  0  2.205749  0  0  -0.380814  -0.64301  0  2.228475  0
O  O123  1  0.12054565  0.71759323  0.08348837  1  0  -0.718013  0  1.972049  0  0  -0.659823  0  2.219623  0  0  -0.68344  0  2.205758  0  0  -0.38091  -0.643154  0  2.228529  0
O  O124  1  0.39448264  0.69626016  0.31823746  1  0  -0.565201  0  2.122211  0  0  -0.511029  0  2.353221  0  0  -0.534325  0  2.339383  0  0  -0.335133  -0.494689  0  2.362339  0
O  O125  1  0.89448482  0.80373695  0.68176066  1  0  -0.565151  0  2.122082  0  0  -0.510973  0  2.353085  0  0  -0.534268  0  2.33925  0  0  -0.335042  -0.494594  0  2.362197  0
O  O126  1  0.60551876  0.30373578  0.68176283  1  0  -0.56515  0  2.122099  0  0  -0.511005  0  2.353117  0  0  -0.5343  0  2.339277  0  0  -0.335058  -0.494639  0  2.36223  0
O  O127  1  0.10551518  0.19626228  0.31823800  1  0  -0.565278  0  2.122203  0  0  -0.511084  0  2.353242  0  0  -0.534379  0  2.339402  0  0  -0.335031  -0.494628  0  2.362309  0
O  O128  1  0.41083418  0.52149803  0.22266766  1  0  -0.58815  0  1.962857  0  0  -0.549496  0  2.184421  0  0  -0.56885  0  2.176137  0  0  -0.37217  -0.536128  0  2.189966  0
O  O129  1  0.91083616  0.97850154  0.77732923  1  0  -0.588095  0  1.963036  0  0  -0.54942  0  2.184608  0  0  -0.568773  0  2.176325  0  0  -0.372144  -0.536066  0  2.190174  0
O  O130  1  0.58917140  0.47850367  0.77733294  1  0  -0.588139  0  1.962739  0  0  -0.549479  0  2.184288  0  0  -0.568833  0  2.176007  0  0  -0.372212  -0.536114  0  2.18985  0
O  O131  1  0.08916384  0.02150098  0.22267159  1  0  -0.588231  0  1.962973  0  0  -0.549539  0  2.184594  0  0  -0.568892  0  2.176307  0  0  -0.372182  -0.536144  0  2.190128  0
O  O132  1  0.68603211  0.44266757  0.04179031  1  0  -0.902755  0  1.777229  0  0  -0.861618  0  1.933401  0  0  -0.878733  0  1.905542  0  0  -0.72959  -0.849306  0  1.952875  0
O  O133  1  0.18603047  0.05733048  0.95820857  1  0  -0.90274  0  1.777246  0  0  -0.861605  0  1.933404  0  0  -0.878724  0  1.905546  0  0  -0.729532  -0.849239  0  1.952852  0
O  O134  1  0.31397207  0.55733166  0.95820961  1  0  -0.902761  0  1.777203  0  0  -0.861619  0  1.933374  0  0  -0.878734  0  1.905514  0  0  -0.729558  -0.84929  0  1.952834  0
O  O135  1  0.81396953  0.94267039  0.04178991  1  0  -0.902747  0  1.777206  0  0  -0.861599  0  1.933374  0  0  -0.878717  0  1.905517  0  0  -0.729624  -0.849359  0  1.952859  0
