# generated using pymatgen
data_PrH8C9NO11
_symmetry_space_group_name_H-M   'P 1'
_cell_length_a   8.53277354
_cell_length_b   8.98934235
_cell_length_c   9.47789782
_cell_angle_alpha   99.17543032
_cell_angle_beta   116.44448976
_cell_angle_gamma   92.07816837
_symmetry_Int_Tables_number   1
_chemical_formula_structural   PrH8C9NO11
_chemical_formula_sum   'Pr2 H16 C18 N2 O22'
_cell_volume   637.84614142
_cell_formula_units_Z   2
loop_
 _symmetry_equiv_pos_site_id
 _symmetry_equiv_pos_as_xyz
  1  'x, y, z'
loop_
 _atom_site_type_symbol
 _atom_site_label
 _atom_site_symmetry_multiplicity
 _atom_site_fract_x
 _atom_site_fract_y
 _atom_site_fract_z
 _atom_site_occupancy
 _atom_site_pbe_bader_spin_density
 _atom_site_pbe_cm5_charge
 _atom_site_pbe_ddec_charge
 _atom_site_pbe_ddec_spin_density
 _atom_site_pbe_ddec_sum_bond_order
 _atom_site_pbe_magmom
Pr  Pr0  1  0.67746350  0.29545844  0.30989788  1  0  1.482365  2.094222  0  2.122969  0
Pr  Pr1  1  0.32254269  0.70454071  0.69010194  1  0  1.482385  2.094227  0  2.122933  0
H  H2  1  0.18960707  0.93995548  0.91883611  1  0  0.309294  0.367124  0  0.975117  0
H  H3  1  0.81039161  0.06004524  0.08117045  1  0  0.309325  0.367123  0  0.975126  0
H  H4  1  0.38744462  0.45410463  0.34542355  1  0  0.310245  0.398764  0  0.92394  0
H  H5  1  0.61255857  0.54590031  0.65457791  1  0  0.310269  0.398808  0  0.923899  0
H  H6  1  0.38667928  0.50759982  0.20378532  1  0  0.302062  0.389904  0  0.937806  0
H  H7  1  0.61331104  0.49239033  0.79620400  1  0  0.302041  0.389871  0  0.937864  0
H  H8  1  0.87252564  0.43314570  0.12549199  1  0  0.33667  0.426189  0  0.850353  0
H  H9  1  0.12746812  0.56686604  0.87450235  1  0  0.336592  0.426065  0  0.850508  0
H  H10  1  0.96272580  0.50469558  0.31077674  1  0  0.304959  0.394312  0  0.941136  0
H  H11  1  0.03727654  0.49531260  0.68921950  1  0  0.304967  0.394232  0  0.941255  0
H  H12  1  0.58093124  0.29122738  0.93805666  1  0  0.307855  0.412626  0  0.91152  0
H  H13  1  0.41906623  0.70877431  0.06194427  1  0  0.307842  0.412578  0  0.91158  0
H  H14  1  0.40716696  0.26841834  0.95351478  1  0  0.306378  0.411881  0  0.913578  0
H  H15  1  0.59282845  0.73158683  0.04648681  1  0  0.306393  0.411907  0  0.913545  0
H  H16  1  0.17849269  0.23928114  0.27689391  1  0  0.125373  0.137247  0  0.98672  0
H  H17  1  0.82151652  0.76072035  0.72311056  1  0  0.125384  0.137252  0  0.986782  0
C  C18  1  0.33992343  0.74701378  0.34552143  1  0  0.228592  0.583824  0  4.185837  0
C  C19  1  0.66007456  0.25298320  0.65447490  1  0  0.22858  0.583711  0  4.185918  0
C  C20  1  0.28507581  0.90019305  0.38649610  1  0  0.125771  0.090859  0  3.942971  0
C  C21  1  0.71493413  0.09980495  0.61350611  1  0  0.125876  0.090866  0  3.9433  0
C  C22  1  0.25470910  0.01422165  0.29495242  1  0  0.018708  -0.052183  0  3.882197  0
C  C23  1  0.74528569  0.98577992  0.70504321  1  0  0.018714  -0.052132  0  3.882176  0
C  C24  1  0.20318381  0.14951343  0.34642303  1  0  -0.042675  -0.056252  0  3.839439  0
C  C25  1  0.79682658  0.85048703  0.65358493  1  0  -0.042637  -0.056262  0  3.839422  0
C  C26  1  0.18362958  0.16998469  0.48663201  1  0  0.021596  -0.037354  0  3.867997  0
C  C27  1  0.81637204  0.83001820  0.51337385  1  0  0.021617  -0.0372  0  3.867908  0
C  C28  1  0.21764074  0.05113715  0.57174452  1  0  0.122685  0.08054  0  3.965804  0
C  C29  1  0.78237061  0.94886106  0.42826461  1  0  0.122673  0.080562  0  3.965692  0
C  C30  1  0.20816301  0.06250317  0.72814421  1  0  0.231058  0.574411  0  4.173048  0
C  C31  1  0.79182420  0.93749176  0.27184975  1  0  0.231067  0.574363  0  4.173001  0
C  C32  1  0.28751282  0.00697554  0.15141279  1  0  0.258909  0.643442  0  4.101455  0
C  C33  1  0.71248934  0.99301464  0.84858648  1  0  0.258909  0.643421  0  4.101456  0
C  C34  1  0.14049496  0.32127142  0.54517952  1  0  0.242867  0.654226  0  4.176445  0
C  C35  1  0.85950722  0.67873566  0.45481758  1  0  0.242916  0.654191  0  4.176523  0
N  N36  1  0.26626691  0.92153426  0.52100721  1  0  -0.371616  -0.36183  0  3.595428  0
N  N37  1  0.73373044  0.07845837  0.47899362  1  0  -0.371654  -0.361857  0  3.595631  0
O  O38  1  0.42213753  0.08059581  0.16626008  1  0  -0.335042  -0.596622  0  2.280585  0
O  O39  1  0.57786238  0.91939667  0.83373857  1  0  -0.335069  -0.596589  0  2.280585  0
O  O40  1  0.16389523  0.92974054  0.01699380  1  0  -0.302913  -0.456097  0  2.327377  0
O  O41  1  0.83609458  0.07026239  0.98300426  1  0  -0.302954  -0.456139  0  2.327393  0
O  O42  1  0.35287947  0.71330339  0.21720776  1  0  -0.298027  -0.543686  0  2.19332  0
O  O43  1  0.64710348  0.28668936  0.78278531  1  0  -0.29806  -0.543654  0  2.193257  0
O  O44  1  0.36728753  0.66032038  0.44719683  1  0  -0.384515  -0.645819  0  2.295546  0
O  O45  1  0.63271362  0.33968001  0.55280222  1  0  -0.384515  -0.645784  0  2.29561  0
O  O46  1  0.20935292  0.93453980  0.77546445  1  0  -0.378836  -0.640714  0  2.40179  0
O  O47  1  0.79065519  0.06546292  0.22454184  1  0  -0.378887  -0.640704  0  2.401826  0
O  O48  1  0.20132596  0.18811241  0.80133022  1  0  -0.289329  -0.493014  0  2.135284  0
O  O49  1  0.79867608  0.81188482  0.19867618  1  0  -0.289324  -0.493012  0  2.135348  0
O  O50  1  0.98765978  0.33581457  0.53423700  1  0  -0.368149  -0.656278  0  2.330644  0
O  O51  1  0.01234230  0.66419153  0.46576416  1  0  -0.368136  -0.656305  0  2.330762  0
O  O52  1  0.26476340  0.42736918  0.59723162  1  0  -0.37844  -0.631508  0  2.287408  0
O  O53  1  0.73524128  0.57263688  0.40277056  1  0  -0.378517  -0.631571  0  2.287472  0
O  O54  1  0.38942353  0.41167722  0.24373306  1  0  -0.632732  -0.818376  0  2.051719  0
O  O55  1  0.61057306  0.58831884  0.75626789  1  0  -0.632759  -0.818416  0  2.051708  0
O  O56  1  0.91007909  0.40733645  0.23075089  1  0  -0.604956  -0.808187  0  2.000935  0
O  O57  1  0.08991912  0.59267057  0.76924147  1  0  -0.604885  -0.807986  0  2.001275  0
O  O58  1  0.53487842  0.30496750  0.01736754  1  0  -0.648159  -0.861625  0  2.003804  0
O  O59  1  0.46512168  0.69503419  0.98263547  1  0  -0.648151  -0.861593  0  2.003772  0
