# generated using pymatgen
data_Al3H23C42Br4(ClO2)7
_symmetry_space_group_name_H-M   'P 1'
_cell_length_a   13.57273767
_cell_length_b   13.92252180
_cell_length_c   28.06989502
_cell_angle_alpha   89.58292503
_cell_angle_beta   88.79292430
_cell_angle_gamma   61.15434290
_symmetry_Int_Tables_number   1
_chemical_formula_structural   Al3H23C42Br4(ClO2)7
_chemical_formula_sum   'Al6 H46 C84 Br8 Cl14 O28'
_cell_volume   4645.07891427
_cell_formula_units_Z   2
loop_
 _symmetry_equiv_pos_site_id
 _symmetry_equiv_pos_as_xyz
  1  'x, y, z'
loop_
 _atom_site_type_symbol
 _atom_site_label
 _atom_site_symmetry_multiplicity
 _atom_site_fract_x
 _atom_site_fract_y
 _atom_site_fract_z
 _atom_site_occupancy
 _atom_site_pbe_bader_charge
 _atom_site_pbe_bader_spin_density
 _atom_site_pbe_cm5_charge
 _atom_site_pbe_ddec_charge
 _atom_site_pbe_ddec_spin_density
 _atom_site_pbe_ddec_sum_bond_order
 _atom_site_pbe_magmom
Al  Al0  1  0.59029621  0.58516800  0.49709951  1  2.496626  0  0.40028  1.683154  0  2.555032  0
Al  Al1  1  0.36015229  0.57279789  0.49926228  1  2.477343  0  0.509662  1.658919  0  2.510857  0
Al  Al2  1  0.57708909  0.36096338  0.50044894  1  2.483748  0  0.506906  1.656482  0  2.518984  0
Al  Al3  1  0.07484305  0.07797688  0.99737248  1  2.495809  0  0.399473  1.684135  0  2.554492  0
Al  Al4  1  0.08119813  0.30590843  0.00070579  1  2.47816  0  0.508931  1.656585  0  2.517462  0
Al  Al5  1  0.30144853  0.09754965  0.00083254  1  2.483021  0  0.508106  1.66025  0  2.512383  0
H  H6  1  0.99687538  0.16803888  0.30229327  1  0.081345  0  0.082868  0.105403  0  1.042563  0
H  H7  1  0.31970560  0.01807575  0.21722174  1  0.06579  0  0.102306  0.123464  0  0.976521  0
H  H8  1  0.19059591  0.02548467  0.23482105  1  0.104475  0  0.089408  0.111271  0  1.038069  0
H  H9  1  0.28291954  0.72790428  0.21324698  1  0.132486  0  0.100903  0.111718  0  0.994223  0
H  H10  1  0.33474653  0.50541184  0.26115092  1  0.100139  0  0.08236  0.093411  0  1.066939  0
H  H11  1  0.49534276  0.20689020  0.79262254  1  0.117179  0  0.106399  0.131772  0  0.960957  0
H  H12  1  0.24494287  0.28017961  0.69356020  1  0.096323  0  0.096703  0.090245  0  0.997195  0
H  H13  1  0.34757733  0.16541469  0.78116111  1  0.101194  0  0.102877  0.124814  0  0.979643  0
H  H14  1  0.20662586  0.26871674  0.77302160  1  0.058516  0  0.091486  0.105087  0  1.009633  0
H  H15  1  0.27109600  0.52266189  0.71772257  1  0.084775  0  0.105073  0.133861  0  0.977776  0
H  H16  1  0.17914133  0.46808925  0.70894263  1  0.092548  0  0.106246  0.13767  0  0.971642  0
H  H17  1  0.99257834  0.14757469  0.21959010  1  0.114898  0  0.097685  0.075915  0  0.991732  0
H  H18  1  0.48066839  0.32802533  0.20156196  1  0.113203  0  0.102624  0.09891  0  0.986094  0
H  H19  1  0.46153609  0.40485014  0.73629104  1  0.081536  0  0.101361  0.07917  0  0.97998  0
H  H20  1  0.47360040  0.33616308  0.81311996  1  0.07775  0  0.095657  0.114532  0  1.00377  0
H  H21  1  0.66613373  0.50389241  0.73267262  1  0.042219  0  0.090977  0.111925  0  1.011709  0
H  H22  1  0.97965826  0.37634081  0.78186503  1  0.131185  0  0.093933  0.085898  0  1.027225  0
H  H23  1  0.81750508  0.20189445  0.71328681  1  0.041694  0  0.094718  0.109689  0  0.986006  0
H  H24  1  0.50385238  0.17851860  0.27549631  1  0.068523  0  0.103493  0.101805  0  0.984546  0
H  H25  1  0.94712851  0.18998313  0.69307726  1  0.092161  0  0.086372  0.098381  0  1.030228  0
H  H26  1  0.90207881  0.16169323  0.78893173  1  0.061711  0  0.1066  0.118589  0  0.954558  0
H  H27  1  0.63782349  0.39578502  0.71761487  1  0.10314  0  0.091521  0.108487  0  1.025554  0
H  H28  1  0.70219675  0.48574045  0.28713743  1  0.149399  0  0.080675  0.065516  0  1.069138  0
H  H29  1  0.71093346  0.30050067  0.78926431  1  0.07911  0  0.104399  0.083324  0  0.969617  0
H  H30  1  0.00486452  0.19850821  0.77068026  1  0.06189  0  0.091998  0.095154  0  1.001463  0
H  H31  1  0.28103313  0.75136941  0.80811430  1  0.051313  0  0.088867  0.100741  0  0.996  0
H  H32  1  0.28240085  0.70375898  0.72840638  1  0.048906  0  0.08778  0.08365  0  1.007773  0
H  H33  1  0.15219522  0.89456676  0.70941603  1  0.097012  0  0.109416  0.088607  0  0.94568  0
H  H34  1  0.14714692  0.95165389  0.78791459  1  0.047303  0  0.10803  0.124204  0  0.954178  0
H  H35  1  0.31488631  0.16688226  0.24073395  1  0.079112  0  0.090136  0.083497  0  1.044748  0
H  H36  1  0.20370778  0.03674867  0.76890034  1  0.054792  0  0.094386  0.106192  0  0.996906  0
H  H37  1  0.50849824  0.77743603  0.70320384  1  0.076976  0  0.098511  0.122082  0  0.974961  0
H  H38  1  0.41965232  0.91545652  0.68717236  1  0.064533  0  0.085425  0.103329  0  1.026003  0
H  H39  1  0.73829205  0.48631891  0.20559801  1  0.057371  0  0.094  0.112852  0  0.989167  0
H  H40  1  0.42948634  0.65304965  0.72490678  1  0.042627  0  0.0958  0.105294  0  0.974334  0
H  H41  1  0.42840188  0.69964420  0.80457065  1  0.081425  0  0.08415  0.094878  0  1.023711  0
H  H42  1  0.40405062  0.97192880  0.76543232  1  0.074032  0  0.088907  0.066945  0  1.021375  0
H  H43  1  0.79230286  0.19478117  0.20439703  1  0.077012  0  0.106356  0.136585  0  0.967148  0
H  H44  1  0.00210679  0.29182780  0.29585193  1  0.080326  0  0.09  0.110626  0  1.028735  0
H  H45  1  0.68767567  0.33459517  0.20784965  1  0.063948  0  0.104216  0.131159  0  0.974302  0
H  H46  1  0.87930733  0.45361492  0.21550234  1  0.104097  0  0.095598  0.117008  0  1.000482  0
H  H47  1  0.48525448  0.82902769  0.21417828  1  0.097872  0  0.112522  0.114967  0  0.961749  0
H  H48  1  0.17048478  0.34315634  0.29982512  1  0.085599  0  0.102756  0.110618  0  0.996595  0
H  H49  1  0.41302402  0.92631881  0.28683004  1  0.097977  0  0.090941  0.079063  0  1.042583  0
H  H50  1  0.70302189  0.65923719  0.52240690  1  0.586274  0  0.29504  0.387166  0  0.916754  0
H  H51  1  0.99670440  0.96874863  0.02423560  1  0.582664  0  0.293734  0.385617  0  0.919061  0
C  C52  1  0.39247722  0.70413721  0.43276053  1  1.688261  0  0.285803  0.708127  0  4.147443  0
C  C53  1  0.36194452  0.36186899  0.34653188  1  -0.453673  0  -0.012991  0.001453  0  4.031697  0
C  C54  1  0.76560404  0.26548353  0.27547504  1  0.219701  0  0.074769  0.233025  0  3.674428  0
C  C55  1  0.40482526  0.40004105  0.43388473  1  1.637395  0  0.285111  0.727618  0  4.141639  0
C  C56  1  0.95890258  0.24718946  0.28410986  1  -0.008758  0  -0.173109  -0.256668  0  3.863559  0
C  C57  1  0.96997348  0.23182686  0.22974726  1  0.05516  0  -0.038342  0.063169  0  3.721173  0
C  C58  1  0.89444947  0.29453521  0.11219659  1  0.198232  0  -0.040245  -0.195349  0  3.944934  0
C  C59  1  0.83371543  0.31722344  0.29905300  1  0.127717  0  -0.003512  0.083669  0  3.877791  0
C  C60  1  0.77032840  0.27394194  0.22083128  1  -0.002657  0  -0.157648  -0.295652  0  3.84346  0
C  C61  1  0.85687299  0.31156875  0.20584925  1  0.12947  0  0.001007  0.157847  0  3.887585  0
C  C62  1  0.81516786  0.42952961  0.22419558  1  -0.035719  0  -0.164599  -0.241502  0  3.838484  0
C  C63  1  0.37819335  0.37574656  0.38790525  1  0.210518  0  -0.043689  -0.210712  0  3.949986  0
C  C64  1  0.79146791  0.43455921  0.27808580  1  -0.06628  0  -0.069493  0.03175  0  3.660942  0
C  C65  1  0.87273309  0.30471460  0.15459975  1  -0.459837  0  -0.021339  -0.022341  0  4.016682  0
C  C66  1  0.81413056  0.32477385  0.35006902  1  -0.387238  0  -0.0349  -0.031333  0  4.063045  0
C  C67  1  0.71836316  0.38383113  0.43503151  1  1.628516  0  0.282533  0.714148  0  4.150193  0
C  C68  1  0.78193227  0.34423996  0.39123709  1  0.203037  0  -0.032613  -0.174707  0  3.928718  0
C  C69  1  0.44561767  0.74365197  0.26976696  1  0.001753  0  0.010377  0.103603  0  3.523174  0
C  C70  1  0.32677351  0.93990434  0.28513049  1  -0.026449  0  -0.077959  0.01913  0  3.717619  0
C  C71  1  0.28191894  0.97282605  0.23487074  1  -0.050277  0  -0.167624  -0.255035  0  3.876231  0
C  C72  1  0.29180009  0.92157379  0.11407444  1  0.20088  0  -0.029515  -0.168034  0  3.920468  0
C  C73  1  0.33424186  0.82669651  0.29839930  1  0.106915  0  -0.00318  0.03697  0  3.820219  0
C  C74  1  0.32101008  0.24144248  0.24550177  1  -0.028634  0  -0.073242  -0.06872  0  3.650552  0
C  C75  1  0.43767612  0.78415354  0.21716480  1  0.121749  0  -0.051758  -0.031685  0  3.786825  0
C  C76  1  0.31245237  0.86703842  0.20570056  1  0.132815  0  -0.002731  0.1438  0  3.857367  0
C  C77  1  0.23914992  0.81506175  0.22304503  1  -0.001234  0  -0.082614  -0.091162  0  3.730081  0
C  C78  1  0.22668101  0.82270702  0.27806060  1  0.216436  0  0.059579  0.19031  0  3.707255  0
C  C79  1  0.39051361  0.70075578  0.56593966  1  1.678653  0  0.277234  0.71857  0  4.152083  0
C  C80  1  0.30147412  0.89371991  0.15550123  1  -0.41589  0  -0.034154  -0.035364  0  4.052856  0
C  C81  1  0.34622920  0.80018744  0.34842878  1  -0.307376  0  -0.049007  -0.055173  0  4.131164  0
C  C82  1  0.36066049  0.76473819  0.38871885  1  0.135646  0  -0.018784  -0.139221  0  3.897461  0
C  C83  1  0.45933674  0.32703010  0.73648071  1  0.090499  0  -0.042706  0.061819  0  3.757501  0
C  C84  1  0.31999165  0.25685806  0.71466741  1  -0.019691  0  -0.06572  0.024138  0  3.678166  0
C  C85  1  0.30836361  0.32324201  0.20334032  1  0.123756  0  0.003899  0.074224  0  3.781901  0
C  C86  1  0.29485597  0.24875981  0.76786069  1  -0.05695  0  -0.158439  -0.233034  0  3.832074  0
C  C87  1  0.28813202  0.29735755  0.88984763  1  0.086217  0  -0.030959  -0.184212  0  3.915412  0
C  C88  1  0.35655908  0.34539703  0.70649416  1  0.155756  0  0.000372  0.114889  0  3.869468  0
C  C89  1  0.44501811  0.29584141  0.78772170  1  -0.066544  0  -0.161239  -0.252987  0  3.843261  0
C  C90  1  0.32001803  0.32731656  0.79817054  1  0.162985  0  -0.001631  0.12176  0  3.886387  0
C  C91  1  0.39960752  0.40192007  0.56613685  1  1.662884  0  0.289603  0.727888  0  4.135621  0
C  C92  1  0.24174498  0.44665630  0.78107264  1  0.124742  0  0.043596  0.186388  0  3.642307  0
C  C93  1  0.25631949  0.45385751  0.72665693  1  -0.043231  0  -0.155453  -0.280682  0  3.81536  0
C  C94  1  0.30245520  0.31292171  0.84827481  1  -0.314519  0  -0.016386  -0.004675  0  4.008475  0
C  C95  1  0.37125770  0.36037358  0.65607744  1  0.014792  0  -0.017614  -0.012756  0  4.010627  0
C  C96  1  0.42493368  0.24802812  0.26427296  1  0.008566  0  -0.072634  -0.083288  0  3.632645  0
C  C97  1  0.37851056  0.37715973  0.61395592  1  -0.248976  0  -0.030464  -0.182738  0  3.91361  0
C  C98  1  0.69935935  0.41474842  0.73364289  1  -0.036179  0  -0.164996  -0.253756  0  3.852515  0
C  C99  1  0.88001745  0.41608156  0.71787774  1  0.229795  0  0.0679  0.181642  0  3.676386  0
C  C100  1  0.89014475  0.41254359  0.77393975  1  0.083433  0  -0.050523  -0.03589  0  3.745091  0
C  C101  1  0.90335150  0.30269995  0.88692727  1  -0.358744  0  -0.033117  -0.179566  0  3.93778  0
C  C102  1  0.81125659  0.35769438  0.70368250  1  0.146971  0  -0.001895  0.118638  0  3.879461  0
C  C103  1  0.70438853  0.39808291  0.56676640  1  1.678986  0  0.279387  0.721475  0  4.153358  0
C  C104  1  0.72234687  0.37290891  0.78485302  1  0.107627  0  -0.042408  0.068187  0  3.76758  0
C  C105  1  0.84755493  0.33562776  0.79581066  1  0.157898  0  -0.001094  0.107254  0  3.875074  0
C  C106  1  0.91481954  0.22350296  0.76937080  1  -0.058502  0  -0.153368  -0.189058  0  3.846555  0
C  C107  1  0.34461192  0.34661647  0.29824736  1  0.10401  0  0.007164  0.121607  0  3.777556  0
C  C108  1  0.87572403  0.23484212  0.71768781  1  -0.038029  0  -0.163335  -0.19987  0  3.85656  0
C  C109  1  0.87277634  0.32039228  0.84599515  1  0.134538  0  -0.026338  -0.027725  0  4.04911  0
C  C110  1  0.78481357  0.36886552  0.65365588  1  -0.489254  0  -0.024914  -0.016249  0  4.038432  0
C  C111  1  0.75555867  0.37520206  0.61270560  1  0.244797  0  -0.037316  -0.187778  0  3.932059  0
C  C112  1  0.34924653  0.72485022  0.73502081  1  -0.039242  0  -0.15464  -0.187541  0  3.852981  0
C  C113  1  0.21687435  0.91875176  0.71518981  1  0.088013  0  -0.035734  0.068362  0  3.733413  0
C  C114  1  0.21638433  0.95277462  0.76738609  1  -0.014617  0  -0.151552  -0.236775  0  3.82061  0
C  C115  1  0.23997308  0.33918294  0.27804471  1  -0.000858  0  -0.071237  -0.119507  0  3.620788  0
C  C116  1  0.30691129  0.93055175  0.88309445  1  0.139267  0  -0.042174  -0.202417  0  3.950105  0
C  C117  1  0.33308193  0.82117575  0.70182167  1  0.142879  0  -0.000786  0.138373  0  3.897478  0
C  C118  1  0.41252399  0.33078475  0.22394723  1  -0.052202  0  -0.069815  -0.064478  0  3.636259  0
C  C119  1  0.34871055  0.75562088  0.78770980  1  -0.057432  0  -0.163307  -0.197541  0  3.84742  0
C  C120  1  0.32953446  0.87414935  0.79157402  1  0.14584  0  -0.002222  0.147154  0  3.898404  0
C  C121  1  0.42172828  0.88646474  0.76342237  1  -0.016674  0  -0.067312  0.028577  0  3.692871  0
C  C122  1  0.42765779  0.85003431  0.71145646  1  -0.031433  0  -0.164336  -0.237033  0  3.836541  0
C  C123  1  0.32142695  0.90502682  0.84125052  1  -0.385732  0  -0.018632  -0.01579  0  4.020593  0
C  C124  1  0.34098229  0.78717416  0.65256658  1  -0.070021  0  -0.020734  -0.023952  0  4.02806  0
C  C125  1  0.35801829  0.75291784  0.61190593  1  -0.219197  0  -0.041943  -0.199892  0  3.956288  0
C  C126  1  0.94809114  0.26758918  0.06581178  1  1.700536  0  0.280145  0.720517  0  4.154167  0
C  C127  1  0.22836927  0.42176751  0.23777558  1  0.157993  0  0.025222  0.12996  0  3.708568  0
C  C128  1  0.25108470  0.27111659  0.06729537  1  1.615643  0  0.284047  0.724139  0  4.146482  0
C  C129  1  0.33196811  0.42905151  0.25637114  1  -0.028594  0  -0.07809  -0.114993  0  3.614484  0
C  C130  1  0.26737543  0.96813717  0.06699683  1  1.681021  0  0.281009  0.716878  0  4.153887  0
C  C131  1  0.95569115  0.27243099  0.93262762  1  1.642045  0  0.282463  0.713691  0  4.156743  0
C  C132  1  0.26122198  0.27111312  0.93624509  1  1.662298  0  0.288466  0.72734  0  4.140565  0
C  C133  1  0.27568740  0.97370771  0.93066187  1  1.634358  0  0.281035  0.717516  0  4.15724  0
C  C134  1  0.27513132  0.29701164  0.11342215  1  -0.065865  0  -0.041131  -0.208271  0  3.948593  0
C  C135  1  0.29094231  0.30938544  0.15504615  1  -0.161054  0  -0.014189  0.006511  0  4.050282  0
Br  Br136  1  0.86303839  0.50904265  0.31099551  1  -0.109913  0  0.009069  -0.082871  0  1.368686  0
Br  Br137  1  0.57858387  0.74263933  0.29848277  1  -0.040667  0  0.050351  -0.037403  0  1.459674  0
Br  Br138  1  0.25284972  0.05901198  0.33179341  1  -0.081942  0  0.021646  -0.049696  0  1.361561  0
Br  Br139  1  0.47722807  0.59157903  0.27557972  1  -0.019237  0  0.046635  -0.059055  0  1.799521  0
Br  Br140  1  0.09622752  0.87279037  0.19065904  1  -0.057061  0  0.018216  -0.046056  0  1.386617  0
Br  Br141  1  0.42743484  0.11284509  0.68746580  1  -0.108631  0  0.012628  -0.093134  0  1.406062  0
Br  Br142  1  0.28274630  0.54695751  0.81491605  1  -0.085814  0  0.033958  -0.082269  0  1.410443  0
Br  Br143  1  0.56961889  0.80493027  0.79352364  1  -0.133995  0  -0.02877  -0.132038  0  1.337678  0
Cl  Cl144  1  0.10331560  0.53425571  0.22085529  1  -0.209548  0  -0.037732  -0.116707  0  1.41703  0
Cl  Cl145  1  0.02087176  0.34125098  0.69227219  1  -0.223446  0  -0.017118  -0.113537  0  1.488595  0
Cl  Cl146  1  0.81824139  0.55015911  0.69380666  1  -0.162545  0  -0.009544  -0.086713  0  1.521604  0
Cl  Cl147  1  0.82656402  0.54272185  0.80242043  1  -0.195868  0  -0.028686  -0.071618  0  1.594866  0
Cl  Cl148  1  0.18022411  0.03320168  0.67560577  1  -0.26157  0  -0.044611  -0.140769  0  1.413143  0
Cl  Cl149  1  0.82446632  0.12435280  0.29307411  1  -0.194711  0  -0.014251  -0.09804  0  1.45603  0
Cl  Cl150  1  0.08277646  0.25240351  0.20624634  1  -0.255437  0  -0.013584  -0.101881  0  1.498004  0
Cl  Cl151  1  0.62183907  0.33183914  0.29712746  1  -0.207943  0  0.004848  -0.077567  0  1.565347  0
Cl  Cl152  1  0.20941280  0.71125466  0.30030421  1  -0.169689  0  -0.006548  -0.079568  0  1.570873  0
Cl  Cl153  1  0.10348097  0.94207514  0.29883924  1  -0.169336  0  -0.006871  -0.087006  0  1.71473  0
Cl  Cl154  1  0.50143270  0.67787069  0.17409328  1  -0.209185  0  -0.020093  -0.074644  0  1.486263  0
Cl  Cl155  1  0.59302583  0.22940504  0.71138850  1  -0.240429  0  -0.02299  -0.113145  0  1.475311  0
Cl  Cl156  1  0.09831490  0.48962062  0.79627611  1  -0.181431  0  -0.008467  -0.096644  0  1.564725  0
Cl  Cl157  1  0.62022886  0.47146342  0.82527049  1  -0.243903  0  -0.043701  -0.12517  0  1.418239  0
O  O158  1  0.68474221  0.48261080  0.44588270  1  -1.208856  0  -0.199306  -0.538381  0  2.275923  0
O  O159  1  0.32458266  0.18051235  0.04833787  1  -1.250554  0  -0.228846  -0.593457  0  2.248288  0
O  O160  1  0.34034013  0.99196644  0.04816439  1  -1.249746  0  -0.238446  -0.598196  0  2.228421  0
O  O161  1  0.48848929  0.67904266  0.44801862  1  -1.209244  0  -0.192285  -0.5194  0  2.277223  0
O  O162  1  0.17938785  0.99370932  0.94567024  1  -1.219367  0  -0.202084  -0.543358  0  2.291535  0
O  O163  1  0.97967440  0.17870174  0.94826668  1  -1.208305  0  -0.198802  -0.534737  0  2.281388  0
O  O164  1  0.97750763  0.34319435  0.95243859  1  -1.25317  0  -0.237871  -0.599447  0  2.235924  0
O  O165  1  0.16592555  0.33851937  0.95475752  1  -1.237069  0  -0.221687  -0.579616  0  2.240844  0
O  O166  1  0.33254489  0.17964105  0.95414919  1  -1.243952  0  -0.223349  -0.583472  0  2.245412  0
O  O167  1  0.34699435  0.99174026  0.95335270  1  -1.259364  0  -0.242437  -0.607147  0  2.22906  0
O  O168  1  0.15332890  0.16132576  0.99992681  1  -1.60935  0  -0.391199  -1.275197  0  2.293032  0
O  O169  1  0.32986429  0.49503310  0.54917745  1  -1.242023  0  -0.222215  -0.580305  0  2.238107  0
O  O170  1  0.32140868  0.67728770  0.45106745  1  -1.248031  0  -0.23493  -0.593018  0  2.232803  0
O  O171  1  0.33215360  0.48948054  0.45410654  1  -1.250277  0  -0.228858  -0.594491  0  2.241061  0
O  O172  1  0.50091327  0.33301768  0.45067090  1  -1.248989  0  -0.225917  -0.588025  0  2.239476  0
O  O173  1  0.69661995  0.31512978  0.45792590  1  -1.256095  0  -0.239887  -0.602265  0  2.232378  0
O  O174  1  0.68831005  0.48582610  0.54671388  1  -1.224799  0  -0.210959  -0.570955  0  2.296899  0
O  O175  1  0.48836761  0.67453644  0.55069147  1  -1.213465  0  -0.208195  -0.557579  0  2.282343  0
O  O176  1  0.31762332  0.68198879  0.54489614  1  -1.248472  0  -0.244862  -0.609825  0  2.229764  0
O  O177  1  0.48984608  0.33053262  0.54530616  1  -1.237976  0  -0.220192  -0.576801  0  2.240095  0
O  O178  1  0.67550126  0.32873768  0.55109103  1  -1.250332  0  -0.238743  -0.599259  0  2.235936  0
O  O179  1  0.50828741  0.50546526  0.49918174  1  -1.609303  0  -0.391257  -1.276878  0  2.30111  0
O  O180  1  0.17578331  0.98538815  0.04926288  1  -1.214405  0  -0.205997  -0.556938  0  2.287557  0
O  O181  1  0.97635774  0.17332853  0.04968936  1  -1.227529  0  -0.208457  -0.562752  0  2.29667  0
O  O182  1  0.96771388  0.34087203  0.04618724  1  -1.25333  0  -0.23874  -0.5991  0  2.230026  0
O  O183  1  0.15643453  0.33773853  0.04917617  1  -1.254575  0  -0.225887  -0.585781  0  2.240107  0
O  O184  1  0.66177063  0.66116992  0.49443220  1  -1.366032  0  -0.57376  -0.992493  0  1.793501  0
O  O185  1  0.00553492  0.00011248  0.99468274  1  -1.36559  0  -0.575079  -0.993221  0  1.792471  0
