# generated using pymatgen
data_ZnH6C10N5Cl
_symmetry_space_group_name_H-M   'P 1'
_cell_length_a   7.76836742
_cell_length_b   8.75693204
_cell_length_c   15.78918741
_cell_angle_alpha   90.00002328
_cell_angle_beta   100.18086330
_cell_angle_gamma   89.99985863
_symmetry_Int_Tables_number   1
_chemical_formula_structural   ZnH6C10N5Cl
_chemical_formula_sum   'Zn4 H24 C40 N20 Cl4'
_cell_volume   1057.18018322
_cell_formula_units_Z   4
loop_
 _symmetry_equiv_pos_site_id
 _symmetry_equiv_pos_as_xyz
  1  'x, y, z'
loop_
 _atom_site_type_symbol
 _atom_site_label
 _atom_site_symmetry_multiplicity
 _atom_site_fract_x
 _atom_site_fract_y
 _atom_site_fract_z
 _atom_site_occupancy
 _atom_site_hle17_bader_spin_density
 _atom_site_hle17_ddec_charge
 _atom_site_hle17_ddec_spin_density
 _atom_site_hle17_ddec_sum_bond_order
 _atom_site_hle17_magmom
 _atom_site_hse06_10hf_bader_spin_density
 _atom_site_hse06_10hf_ddec_charge
 _atom_site_hse06_10hf_ddec_spin_density
 _atom_site_hse06_10hf_ddec_sum_bond_order
 _atom_site_hse06_10hf_magmom
 _atom_site_hse06_bader_spin_density
 _atom_site_hse06_ddec_charge
 _atom_site_hse06_ddec_spin_density
 _atom_site_hse06_ddec_sum_bond_order
 _atom_site_hse06_magmom
 _atom_site_pbe_bader_spin_density
 _atom_site_pbe_cm5_charge
 _atom_site_pbe_ddec_charge
 _atom_site_pbe_ddec_spin_density
 _atom_site_pbe_ddec_sum_bond_order
 _atom_site_pbe_magmom
Zn  Zn0  1  0.27061066  0.82595685  0.17869642  1  0  0.84799  0  2.040905  0  0  0.648568  0  2.529934  0  0  0.689116  0  2.484246  0  0  0.65465  0.62063  0  2.561271  0
Zn  Zn1  1  0.72938830  0.32595595  0.32130259  1  0  0.847988  0  2.040907  0  0  0.648535  0  2.529953  0  0  0.689078  0  2.484274  0  0  0.654653  0.620595  0  2.561292  0
Zn  Zn2  1  0.72938808  0.17404335  0.82130316  1  0  0.847968  0  2.040916  0  0  0.648535  0  2.529951  0  0  0.689083  0  2.484263  0  0  0.654647  0.620596  0  2.561293  0
Zn  Zn3  1  0.27061045  0.67404426  0.67869762  1  0  0.847975  0  2.0409  0  0  0.648544  0  2.52993  0  0  0.68909  0  2.484248  0  0  0.654655  0.620607  0  2.561273  0
H  H4  1  0.21176615  0.26446032  0.90549192  1  0  0.106478  0  0.957261  0  0  0.114925  0  1.019815  0  0  0.117985  0  1.018161  0  0  0.09651  0.112676  0  1.021088  0
H  H5  1  0.78823344  0.76446345  0.59450897  1  0  0.106531  0  0.957197  0  0  0.114956  0  1.01979  0  0  0.118014  0  1.018139  0  0  0.096546  0.112706  0  1.021062  0
H  H6  1  0.78823262  0.73553646  0.09450956  1  0  0.106515  0  0.957166  0  0  0.11493  0  1.019773  0  0  0.117985  0  1.018127  0  0  0.096526  0.112679  0  1.021045  0
H  H7  1  0.21176664  0.23553904  0.40549325  1  0  0.106503  0  0.957294  0  0  0.114965  0  1.019827  0  0  0.118026  0  1.018172  0  0  0.096513  0.112714  0  1.021098  0
H  H8  1  0.36324301  0.90113827  0.01571795  1  0  0.084547  0  1.000817  0  0  0.083841  0  1.080393  0  0  0.088043  0  1.075082  0  0  0.119606  0.080744  0  1.084229  0
H  H9  1  0.63675181  0.40113884  0.48428073  1  0  0.084506  0  1.00081  0  0  0.083813  0  1.080373  0  0  0.088017  0  1.075058  0  0  0.119587  0.080719  0  1.084203  0
H  H10  1  0.63674921  0.09886422  0.98428298  1  0  0.084541  0  1.000756  0  0  0.08381  0  1.080364  0  0  0.087994  0  1.075071  0  0  0.119581  0.080713  0  1.0842  0
H  H11  1  0.36324693  0.59886251  0.51571885  1  0  0.084539  0  1.000785  0  0  0.08384  0  1.080355  0  0  0.088035  0  1.07505  0  0  0.119603  0.080743  0  1.084189  0
H  H12  1  0.08102469  0.25396449  0.15963141  1  0  0.093951  0  0.964521  0  0  0.097947  0  1.037122  0  0  0.100727  0  1.035762  0  0  0.09042  0.095881  0  1.038158  0
H  H13  1  0.91897054  0.75396866  0.34036791  1  0  0.093906  0  0.964643  0  0  0.09791  0  1.037228  0  0  0.100687  0  1.035862  0  0  0.090411  0.095842  0  1.038268  0
H  H14  1  0.91897406  0.74603229  0.84036944  1  0  0.093967  0  0.964526  0  0  0.097963  0  1.03712  0  0  0.100741  0  1.035753  0  0  0.090441  0.095895  0  1.038168  0
H  H15  1  0.08102557  0.24603383  0.65963145  1  0  0.093955  0  0.964518  0  0  0.097946  0  1.037128  0  0  0.100724  0  1.03576  0  0  0.090421  0.095878  0  1.038173  0
H  H16  1  0.15308144  0.52629952  0.17992013  1  0  0.104036  0  0.974979  0  0  0.112505  0  1.041796  0  0  0.115596  0  1.040061  0  0  0.095219  0.11024  0  1.043218  0
H  H17  1  0.84691703  0.02630293  0.32007814  1  0  0.104012  0  0.974957  0  0  0.11254  0  1.041729  0  0  0.115631  0  1.039994  0  0  0.095234  0.110276  0  1.04315  0
H  H18  1  0.84692123  0.47369954  0.82008104  1  0  0.103938  0  0.975021  0  0  0.11244  0  1.041818  0  0  0.115531  0  1.040083  0  0  0.095198  0.110175  0  1.043241  0
H  H19  1  0.15308038  0.97369842  0.67992006  1  0  0.103969  0  0.974898  0  0  0.112438  0  1.041736  0  0  0.115529  0  1.039999  0  0  0.095182  0.110173  0  1.043159  0
H  H20  1  0.32294001  0.50399727  0.85155131  1  0  0.104173  0  0.967589  0  0  0.10609  0  1.04729  0  0  0.110045  0  1.042411  0  0  0.107391  0.103161  0  1.050837  0
H  H21  1  0.67706683  0.00399977  0.64844950  1  0  0.104052  0  0.967675  0  0  0.105992  0  1.047355  0  0  0.109947  0  1.042475  0  0  0.107363  0.103063  0  1.050902  0
H  H22  1  0.67707054  0.49600522  0.14845242  1  0  0.104121  0  0.967711  0  0  0.106082  0  1.047327  0  0  0.110038  0  1.042446  0  0  0.107394  0.103151  0  1.050871  0
H  H23  1  0.32293058  0.99600043  0.35154870  1  0  0.104038  0  0.967657  0  0  0.10597  0  1.047352  0  0  0.109925  0  1.042473  0  0  0.107366  0.103039  0  1.050897  0
H  H24  1  0.10812563  0.12242290  0.02257613  1  0  0.088463  0  0.949282  0  0  0.097396  0  1.015336  0  0  0.100015  0  1.014263  0  0  0.097107  0.095433  0  1.016291  0
H  H25  1  0.89187520  0.62241811  0.47742299  1  0  0.088409  0  0.949203  0  0  0.097435  0  1.015174  0  0  0.100062  0  1.014094  0  0  0.097138  0.095473  0  1.016129  0
H  H26  1  0.89187048  0.87757845  0.97742260  1  0  0.088405  0  0.949315  0  0  0.097416  0  1.015298  0  0  0.100047  0  1.014213  0  0  0.09711  0.095453  0  1.016254  0
H  H27  1  0.10812746  0.37757753  0.52257691  1  0  0.088398  0  0.94935  0  0  0.097401  0  1.015332  0  0  0.100013  0  1.014267  0  0  0.097105  0.095439  0  1.016287  0
C  C28  1  0.20349429  0.32075062  0.96619094  1  0  -0.096681  0  3.713158  0  0  -0.118008  0  3.959818  0  0  -0.120135  0  3.982384  0  0  -0.086763  -0.116252  0  3.944435  0
C  C29  1  0.79651553  0.82074226  0.53380575  1  0  -0.096674  0  3.713132  0  0  -0.117987  0  3.95988  0  0  -0.120114  0  3.982456  0  0  -0.086811  -0.11623  0  3.944496  0
C  C30  1  0.79651097  0.67925187  0.03380792  1  0  -0.096735  0  3.713073  0  0  -0.118064  0  3.959827  0  0  -0.120192  0  3.982404  0  0  -0.086813  -0.116305  0  3.944438  0
C  C31  1  0.20349232  0.17925109  0.46619142  1  0  -0.09668  0  3.713157  0  0  -0.118043  0  3.959828  0  0  -0.120172  0  3.9824  0  0  -0.086767  -0.116281  0  3.94444  0
C  C32  1  0.32702433  0.78167980  0.00365729  1  0  0.127991  0  3.637657  0  0  0.086813  0  3.884354  0  0  0.097838  0  3.897492  0  0  0.062798  0.079872  0  3.875263  0
C  C33  1  0.67297346  0.28168829  0.49634288  1  0  0.128054  0  3.63748  0  0  0.086857  0  3.884162  0  0  0.097881  0  3.897297  0  0  0.062806  0.079915  0  3.875072  0
C  C34  1  0.67297443  0.21831584  0.99634420  1  0  0.12799  0  3.637666  0  0  0.086833  0  3.88436  0  0  0.097876  0  3.897513  0  0  0.062791  0.079892  0  3.87527  0
C  C35  1  0.32702528  0.71831534  0.50365670  1  0  0.127998  0  3.637662  0  0  0.086826  0  3.884342  0  0  0.097856  0  3.897484  0  0  0.062799  0.079885  0  3.875256  0
C  C36  1  0.12886058  0.31678208  0.10882217  1  0  -0.031111  0  3.722685  0  0  -0.051078  0  3.979673  0  0  -0.051015  0  4.001903  0  0  -0.085141  -0.050776  0  3.964416  0
C  C37  1  0.87113967  0.81677726  0.39117441  1  0  -0.030875  0  3.722072  0  0  -0.050854  0  3.979129  0  0  -0.050777  0  4.001343  0  0  -0.085003  -0.050556  0  3.963876  0
C  C38  1  0.87113948  0.68321584  0.89117878  1  0  -0.031092  0  3.722787  0  0  -0.051051  0  3.979785  0  0  -0.050979  0  4.002006  0  0  -0.085114  -0.050754  0  3.964532  0
C  C39  1  0.12886031  0.18321723  0.60882147  1  0  -0.031142  0  3.722938  0  0  -0.051112  0  3.979954  0  0  -0.051038  0  4.002169  0  0  -0.085142  -0.050812  0  3.964699  0
C  C40  1  0.34344256  0.71557823  0.92350453  1  0  -0.044626  0  3.784802  0  0  -0.022406  0  4.020523  0  0  -0.031271  0  4.044235  0  0  -0.002009  -0.017103  0  4.004939  0
C  C41  1  0.65656238  0.21557843  0.57649617  1  0  -0.044663  0  3.784755  0  0  -0.022459  0  4.020514  0  0  -0.031322  0  4.044227  0  0  -0.002057  -0.017145  0  4.004913  0
C  C42  1  0.65655750  0.28442198  0.07649580  1  0  -0.044584  0  3.784721  0  0  -0.022396  0  4.020458  0  0  -0.031282  0  4.044192  0  0  -0.001997  -0.017091  0  4.004868  0
C  C43  1  0.34343898  0.78442063  0.42350490  1  0  -0.044706  0  3.784823  0  0  -0.022503  0  4.020588  0  0  -0.031366  0  4.0443  0  0  -0.002086  -0.017184  0  4.004977  0
C  C44  1  0.24795949  0.47743787  0.97645361  1  0  0.014998  0  3.780886  0  0  0.039834  0  4.002424  0  0  0.034641  0  4.028747  0  0  -0.003528  0.042993  0  3.984659  0
C  C45  1  0.75204079  0.97744445  0.52354611  1  0  0.014941  0  3.780542  0  0  0.039663  0  4.002221  0  0  0.034466  0  4.028546  0  0  -0.003585  0.042823  0  3.984459  0
C  C46  1  0.75204058  0.52256234  0.02354734  1  0  0.015028  0  3.780822  0  0  0.039832  0  4.002431  0  0  0.034641  0  4.02875  0  0  -0.003508  0.042992  0  3.984664  0
C  C47  1  0.24795796  0.02256033  0.47645474  1  0  0.014896  0  3.780925  0  0  0.039759  0  4.002439  0  0  0.034564  0  4.028766  0  0  -0.00355  0.042917  0  3.984677  0
C  C48  1  0.17109991  0.46950562  0.12071340  1  0  -0.154996  0  3.730836  0  0  -0.174831  0  3.986287  0  0  -0.181019  0  4.00808  0  0  -0.093486  -0.170809  0  3.971634  0
C  C49  1  0.82889605  0.96951915  0.37928666  1  0  -0.155039  0  3.730617  0  0  -0.174975  0  3.986083  0  0  -0.181167  0  4.007873  0  0  -0.093574  -0.170952  0  3.971433  0
C  C50  1  0.82890539  0.53049116  0.87928863  1  0  -0.154857  0  3.730786  0  0  -0.174703  0  3.986244  0  0  -0.180888  0  4.008033  0  0  -0.093454  -0.170684  0  3.971598  0
C  C51  1  0.17109615  0.03049590  0.62071238  1  0  -0.154867  0  3.730744  0  0  -0.174709  0  3.98619  0  0  -0.180898  0  4.007982  0  0  -0.093427  -0.170688  0  3.971541  0
C  C52  1  0.23217719  0.55251519  0.05550617  1  0  0.204137  0  3.74968  0  0  0.196201  0  3.985355  0  0  0.203028  0  4.008718  0  0  0.109121  0.191766  0  3.969547  0
C  C53  1  0.76782643  0.05251544  0.44449190  1  0  0.204039  0  3.749845  0  0  0.196204  0  3.985447  0  0  0.203034  0  4.008814  0  0  0.109107  0.19177  0  3.969639  0
C  C54  1  0.76782678  0.44748388  0.94449447  1  0  0.204088  0  3.749626  0  0  0.196115  0  3.985395  0  0  0.20294  0  4.008762  0  0  0.10908  0.191681  0  3.969587  0
C  C55  1  0.23217490  0.94748362  0.55550663  1  0  0.204109  0  3.749663  0  0  0.196191  0  3.985298  0  0  0.20302  0  4.008664  0  0  0.109096  0.191759  0  3.969492  0
C  C56  1  0.30545536  0.56214439  0.91054615  1  0  -0.041183  0  3.628727  0  0  -0.079121  0  3.879643  0  0  -0.073065  0  3.894424  0  0  -0.048493  -0.082674  0  3.869514  0
C  C57  1  0.69454738  0.06214909  0.58945369  1  0  -0.041015  0  3.628813  0  0  -0.078936  0  3.879779  0  0  -0.072882  0  3.894564  0  0  -0.048428  -0.082493  0  3.869654  0
C  C58  1  0.69454992  0.43785810  0.08945461  1  0  -0.041197  0  3.628809  0  0  -0.079117  0  3.879703  0  0  -0.073056  0  3.89449  0  0  -0.048522  -0.082669  0  3.869572  0
C  C59  1  0.30545267  0.93785226  0.41054663  1  0  -0.040968  0  3.628663  0  0  -0.078937  0  3.879622  0  0  -0.072884  0  3.894407  0  0  -0.048435  -0.082492  0  3.869493  0
C  C60  1  0.14475467  0.24228562  0.03121041  1  0  -0.055196  0  3.757912  0  0  -0.073545  0  4.019362  0  0  -0.077098  0  4.04253  0  0  -0.087898  -0.071226  0  4.003638  0
C  C61  1  0.85523929  0.74229232  0.46878816  1  0  -0.055206  0  3.758185  0  0  -0.073617  0  4.019643  0  0  -0.077182  0  4.042811  0  0  -0.087926  -0.071295  0  4.003914  0
C  C62  1  0.85524404  0.75771116  0.96878727  1  0  -0.055169  0  3.758062  0  0  -0.07356  0  4.019496  0  0  -0.077125  0  4.042662  0  0  -0.087925  -0.071239  0  4.003767  0
C  C63  1  0.14475688  0.25771131  0.53121437  1  0  -0.055142  0  3.75808  0  0  -0.073534  0  4.01954  0  0  -0.077083  0  4.042711  0  0  -0.08791  -0.071214  0  4.003813  0
C  C64  1  0.41398634  0.81401899  0.86346310  1  0  0.291861  0  3.772162  0  0  0.265952  0  4.034627  0  0  0.277133  0  4.052535  0  0  0.228765  0.258575  0  4.022517  0
C  C65  1  0.58601571  0.31402283  0.63653737  1  0  0.291907  0  3.772147  0  0  0.26601  0  4.034624  0  0  0.27719  0  4.052534  0  0  0.228801  0.25863  0  4.022518  0
C  C66  1  0.58601501  0.18598007  0.13653669  1  0  0.291796  0  3.772198  0  0  0.265923  0  4.034627  0  0  0.277116  0  4.052529  0  0  0.228763  0.258544  0  4.022518  0
C  C67  1  0.41398306  0.68597852  0.36346475  1  0  0.291904  0  3.772052  0  0  0.266005  0  4.034516  0  0  0.277185  0  4.052425  0  0  0.228828  0.258623  0  4.022411  0
N  N68  1  0.27584780  0.70478309  0.06728078  1  0  -0.351678  0  3.280189  0  0  -0.264269  0  3.553867  0  0  -0.284736  0  3.568405  0  0  -0.321876  -0.25056  0  3.543691  0
N  N69  1  0.72415018  0.20478571  0.43271812  1  0  -0.351658  0  3.280022  0  0  -0.264219  0  3.553607  0  0  -0.284689  0  3.568152  0  0  -0.321825  -0.250508  0  3.543434  0
N  N70  1  0.72414835  0.29521369  0.93272112  1  0  -0.351624  0  3.280169  0  0  -0.264191  0  3.553837  0  0  -0.28466  0  3.568378  0  0  -0.321802  -0.250479  0  3.543656  0
N  N71  1  0.27584983  0.79521564  0.56727903  1  0  -0.351635  0  3.280194  0  0  -0.264227  0  3.553848  0  0  -0.284695  0  3.568385  0  0  -0.321814  -0.250518  0  3.543675  0
N  N72  1  0.51027603  0.93703687  0.89120185  1  0  -0.268957  0  2.962781  0  0  -0.24701  0  3.229822  0  0  -0.257668  0  3.245377  0  0  -0.199094  -0.239774  0  3.219285  0
N  N73  1  0.48972697  0.43703975  0.60879809  1  0  -0.269039  0  2.962924  0  0  -0.247095  0  3.229977  0  0  -0.257754  0  3.245536  0  0  -0.199114  -0.239861  0  3.219444  0
N  N74  1  0.48972534  0.06296334  0.10879921  1  0  -0.268993  0  2.962886  0  0  -0.247044  0  3.229924  0  0  -0.257708  0  3.245481  0  0  -0.199119  -0.239809  0  3.219388  0
N  N75  1  0.51027438  0.56296046  0.39120171  1  0  -0.268985  0  2.962839  0  0  -0.247042  0  3.22989  0  0  -0.257703  0  3.245452  0  0  -0.199085  -0.239812  0  3.219356  0
N  N76  1  0.40586941  0.79822348  0.77729691  1  0  -0.315647  0  3.201683  0  0  -0.244945  0  3.504382  0  0  -0.26217  0  3.514876  0  0  -0.229183  -0.233382  0  3.497186  0
N  N77  1  0.59413400  0.29822394  0.72270431  1  0  -0.315676  0  3.201572  0  0  -0.24499  0  3.5043  0  0  -0.262214  0  3.514794  0  0  -0.229197  -0.233427  0  3.497104  0
N  N78  1  0.59413062  0.20177558  0.22270215  1  0  -0.315585  0  3.201503  0  0  -0.244887  0  3.50418  0  0  -0.262115  0  3.514675  0  0  -0.229162  -0.233324  0  3.496982  0
N  N79  1  0.40586998  0.70177512  0.27729634  1  0  -0.315712  0  3.201665  0  0  -0.244999  0  3.504346  0  0  -0.262226  0  3.514844  0  0  -0.229213  -0.233436  0  3.497145  0
N  N80  1  0.50102635  0.91205205  0.75215483  1  0  -0.059127  0  2.927754  0  0  -0.059625  0  3.208513  0  0  -0.056931  0  3.221364  0  0  -0.085263  -0.061124  0  3.199814  0
N  N81  1  0.49897412  0.41205502  0.74784552  1  0  -0.059173  0  2.92779  0  0  -0.059668  0  3.20856  0  0  -0.056974  0  3.221412  0  0  -0.085285  -0.061164  0  3.199857  0
N  N82  1  0.49897239  0.08794359  0.24784474  1  0  -0.059204  0  2.927812  0  0  -0.05968  0  3.208567  0  0  -0.056988  0  3.221421  0  0  -0.085302  -0.06118  0  3.199866  0
N  N83  1  0.50102722  0.58794861  0.25215364  1  0  -0.059123  0  2.927811  0  0  -0.059631  0  3.208582  0  0  -0.056937  0  3.221435  0  0  -0.085244  -0.061129  0  3.199878  0
N  N84  1  0.56106145  0.99340470  0.82111200  1  0  -0.102036  0  3.290609  0  0  -0.038178  0  3.597873  0  0  -0.046455  0  3.610141  0  0  -0.111162  -0.032527  0  3.589582  0
N  N85  1  0.43894009  0.49340661  0.67888783  1  0  -0.101908  0  3.29068  0  0  -0.038051  0  3.59794  0  0  -0.046328  0  3.610211  0  0  -0.11111  -0.0324  0  3.589647  0
N  N86  1  0.43893859  0.00659208  0.17888769  1  0  -0.101938  0  3.290709  0  0  -0.038117  0  3.598015  0  0  -0.046395  0  3.610287  0  0  -0.111123  -0.032466  0  3.58972  0
N  N87  1  0.56106124  0.50659474  0.32111069  1  0  -0.101977  0  3.29056  0  0  -0.038126  0  3.597846  0  0  -0.046405  0  3.610116  0  0  -0.111186  -0.032474  0  3.58955  0
Cl  Cl88  1  0.01530870  0.92597847  0.19185829  1  0  -0.547381  0  0.906113  0  0  -0.477053  0  1.172273  0  0  -0.49259  0  1.149677  0  0  -0.307705  -0.465764  0  1.187661  0
Cl  Cl89  1  0.98469128  0.42597471  0.30814082  1  0  -0.54739  0  0.906125  0  0  -0.477053  0  1.17229  0  0  -0.492588  0  1.14969  0  0  -0.3077  -0.46577  0  1.187689  0
Cl  Cl90  1  0.98469005  0.07401717  0.80814255  1  0  -0.547385  0  0.906115  0  0  -0.477053  0  1.172266  0  0  -0.492599  0  1.149681  0  0  -0.307715  -0.465762  0  1.187657  0
Cl  Cl91  1  0.01531137  0.57401750  0.69185845  1  0  -0.547375  0  0.906121  0  0  -0.477052  0  1.172289  0  0  -0.492596  0  1.149704  0  0  -0.307703  -0.46576  0  1.187682  0
