# generated using pymatgen
data_ZnH22C20(NO)4
_symmetry_space_group_name_H-M   'P 1'
_cell_length_a   7.88441098
_cell_length_b   8.78889956
_cell_length_c   16.42780000
_cell_angle_alpha   84.16704343
_cell_angle_beta   76.90456660
_cell_angle_gamma   63.34968260
_symmetry_Int_Tables_number   1
_chemical_formula_structural   ZnH22C20(NO)4
_chemical_formula_sum   'Zn2 H44 C40 N8 O8'
_cell_volume   990.97042986
_cell_formula_units_Z   2
loop_
 _symmetry_equiv_pos_site_id
 _symmetry_equiv_pos_as_xyz
  1  'x, y, z'
loop_
 _atom_site_type_symbol
 _atom_site_label
 _atom_site_symmetry_multiplicity
 _atom_site_fract_x
 _atom_site_fract_y
 _atom_site_fract_z
 _atom_site_occupancy
 _atom_site_hle17_bader_spin_density
 _atom_site_hle17_ddec_charge
 _atom_site_hle17_ddec_spin_density
 _atom_site_hle17_ddec_sum_bond_order
 _atom_site_hle17_magmom
 _atom_site_hse06_10hf_bader_spin_density
 _atom_site_hse06_10hf_ddec_charge
 _atom_site_hse06_10hf_ddec_spin_density
 _atom_site_hse06_10hf_ddec_sum_bond_order
 _atom_site_hse06_10hf_magmom
 _atom_site_hse06_bader_spin_density
 _atom_site_hse06_ddec_charge
 _atom_site_hse06_ddec_spin_density
 _atom_site_hse06_ddec_sum_bond_order
 _atom_site_hse06_magmom
 _atom_site_pbe_bader_charge
 _atom_site_pbe_bader_spin_density
 _atom_site_pbe_cm5_charge
 _atom_site_pbe_ddec_charge
 _atom_site_pbe_ddec_spin_density
 _atom_site_pbe_ddec_sum_bond_order
 _atom_site_pbe_magmom
Zn  Zn0  1  0.06019818  0.62229949  0.44826771  1  0  1.009601  0  1.861355  0  0  0.818467  0  2.340458  0  0  0.865176  0  2.285309  0  1.25432  0  0.694836  0.785872  0  2.378335  0
Zn  Zn1  1  0.68222254  0.37775235  0.94827354  1  0  1.009529  0  1.861367  0  0  0.818321  0  2.340706  0  0  0.865034  0  2.285578  0  1.253684  0  0.694491  0.785737  0  2.378558  0
H  H2  1  0.36959630  0.75486691  0.48895858  1  0  0.108191  0  0.950585  0  0  0.113822  0  1.020242  0  0  0.116582  0  1.016663  0  0.188727  0  0.138379  0.111735  0  1.022886  0
H  H3  1  0.12400679  0.24493032  0.98889759  1  0  0.107466  0  0.949842  0  0  0.112926  0  1.01972  0  0  0.11568  0  1.016166  0  0.171122  0  0.138179  0.110863  0  1.022281  0
H  H4  1  0.76710866  0.00171352  0.49726784  1  0  0.106846  0  0.960971  0  0  0.11639  0  1.022691  0  0  0.119061  0  1.02118  0  0.128924  0  0.11913  0.114441  0  1.023867  0
H  H5  1  0.76835518  0.99806462  0.99733415  1  0  0.106372  0  0.962108  0  0  0.116645  0  1.022851  0  0  0.119341  0  1.021286  0  0.110404  0  0.119132  0.114636  0  1.024114  0
H  H6  1  0.89264342  0.23951988  0.52883599  1  0  0.122372  0  0.964526  0  0  0.133243  0  1.021516  0  0  0.136038  0  1.020041  0  0.106017  0  0.125365  0.131176  0  1.022727  0
H  H7  1  0.13154157  0.76038302  0.02908471  1  0  0.121812  0  0.966087  0  0  0.132765  0  1.023092  0  0  0.135474  0  1.021688  0  0.159732  0  0.125166  0.130746  0  1.024234  0
H  H8  1  0.25435218  0.20892730  0.50564962  1  0  0.097582  0  0.941611  0  0  0.110288  0  1.005431  0  0  0.11222  0  1.003637  0  0.126302  0  0.109565  0.108758  0  1.006819  0
H  H9  1  0.46282250  0.79108381  0.00583739  1  0  0.097156  0  0.940989  0  0  0.110135  0  1.004465  0  0  0.112045  0  1.002685  0  0.092193  0  0.109507  0.108631  0  1.005907  0
H  H10  1  0.43979255  0.99529192  0.50594644  1  0  0.089713  0  0.936858  0  0  0.105504  0  0.99881  0  0  0.106826  0  0.997645  0  0.096651  0  0.112997  0.104426  0  0.99978  0
H  H11  1  0.43440461  0.00481721  0.00600426  1  0  0.090278  0  0.935426  0  0  0.105764  0  0.997979  0  0  0.107018  0  0.996833  0  0.095389  0  0.113197  0.104762  0  0.99894  0
H  H12  1  0.27824263  0.96376111  0.65462649  1  0  0.074374  0  0.943631  0  0  0.088923  0  1.009392  0  0  0.089066  0  1.011574  0  0.041879  0  0.092774  0.088705  0  1.008012  0
H  H13  1  0.24184431  0.03653898  0.15474334  1  0  0.074512  0  0.94276  0  0  0.088629  0  1.009202  0  0  0.088757  0  1.011382  0  0.044416  0  0.092456  0.08844  0  1.007793  0
H  H14  1  0.12285218  0.18632054  0.65536072  1  0  0.064934  0  0.941094  0  0  0.083223  0  1.002593  0  0  0.083536  0  1.003494  0  0.015858  0  0.090467  0.082892  0  1.002084  0
H  H15  1  0.30874346  0.81401011  0.15559627  1  0  0.063705  0  0.94203  0  0  0.082296  0  1.003316  0  0  0.082583  0  1.004237  0  0.006507  0  0.090203  0.081985  0  1.002801  0
H  H16  1  0.56635227  0.02153867  0.62479942  1  0  0.066878  0  0.959181  0  0  0.082744  0  1.025194  0  0  0.083409  0  1.025777  0  0.030318  0  0.089314  0.082207  0  1.024843  0
H  H17  1  0.58784566  0.97844825  0.12481705  1  0  0.067689  0  0.958505  0  0  0.083229  0  1.024777  0  0  0.083911  0  1.025341  0  0.025405  0  0.089575  0.082691  0  1.024435  0
H  H18  1  0.41630175  0.24494051  0.62680499  1  0  0.070053  0  0.945098  0  0  0.089629  0  1.003087  0  0  0.089869  0  1.004284  0  0.019192  0  0.091691  0.089337  0  1.002358  0
H  H19  1  0.66095636  0.75505405  0.12691359  1  0  0.069927  0  0.946195  0  0  0.089243  0  1.004376  0  0  0.089478  0  1.005576  0  0.019962  0  0.091664  0.089011  0  1.00357  0
H  H20  1  0.25381415  0.21971509  0.77556923  1  0  0.096269  0  0.954298  0  0  0.111484  0  1.016941  0  0  0.11304  0  1.016033  0  0.137191  0  0.114566  0.110244  0  1.017734  0
H  H21  1  0.47341373  0.78054808  0.27569765  1  0  0.096638  0  0.954485  0  0  0.11168  0  1.016897  0  0  0.113221  0  1.015996  0  0.135073  0  0.11468  0.110451  0  1.017717  0
H  H22  1  0.41412236  0.99818301  0.77272196  1  0  0.068413  0  0.922575  0  0  0.085554  0  0.983236  0  0  0.085673  0  0.983465  0  0.06144  0  0.105244  0.085365  0  0.983153  0
H  H23  1  0.41219181  0.00208270  0.27275778  1  0  0.068712  0  0.921333  0  0  0.085271  0  0.982518  0  0  0.085385  0  0.982791  0  0.065859  0  0.105163  0.085086  0  0.98244  0
H  H24  1  0.34469750  0.33674625  0.87425764  1  0  0.111355  0  0.95301  0  0  0.117271  0  1.02089  0  0  0.120309  0  1.017258  0  0.191623  0  0.137609  0.115008  0  1.023514  0
H  H25  1  0.68117867  0.66363658  0.37436481  1  0  0.111463  0  0.95224  0  0  0.117639  0  1.01995  0  0  0.120704  0  1.016274  0  0.186725  0  0.137755  0.115372  0  1.022549  0
H  H26  1  0.95193795  0.14423489  0.79095965  1  0  0.106654  0  0.953081  0  0  0.117078  0  1.013107  0  0  0.119482  0  1.012384  0  0.126601  0  0.120462  0.115345  0  1.013726  0
H  H27  1  0.09615764  0.85581950  0.29106657  1  0  0.105802  0  0.953064  0  0  0.116474  0  1.012988  0  0  0.118834  0  1.012311  0  0.128731  0  0.120229  0.114763  0  1.013601  0
H  H28  1  0.80717068  0.01452419  0.69061209  1  0  0.112755  0  0.962775  0  0  0.122215  0  1.024149  0  0  0.124263  0  1.024401  0  0.096207  0  0.122518  0.120712  0  1.02412  0
H  H29  1  0.82177211  0.98564478  0.19068746  1  0  0.112202  0  0.963228  0  0  0.12188  0  1.024432  0  0  0.12389  0  1.024734  0  0.13305  0  0.122465  0.12036  0  1.024416  0
H  H30  1  0.55287588  0.24076746  0.27821670  1  0  0.101932  0  0.934766  0  0  0.117392  0  0.996582  0  0  0.119733  0  0.995155  0  0.007487  0  0.099333  0.115694  0  0.997711  0
H  H31  1  0.79406081  0.75861731  0.77799465  1  0  0.101249  0  0.935354  0  0  0.116982  0  0.997208  0  0  0.119378  0  0.995674  0  0.051116  0  0.099321  0.115288  0  0.998345  0
H  H32  1  0.65893267  0.18239573  0.36646759  1  0  0.106668  0  0.935855  0  0  0.122129  0  0.995632  0  0  0.124355  0  0.995107  0  0.057372  0  0.099808  0.120548  0  0.996084  0
H  H33  1  0.84150865  0.81742951  0.86618710  1  0  0.106492  0  0.935545  0  0  0.121783  0  0.995917  0  0  0.124031  0  0.995321  0  0.059226  0  0.099777  0.120232  0  0.996345  0
H  H34  1  0.66394550  0.41022013  0.16073716  1  0  0.0916  0  0.960908  0  0  0.102933  0  1.022959  0  0  0.105673  0  1.022089  0  0.07224  0  0.095535  0.100937  0  1.023703  0
H  H35  1  0.07513983  0.58893676  0.66058694  1  0  0.091664  0  0.962132  0  0  0.10303  0  1.024144  0  0  0.105695  0  1.02336  0  0.070636  0  0.095284  0.10108  0  1.024834  0
H  H36  1  0.92143824  0.49295033  0.09088971  1  0  0.084825  0  0.945165  0  0  0.101555  0  0.998167  0  0  0.10436  0  0.996584  0  0.041789  0  0.098559  0.099476  0  0.999452  0
H  H37  1  0.41538794  0.50657829  0.59091867  1  0  0.084179  0  0.945791  0  0  0.100663  0  0.9991  0  0  0.103438  0  0.997563  0  0.038762  0  0.098346  0.098626  0  1.000325  0
H  H38  1  0.19304385  0.31951684  0.30396968  1  0  0.090874  0  0.979413  0  0  0.099506  0  1.046286  0  0  0.102937  0  1.04414  0  0.081775  0  0.093337  0.097031  0  1.047894  0
H  H39  1  0.51230307  0.68112188  0.80399212  1  0  0.091065  0  0.981578  0  0  0.099455  0  1.048529  0  0  0.10288  0  1.046379  0  0.068494  0  0.093542  0.09698  0  1.050131  0
H  H40  1  0.94128287  0.22780530  0.37194182  1  0  0.078217  0  0.990021  0  0  0.08759  0  1.056211  0  0  0.089889  0  1.056326  0  0.065559  0  0.089052  0.085957  0  1.056195  0
H  H41  1  0.16877028  0.77241968  0.87181249  1  0  0.077948  0  0.991172  0  0  0.087075  0  1.057569  0  0  0.089358  0  1.057736  0  0.067716  0  0.088925  0.085432  0  1.057547  0
H  H42  1  0.30284392  0.47868203  0.20086192  1  0  0.109387  0  0.925279  0  0  0.127558  0  0.981988  0  0  0.129566  0  0.981156  0  0.04718  0  0.103419  0.126134  0  0.982645  0
H  H43  1  0.78186305  0.52156969  0.70091322  1  0  0.109503  0  0.926047  0  0  0.127907  0  0.982447  0  0  0.129881  0  0.98167  0  0.048657  0  0.103244  0.12648  0  0.983062  0
H  H44  1  0.13895653  0.62126960  0.14249128  1  0  0.091478  0  0.969245  0  0  0.101968  0  1.042052  0  0  0.103914  0  1.041728  0  0.028815  0  0.094259  0.100602  0  1.042349  0
H  H45  1  0.76052258  0.37894647  0.64258673  1  0  0.091407  0  0.969995  0  0  0.102155  0  1.042582  0  0  0.104112  0  1.042275  0  0.021196  0  0.094309  0.100767  0  1.042858  0
C  C46  1  0.22114413  0.85129636  0.49556165  1  0  0.182046  0  3.635264  0  0  0.11709  0  3.901616  0  0  0.13187  0  3.913459  0  0.979257  0  0.151387  0.107511  0  3.893385  0
C  C47  1  0.07196087  0.14851360  0.99560844  1  0  0.183426  0  3.635507  0  0  0.118861  0  3.901541  0  0  0.133663  0  3.913331  0  1.001083  0  0.151398  0.10928  0  3.893338  0
C  C48  1  0.90929898  0.98611326  0.50122347  1  0  -0.012842  0  3.763342  0  0  -0.048581  0  4.033258  0  0  -0.046514  0  4.052698  0  0.365301  0  -0.006557  -0.049938  0  4.020167  0
C  C49  1  0.89493340  0.01369798  0.00129390  1  0  -0.012838  0  3.763664  0  0  -0.049116  0  4.03362  0  0  -0.047058  0  4.052985  0  0.365837  0  -0.006089  -0.050432  0  4.020593  0
C  C50  1  0.96796505  0.10365399  0.51724779  1  0  -0.072212  0  3.679559  0  0  -0.108639  0  3.933411  0  0  -0.107487  0  3.951766  0  0.338971  0  0.002108  -0.109396  0  3.921187  0
C  C51  1  0.07104697  0.89621708  0.01743739  1  0  -0.070691  0  3.680983  0  0  -0.107174  0  3.934601  0  0  -0.105904  0  3.952988  0  0.290521  0  0.002052  -0.107971  0  3.922294  0
C  C52  1  0.29050012  0.08251251  0.53397413  1  0  -0.01266  0  3.603921  0  0  -0.076924  0  3.861864  0  0  -0.07277  0  3.871415  0  0.269341  0  -0.055405  -0.079529  0  3.855359  0
C  C53  1  0.37249943  0.91754570  0.03412462  1  0  -0.0117  0  3.600599  0  0  -0.075827  0  3.858633  0  0  -0.071543  0  3.868037  0  0.308614  0  -0.055158  -0.078652  0  3.852388  0
C  C54  1  0.26778390  0.08750412  0.62862963  1  0  -0.115762  0  3.672183  0  0  -0.154033  0  3.932072  0  0  -0.155301  0  3.945846  0  -0.012443  0  -0.161823  -0.152973  0  3.922516  0
C  C55  1  0.35497069  0.91271449  0.12876837  1  0  -0.114525  0  3.670814  0  0  -0.152993  0  3.93103  0  0  -0.154226  0  3.944698  0  -0.003875  0  -0.161302  -0.151944  0  3.921577  0
C  C56  1  0.42361047  0.12197313  0.65230801  1  0  -0.123932  0  3.688104  0  0  -0.165345  0  3.94919  0  0  -0.166857  0  3.963289  0  0.030841  0  -0.164399  -0.1641  0  3.939389  0
C  C57  1  0.54541002  0.87811691  0.15237785  1  0  -0.124548  0  3.688912  0  0  -0.16533  0  3.949182  0  0  -0.166837  0  3.96331  0  0.033104  0  -0.164592  -0.164097  0  3.939361  0
C  C58  1  0.39812680  0.12358226  0.74692851  1  0  -0.003714  0  3.617152  0  0  -0.06674  0  3.876033  0  0  -0.062635  0  3.887054  0  0.227098  0  -0.053508  -0.069326  0  3.868449  0
C  C59  1  0.52159498  0.87664399  0.24700335  1  0  -0.004229  0  3.618142  0  0  -0.066332  0  3.876106  0  0  -0.062259  0  3.887209  0  0.214272  0  -0.053266  -0.068965  0  3.868584  0
C  C60  1  0.49214068  0.26650082  0.84030793  1  0  0.180738  0  3.626293  0  0  0.116126  0  3.892902  0  0  0.130522  0  3.905032  0  0.966346  0  0.150581  0.106806  0  3.884531  0
C  C61  1  0.75847429  0.73379290  0.34040989  1  0  0.179803  0  3.628708  0  0  0.115094  0  3.895269  0  0  0.12947  0  3.907434  0  0.981932  0  0.15008  0.105812  0  3.886852  0
C  C62  1  0.80463039  0.16506448  0.79348009  1  0  -0.002679  0  3.751234  0  0  -0.038222  0  4.021222  0  0  -0.036355  0  4.041154  0  0.336802  0  -0.002187  -0.039475  0  4.007825  0
C  C63  1  0.96962803  0.83507521  0.29356790  1  0  -0.001921  0  3.752985  0  0  -0.037517  0  4.02287  0  0  -0.035601  0  4.042859  0  0.390669  0  -0.002379  -0.038801  0  4.009414  0
C  C64  1  0.73468236  0.09985522  0.74368464  1  0  -0.065587  0  3.682838  0  0  -0.105047  0  3.943415  0  0  -0.104096  0  3.963002  0  0.346801  0  0.001659  -0.105664  0  3.93034  0
C  C65  1  0.83450948  0.90031884  0.24376452  1  0  -0.065466  0  3.685864  0  0  -0.105197  0  3.946354  0  0  -0.10422  0  3.965962  0  0.278321  0  0.001845  -0.105791  0  3.933262  0
C  C66  1  0.44538541  0.44174967  0.36568143  1  0  0.685443  0  3.875716  0  0  0.644243  0  4.170877  0  0  0.676533  0  4.164416  0  1.585562  0  0.19992  0.622333  0  4.174451  0
C  C67  1  0.88747006  0.55797754  0.86563486  1  0  0.684395  0  3.876281  0  0  0.643722  0  4.171108  0  0  0.675966  0  4.164652  0  1.579662  0  0.19986  0.621816  0  4.174713  0
C  C68  1  0.61386138  0.28411469  0.31992938  1  0  -0.312025  0  3.733478  0  0  -0.356344  0  3.977871  0  0  -0.361984  0  3.985895  0  -0.014127  0  -0.164918  -0.352409  0  3.972383  0
C  C69  1  0.89829680  0.71551832  0.81974577  1  0  -0.309929  0  3.732539  0  0  -0.355468  0  3.978071  0  0  -0.361059  0  3.98593  0  -0.052588  0  -0.16487  -0.351572  0  3.972625  0
C  C70  1  0.78175942  0.31558313  0.27252311  1  0  0.106207  0  3.795903  0  0  0.125933  0  4.029931  0  0  0.126303  0  4.055047  0  -0.045656  0  -0.019556  0.125656  0  4.012904  0
C  C71  1  0.09765907  0.68414409  0.77238049  1  0  0.106512  0  3.796185  0  0  0.127363  0  4.029072  0  0  0.127708  0  4.054164  0  -0.068642  0  -0.019192  0.127074  0  4.012083  0
C  C72  1  0.78138280  0.38717544  0.19225286  1  0  -0.120401  0  3.741077  0  0  -0.139854  0  3.990895  0  0  -0.142405  0  4.012116  0  -0.023458  0  -0.097936  -0.138034  0  3.976508  0
C  C73  1  0.16916234  0.61235700  0.69215411  1  0  -0.121568  0  3.742386  0  0  -0.141466  0  3.992245  0  0  -0.143955  0  4.013469  0  0.019698  0  -0.097933  -0.139677  0  3.977845  0
C  C74  1  0.92678896  0.43464607  0.15285534  1  0  -0.123925  0  3.760523  0  0  -0.145059  0  4.015747  0  0  -0.147356  0  4.036318  0  -0.06338  0  -0.096933  -0.143414  0  4.001782  0
C  C75  1  0.36206185  0.56510406  0.65283727  1  0  -0.121975  0  3.757877  0  0  -0.14319  0  4.012939  0  0  -0.145464  0  4.033454  0  -0.086253  0  -0.096434  -0.141574  0  3.999024  0
C  C76  1  0.07585827  0.41364463  0.19246267  1  0  0.119058  0  3.767064  0  0  0.135508  0  4.00671  0  0  0.136394  0  4.030902  0  0.018463  0  -0.016561  0.134869  0  3.990339  0
C  C77  1  0.48982511  0.58650652  0.69246625  1  0  0.118857  0  3.764961  0  0  0.136299  0  4.003321  0  0  0.137215  0  4.027472  0  0.011795  0  -0.016698  0.135612  0  3.986969  0
C  C78  1  0.08077429  0.33488251  0.27088757  1  0  -0.132205  0  3.7646  0  0  -0.150114  0  4.013564  0  0  -0.152841  0  4.034083  0  -0.070369  0  -0.100972  -0.148197  0  3.999711  0
C  C79  1  0.41569132  0.66545322  0.77086002  1  0  -0.132669  0  3.767618  0  0  -0.150631  0  4.01605  0  0  -0.153348  0  4.036561  0  -0.055727  0  -0.100938  -0.14871  0  4.002191  0
C  C80  1  0.93642453  0.28589569  0.31005968  1  0  -0.125424  0  3.767314  0  0  -0.141784  0  4.010348  0  0  -0.144508  0  4.031879  0  -0.100285  0  -0.101121  -0.13986  0  3.995726  0
C  C81  1  0.22234957  0.71422872  0.80994738  1  0  -0.125568  0  3.76953  0  0  -0.141909  0  4.012073  0  0  -0.144651  0  4.033677  0  -0.092019  0  -0.101503  -0.139964  0  3.997403  0
C  C82  1  0.21763841  0.48454568  0.15496799  1  0  -0.305464  0  3.721272  0  0  -0.349717  0  3.965882  0  0  -0.355251  0  3.973842  0  -0.016505  0  -0.164821  -0.345859  0  3.960393  0
C  C83  1  0.70250973  0.51567166  0.65503702  1  0  -0.306352  0  3.724597  0  0  -0.351093  0  3.969483  0  0  -0.356655  0  3.977425  0  -0.007522  0  -0.164743  -0.347127  0  3.963864  0
C  C84  1  0.36392287  0.40140810  0.07497287  1  0  0.680866  0  3.886506  0  0  0.641535  0  4.179087  0  0  0.673833  0  4.172429  0  1.557379  0  0.197911  0.619608  0  4.182832  0
C  C85  1  0.76572623  0.59858391  0.57497594  1  0  0.682757  0  3.884729  0  0  0.642311  0  4.178847  0  0  0.674618  0  4.172181  0  1.567296  0  0.198326  0.620356  0  4.182596  0
N  N86  1  0.06890528  0.82913008  0.48761162  1  0  -0.396053  0  3.323501  0  0  -0.314407  0  3.627021  0  0  -0.335274  0  3.639139  0  -1.257891  0  -0.361024  -0.300309  0  3.618546  0
N  N87  1  0.89758512  0.17068116  0.98761070  1  0  -0.396783  0  3.323083  0  0  -0.315584  0  3.627426  0  0  -0.336455  0  3.639437  0  -1.250085  0  -0.361213  -0.30149  0  3.619024  0
N  N88  1  0.16552046  0.01595891  0.51308755  1  0  -0.045294  0  3.553291  0  0  0.05083  0  3.769683  0  0  0.036252  0  3.795813  0  -1.232179  0  -0.2372  0.060442  0  3.751827  0
N  N89  1  0.18092718  0.98394017  0.01326492  1  0  -0.047158  0  3.554133  0  0  0.049017  0  3.770407  0  0  0.034364  0  3.796499  0  -1.235454  0  -0.237456  0.058693  0  3.752628  0
N  N90  1  0.53695566  0.16502883  0.77437321  1  0  -0.055835  0  3.548038  0  0  0.040214  0  3.766194  0  0  0.025341  0  3.792879  0  -1.231992  0  -0.238014  0.050019  0  3.748037  0
N  N91  1  0.70188825  0.83521651  0.27445421  1  0  -0.055966  0  3.549907  0  0  0.039955  0  3.767846  0  0  0.025101  0  3.794542  0  -1.22249  0  -0.238207  0.049762  0  3.7497  0
N  N92  1  0.65190454  0.26884068  0.85343311  1  0  -0.395984  0  3.326413  0  0  -0.314419  0  3.630272  0  0  -0.335472  0  3.643186  0  -1.20984  0  -0.361165  -0.3002  0  3.621323  0
N  N93  1  0.92058730  0.73141103  0.35354791  1  0  -0.394963  0  3.327859  0  0  -0.313925  0  3.632272  0  0  -0.334954  0  3.645137  0  -1.245626  0  -0.360742  -0.299717  0  3.623346  0
O  O94  1  0.30069546  0.41447338  0.40722183  1  0  -0.662044  0  2.035817  0  0  -0.587524  0  2.305149  0  0  -0.615763  0  2.289015  0  -1.191377  0  -0.341321  -0.567731  0  2.315501  0
O  O95  1  0.71559214  0.58535059  0.90733508  1  0  -0.662019  0  2.034374  0  0  -0.587953  0  2.304064  0  0  -0.616217  0  2.287947  0  -1.182218  0  -0.341616  -0.568117  0  2.314359  0
O  O96  1  0.45055795  0.58233092  0.36100899  1  0  -0.633031  0  1.953703  0  0  -0.586752  0  2.180304  0  0  -0.609785  0  2.1729  0  -1.200831  0  -0.323205  -0.570652  0  2.184877  0
O  O97  1  0.03322028  0.41736701  0.86091941  1  0  -0.632443  0  1.955361  0  0  -0.585933  0  2.181414  0  0  -0.608973  0  2.174042  0  -1.211393  0  -0.322579  -0.569843  0  2.185976  0
O  O98  1  0.39078358  0.26230741  0.04904372  1  0  -0.628799  0  1.926006  0  0  -0.582665  0  2.151632  0  0  -0.605443  0  2.14461  0  -1.198739  0  -0.325207  -0.566776  0  2.155957  0
O  O99  1  0.65333540  0.73720212  0.54871440  1  0  -0.629497  0  1.924954  0  0  -0.582997  0  2.151174  0  0  -0.605742  0  2.144041  0  -1.198107  0  -0.325659  -0.567141  0  2.155602  0
O  O100  1  0.45688308  0.48941635  0.03972083  1  0  -0.669166  0  2.018875  0  0  -0.595074  0  2.291777  0  0  -0.623233  0  2.275286  0  -1.176326  0  -0.347723  -0.575355  0  2.302398  0
O  O101  1  0.94691628  0.51081499  0.53997536  1  0  -0.67  0  2.017524  0  0  -0.595642  0  2.291068  0  0  -0.623813  0  2.274608  0  -1.185094  0  -0.347834  -0.575888  0  2.301632  0
