# generated using pymatgen
data_TlBH6(C2N3)2
_symmetry_space_group_name_H-M   'P 1'
_cell_length_a   5.98380715
_cell_length_b   7.76779139
_cell_length_c   17.95421338
_cell_angle_alpha   89.99915736
_cell_angle_beta   89.99983626
_cell_angle_gamma   90.00027810
_symmetry_Int_Tables_number   1
_chemical_formula_structural   TlBH6(C2N3)2
_chemical_formula_sum   'Tl4 B4 H24 C16 N24'
_cell_volume   834.52917473
_cell_formula_units_Z   4
loop_
 _symmetry_equiv_pos_site_id
 _symmetry_equiv_pos_as_xyz
  1  'x, y, z'
loop_
 _atom_site_type_symbol
 _atom_site_label
 _atom_site_symmetry_multiplicity
 _atom_site_fract_x
 _atom_site_fract_y
 _atom_site_fract_z
 _atom_site_occupancy
 _atom_site_hle17_bader_spin_density
 _atom_site_hle17_ddec_charge
 _atom_site_hle17_ddec_spin_density
 _atom_site_hle17_ddec_sum_bond_order
 _atom_site_hle17_magmom
 _atom_site_hse06_10hf_bader_charge
 _atom_site_hse06_10hf_bader_spin_density
 _atom_site_hse06_10hf_ddec_charge
 _atom_site_hse06_10hf_ddec_spin_density
 _atom_site_hse06_10hf_ddec_sum_bond_order
 _atom_site_hse06_10hf_magmom
 _atom_site_hse06_bader_spin_density
 _atom_site_hse06_ddec_charge
 _atom_site_hse06_ddec_spin_density
 _atom_site_hse06_ddec_sum_bond_order
 _atom_site_hse06_magmom
 _atom_site_pbe_bader_spin_density
 _atom_site_pbe_cm5_charge
 _atom_site_pbe_ddec_charge
 _atom_site_pbe_ddec_spin_density
 _atom_site_pbe_ddec_sum_bond_order
 _atom_site_pbe_magmom
Tl  Tl0  1  0.51264709  0.30473823  0.17959676  1  0  0.724021  0  0.823319  0  0.780848  0  0.574037  0  1.120774  0  0  0.604291  0  1.103896  0  0  0.385391  0.551641  0  1.13302  0
Tl  Tl1  1  0.01265116  0.19526535  0.82040068  1  0  0.723997  0  0.823372  0  0.780856  0  0.574012  0  1.120829  0  0  0.604267  0  1.103952  0  0  0.385386  0.55162  0  1.133076  0
Tl  Tl2  1  0.48736155  0.80473503  0.32040449  1  0  0.723985  0  0.823395  0  0.780884  0  0.573996  0  1.120855  0  0  0.604249  0  1.10398  0  0  0.385381  0.551604  0  1.133101  0
Tl  Tl3  1  0.98735231  0.69526489  0.67959717  1  0  0.72398  0  0.823387  0  0.780864  0  0.573993  0  1.120847  0  0  0.604246  0  1.103972  0  0  0.385381  0.5516  0  1.133094  0
B  B4  1  0.28847954  0.32067176  0.39330543  1  0  0.317607  0  3.341409  0  1.951712  0  0.134019  0  3.658217  0  0  0.151014  0  3.660738  0  0  -0.22659  0.122562  0  3.656386  0
B  B5  1  0.78847586  0.17933150  0.60669622  1  0  0.317494  0  3.341459  0  1.951676  0  0.133907  0  3.658266  0  0  0.150929  0  3.660727  0  0  -0.22661  0.122456  0  3.656432  0
B  B6  1  0.71153756  0.82067800  0.10669406  1  0  0.317492  0  3.34135  0  1.95168  0  0.13392  0  3.658142  0  0  0.150889  0  3.660717  0  0  -0.22654  0.12247  0  3.656305  0
B  B7  1  0.21153754  0.67932224  0.89330508  1  0  0.317501  0  3.34144  0  1.951691  0  0.133935  0  3.658218  0  0  0.150905  0  3.660797  0  0  -0.226579  0.122479  0  3.656387  0
H  H8  1  0.98709346  0.59837193  0.18869822  1  0  0.089793  0  0.965596  0  0.129081  0  0.096152  0  1.035075  0  0  0.0979  0  1.033572  0  0  0.130264  0.094819  0  1.036221  0
H  H9  1  0.48709899  0.90162027  0.81130456  1  0  0.089837  0  0.965541  0  0.129031  0  0.096219  0  1.034983  0  0  0.09798  0  1.033469  0  0  0.130284  0.094887  0  1.036131  0
H  H10  1  0.01290545  0.09837913  0.31130600  1  0  0.089847  0  0.965484  0  0.12921  0  0.096228  0  1.034928  0  0  0.097989  0  1.033413  0  0  0.130273  0.094896  0  1.036074  0
H  H11  1  0.51289750  0.40163217  0.68869367  1  0  0.089838  0  0.965701  0  0.129102  0  0.096229  0  1.035116  0  0  0.098001  0  1.033588  0  0  0.130295  0.094896  0  1.036264  0
H  H12  1  0.83148876  0.46444948  0.40901524  1  0  0.093844  0  0.952572  0  0.159593  0  0.097723  0  1.027585  0  0  0.100686  0  1.023754  0  0  0.134322  0.095538  0  1.03032  0
H  H13  1  0.33148211  0.03554878  0.59098692  1  0  0.09382  0  0.952512  0  0.159557  0  0.097691  0  1.027517  0  0  0.100652  0  1.02369  0  0  0.134345  0.09551  0  1.030243  0
H  H14  1  0.16851258  0.96447108  0.09098389  1  0  0.093807  0  0.952449  0  0.159563  0  0.09778  0  1.027364  0  0  0.100744  0  1.023533  0  0  0.13433  0.095589  0  1.030108  0
H  H15  1  0.66852531  0.53553802  0.90900915  1  0  0.093811  0  0.952522  0  0.159362  0  0.097728  0  1.027488  0  0  0.100693  0  1.023653  0  0  0.134331  0.095542  0  1.030226  0
H  H16  1  0.54587329  0.75373217  0.54758250  1  0  0.073501  0  0.963673  0  0.109559  0  0.081605  0  1.0322  0  0  0.082974  0  1.031363  0  0  0.124496  0.080579  0  1.032861  0
H  H17  1  0.04586927  0.74626877  0.45242013  1  0  0.073525  0  0.963438  0  0.109603  0  0.081594  0  1.032006  0  0  0.082962  0  1.03117  0  0  0.124499  0.080567  0  1.032667  0
H  H18  1  0.45411554  0.25373607  0.95241165  1  0  0.073538  0  0.963381  0  0.109419  0  0.081539  0  1.032076  0  0  0.082904  0  1.031241  0  0  0.124462  0.080522  0  1.032732  0
H  H19  1  0.95410388  0.24626778  0.04758428  1  0  0.073542  0  0.963443  0  0.109424  0  0.081527  0  1.032127  0  0  0.082895  0  1.031289  0  0  0.124479  0.080511  0  1.032783  0
H  H20  1  0.11493721  0.32860418  0.54507765  1  0  0.092068  0  0.973081  0  0.175492  0  0.100815  0  1.041536  0  0  0.102931  0  1.039291  0  0  0.136927  0.099271  0  1.043087  0
H  H21  1  0.61493983  0.17139333  0.45492415  1  0  0.092035  0  0.97321  0  0.175542  0  0.100769  0  1.041675  0  0  0.102898  0  1.039415  0  0  0.136936  0.099221  0  1.043233  0
H  H22  1  0.88507384  0.82860676  0.95492047  1  0  0.092115  0  0.972962  0  0.175464  0  0.100832  0  1.041444  0  0  0.102982  0  1.039158  0  0  0.136962  0.099283  0  1.043003  0
H  H23  1  0.38507293  0.67138637  0.04507961  1  0  0.092002  0  0.973042  0  0.175514  0  0.100779  0  1.041475  0  0  0.102928  0  1.039189  0  0  0.13693  0.099232  0  1.043032  0
H  H24  1  0.45898477  0.29391731  0.35864059  1  0  -0.191933  0  0.95895  0  -0.595581  0  -0.144905  0  1.052053  0  0  -0.149425  0  1.051946  0  0  0.047828  -0.141732  0  1.052005  0
H  H25  1  0.95898263  0.20608398  0.64136313  1  0  -0.191947  0  0.958979  0  -0.59557  0  -0.144912  0  1.052063  0  0  -0.149436  0  1.051952  0  0  0.047816  -0.14174  0  1.052016  0
H  H26  1  0.54101878  0.79391917  0.14135851  1  0  -0.191907  0  0.95878  0  -0.595473  0  -0.144894  0  1.051902  0  0  -0.149415  0  1.0518  0  0  0.047798  -0.141722  0  1.051853  0
H  H27  1  0.04102593  0.70607918  0.85864134  1  0  -0.191905  0  0.958808  0  -0.59547  0  -0.144908  0  1.051951  0  0  -0.14943  0  1.051844  0  0  0.047807  -0.141734  0  1.051904  0
H  H28  1  0.19974620  0.18915379  0.41539540  1  0  -0.197746  0  0.963352  0  -0.589921  0  -0.15742  0  1.063493  0  0  -0.162742  0  1.065454  0  0  0.039072  -0.15375  0  1.062077  0
H  H29  1  0.69974192  0.31084787  0.58460800  1  0  -0.197721  0  0.963337  0  -0.589918  0  -0.15739  0  1.063468  0  0  -0.162718  0  1.065432  0  0  0.039083  -0.15372  0  1.062049  0
H  H30  1  0.80026668  0.68915595  0.08460769  1  0  -0.197749  0  0.963353  0  -0.589893  0  -0.157417  0  1.063481  0  0  -0.162738  0  1.065444  0  0  0.039069  -0.153746  0  1.062058  0
H  H31  1  0.30026233  0.81083559  0.91539414  1  0  -0.197774  0  0.963424  0  -0.589906  0  -0.157439  0  1.063559  0  0  -0.16276  0  1.065518  0  0  0.03907  -0.153767  0  1.062142  0
C  C32  1  0.99770669  0.54938665  0.24517369  1  0  0.170271  0  3.777054  0  0.970354  0  0.121388  0  4.052776  0  0  0.132319  0  4.068843  0  0  0.134746  0.114328  0  4.041537  0
C  C33  1  0.49770636  0.95061074  0.75482852  1  0  0.170177  0  3.776938  0  0.970064  0  0.121275  0  4.052666  0  0  0.132193  0  4.068728  0  0  0.134702  0.114214  0  4.041431  0
C  C34  1  0.00227518  0.04938804  0.25482861  1  0  0.170353  0  3.776932  0  0.970197  0  0.121464  0  4.052622  0  0  0.132385  0  4.068682  0  0  0.134876  0.114401  0  4.041388  0
C  C35  1  0.50227876  0.45061422  0.74516606  1  0  0.170338  0  3.776843  0  0.970129  0  0.121442  0  4.052536  0  0  0.132353  0  4.068589  0  0  0.134819  0.11438  0  4.041306  0
C  C36  1  0.91736080  0.47968268  0.35614344  1  0  0.182036  0  3.67661  0  1.021867  0  0.122315  0  3.944104  0  0  0.135977  0  3.956096  0  0  0.156943  0.113534  0  3.935635  0
C  C37  1  0.41736695  0.02031589  0.64385864  1  0  0.182121  0  3.676467  0  1.02202  0  0.122405  0  3.943987  0  0  0.136064  0  3.95598  0  0  0.157056  0.113626  0  3.935519  0
C  C38  1  0.08263229  0.97970215  0.14385838  1  0  0.18214  0  3.676273  0  1.022016  0  0.122363  0  3.943764  0  0  0.136024  0  3.955751  0  0  0.15705  0.113584  0  3.935293  0
C  C39  1  0.58264873  0.52031309  0.85614087  1  0  0.182181  0  3.676057  0  1.022109  0  0.12244  0  3.943565  0  0  0.136104  0  3.955549  0  0  0.156966  0.113663  0  3.935094  0
C  C40  1  0.45410700  0.64033972  0.52994135  1  0  0.179312  0  3.776559  0  0.980679  0  0.13182  0  4.059861  0  0  0.142725  0  4.074382  0  0  0.133264  0.124757  0  4.049669  0
C  C41  1  0.95410572  0.85966781  0.47006090  1  0  0.179316  0  3.77659  0  0.980661  0  0.131864  0  4.059923  0  0  0.142771  0  4.074444  0  0  0.133292  0.124799  0  4.04973  0
C  C42  1  0.54589444  0.14033046  0.97005295  1  0  0.179371  0  3.776731  0  0.980588  0  0.131943  0  4.06004  0  0  0.142852  0  4.074557  0  0  0.133307  0.124869  0  4.049854  0
C  C43  1  0.04588490  0.35966036  0.02994447  1  0  0.179314  0  3.776393  0  0.980521  0  0.131913  0  4.05971  0  0  0.142822  0  4.074224  0  0  0.133256  0.124836  0  4.04953  0
C  C44  1  0.23622326  0.42639435  0.53001008  1  0  0.178007  0  3.685062  0  0.967274  0  0.121733  0  3.944164  0  0  0.135118  0  3.956739  0  0  0.157284  0.113165  0  3.935297  0
C  C45  1  0.73621173  0.07360615  0.46999217  1  0  0.178133  0  3.684751  0  0.966912  0  0.121878  0  3.943852  0  0  0.13525  0  3.956418  0  0  0.157327  0.113311  0  3.934985  0
C  C46  1  0.76378844  0.92639727  0.96998967  1  0  0.177833  0  3.68493  0  0.967089  0  0.121584  0  3.94404  0  0  0.134948  0  3.956591  0  0  0.157229  0.113017  0  3.935167  0
C  C47  1  0.26376863  0.57359414  0.03000830  1  0  0.177975  0  3.685257  0  0.967279  0  0.121676  0  3.944368  0  0  0.135042  0  3.956923  0  0  0.157281  0.113106  0  3.935494  0
N  N48  1  0.12477664  0.42142945  0.34161258  1  0  -0.112079  0  3.501994  0  -1.029519  0  -0.008186  0  3.720625  0  0  -0.022889  0  3.745925  0  0  -0.122024  0.001465  0  3.703427  0
N  N49  1  0.62478018  0.07857066  0.65839033  1  0  -0.111876  0  3.501732  0  -1.029528  0  -0.007986  0  3.720351  0  0  -0.022689  0  3.74565  0  0  -0.121979  0.001663  0  3.703157  0
N  N50  1  0.87522442  0.92143834  0.15838738  1  0  -0.111869  0  3.501908  0  -1.029558  0  -0.007998  0  3.720568  0  0  -0.022696  0  3.745866  0  0  -0.122006  0.001651  0  3.703367  0
N  N51  1  0.37522419  0.57856634  0.84161104  1  0  -0.111911  0  3.501884  0  -1.029587  0  -0.008009  0  3.720504  0  0  -0.022713  0  3.745805  0  0  -0.121947  0.001643  0  3.703306  0
N  N52  1  0.17774004  0.46636761  0.27002699  1  0  -0.312799  0  3.02397  0  -0.752843  0  -0.260158  0  3.279156  0  0  -0.274286  0  3.298874  0  0  -0.213862  -0.250213  0  3.265498  0
N  N53  1  0.67774098  0.03362754  0.72997587  1  0  -0.312901  0  3.02393  0  -0.752855  0  -0.260265  0  3.279136  0  0  -0.274396  0  3.29886  0  0  -0.213953  -0.25032  0  3.265483  0
N  N54  1  0.82225129  0.96636742  0.22997380  1  0  -0.312945  0  3.023954  0  -0.753032  0  -0.260307  0  3.279166  0  0  -0.274434  0  3.298884  0  0  -0.214003  -0.250363  0  3.265512  0
N  N55  1  0.32225139  0.53363450  0.77002578  1  0  -0.312912  0  3.023964  0  -0.75298  0  -0.260284  0  3.279178  0  0  -0.27441  0  3.298902  0  0  -0.213985  -0.250339  0  3.265524  0
N  N56  1  0.83170349  0.56163477  0.29687747  1  0  -0.435781  0  3.108571  0  -1.259112  0  -0.362899  0  3.379976  0  0  -0.383738  0  3.396641  0  0  -0.329852  -0.348439  0  3.36803  0
N  N57  1  0.33170354  0.93836590  0.70312322  1  0  -0.435858  0  3.108674  0  -1.258928  0  -0.362979  0  3.380089  0  0  -0.383818  0  3.396758  0  0  -0.329929  -0.348519  0  3.368148  0
N  N58  1  0.16828180  0.06164882  0.20312531  1  0  -0.435983  0  3.108543  0  -1.259072  0  -0.363118  0  3.379996  0  0  -0.383959  0  3.396664  0  0  -0.329984  -0.348657  0  3.368049  0
N  N59  1  0.66829319  0.43836432  0.79686976  1  0  -0.435993  0  3.108183  0  -1.258822  0  -0.363123  0  3.379631  0  0  -0.383964  0  3.396303  0  0  -0.329911  -0.348662  0  3.367688  0
N  N60  1  0.33648918  0.43307583  0.46292938  1  0  -0.11905  0  3.518987  0  -1.021437  0  -0.016105  0  3.747622  0  0  -0.030911  0  3.772263  0  0  -0.13002  -0.006382  0  3.730934  0
N  N61  1  0.83648369  0.06692631  0.53707390  1  0  -0.119063  0  3.518893  0  -1.021337  0  -0.016119  0  3.747531  0  0  -0.030925  0  3.772172  0  0  -0.130021  -0.006403  0  3.730845  0
N  N62  1  0.66352366  0.93308043  0.03706884  1  0  -0.118868  0  3.518788  0  -1.021396  0  -0.015904  0  3.747375  0  0  -0.030706  0  3.772023  0  0  -0.130015  -0.006185  0  3.730683  0
N  N63  1  0.16351559  0.56692092  0.96293033  1  0  -0.118942  0  3.51874  0  -1.02145  0  -0.015997  0  3.747381  0  0  -0.030803  0  3.772026  0  0  -0.130098  -0.006272  0  3.730693  0
N  N64  1  0.47846614  0.57181823  0.46230395  1  0  -0.304738  0  2.943536  0  -0.743354  0  -0.270636  0  3.209968  0  0  -0.281973  0  3.227339  0  0  -0.221316  -0.262759  0  3.198118  0
N  N65  1  0.97846640  0.92818552  0.53769660  1  0  -0.304716  0  2.943599  0  -0.743267  0  -0.270607  0  3.209979  0  0  -0.28195  0  3.227353  0  0  -0.221322  -0.262728  0  3.19813  0
N  N66  1  0.52153593  0.07181863  0.03769152  1  0  -0.304905  0  2.943455  0  -0.743151  0  -0.270813  0  3.20986  0  0  -0.282149  0  3.227225  0  0  -0.221337  -0.262933  0  3.198013  0
N  N67  1  0.02153027  0.42817983  0.96230424  1  0  -0.304792  0  2.943241  0  -0.743338  0  -0.270675  0  3.209604  0  0  -0.28201  0  3.226969  0  0  -0.221255  -0.262802  0  3.197766  0
N  N68  1  0.30531161  0.55511885  0.57406225  1  0  -0.426283  0  3.077107  0  -1.254692  0  -0.361255  0  3.348389  0  0  -0.37993  0  3.36253  0  0  -0.33686  -0.348341  0  3.338205  0
N  N69  1  0.80531297  0.94487528  0.42593902  1  0  -0.426387  0  3.076976  0  -1.254495  0  -0.361358  0  3.34825  0  0  -0.380033  0  3.362389  0  0  -0.336915  -0.348442  0  3.338065  0
N  N70  1  0.69468926  0.05511807  0.92593425  1  0  -0.426255  0  3.077427  0  -1.254547  0  -0.361216  0  3.348672  0  0  -0.37989  0  3.362817  0  0  -0.336849  -0.348302  0  3.33849  0
N  N71  1  0.19467821  0.44488228  0.07406358  1  0  -0.42629  0  3.077264  0  -1.254454  0  -0.36125  0  3.348509  0  0  -0.379926  0  3.362652  0  0  -0.336851  -0.348334  0  3.338325  0
