# generated using pymatgen
data_SnH8C4(Br2O)2
_symmetry_space_group_name_H-M   'P 1'
_cell_length_a   8.80815902
_cell_length_b   11.23086208
_cell_length_c   11.20838266
_cell_angle_alpha   89.99979438
_cell_angle_beta   89.99943325
_cell_angle_gamma   89.99992571
_symmetry_Int_Tables_number   1
_chemical_formula_structural   SnH8C4(Br2O)2
_chemical_formula_sum   'Sn4 H32 C16 Br16 O8'
_cell_volume   1108.76929332
_cell_formula_units_Z   4
loop_
 _symmetry_equiv_pos_site_id
 _symmetry_equiv_pos_as_xyz
  1  'x, y, z'
loop_
 _atom_site_type_symbol
 _atom_site_label
 _atom_site_symmetry_multiplicity
 _atom_site_fract_x
 _atom_site_fract_y
 _atom_site_fract_z
 _atom_site_occupancy
 _atom_site_pbe_bader_spin_density
 _atom_site_pbe_cm5_charge
 _atom_site_pbe_ddec_charge
 _atom_site_pbe_ddec_spin_density
 _atom_site_pbe_ddec_sum_bond_order
 _atom_site_pbe_magmom
Sn  Sn0  1  0.99999482  0.74999922  0.78360990  1  0  0.421098  0.968008  0  3.880694  0
Sn  Sn1  1  0.49999326  0.25000418  0.71638635  1  0  0.421087  0.968024  0  3.880769  0
Sn  Sn2  1  0.00000078  0.25000536  0.21636350  1  0  0.421226  0.968041  0  3.880443  0
Sn  Sn3  1  0.50001483  0.74999684  0.28365843  1  0  0.42109  0.967931  0  3.881008  0
H  H4  1  0.80394339  0.52366752  0.85146835  1  0  0.092949  0.081915  0  1.049314  0
H  H5  1  0.69605183  0.02367249  0.64852961  1  0  0.09295  0.081919  0  1.049362  0
H  H6  1  0.19605668  0.97633304  0.85146909  1  0  0.092947  0.081921  0  1.049324  0
H  H7  1  0.30393552  0.47632898  0.64852859  1  0  0.092931  0.081869  0  1.049327  0
H  H8  1  0.19605335  0.47633705  0.14852201  1  0  0.092876  0.081853  0  1.04934  0
H  H9  1  0.30394831  0.97633476  0.35147145  1  0  0.092968  0.081922  0  1.049349  0
H  H10  1  0.80394460  0.02366798  0.14852305  1  0  0.092906  0.081901  0  1.049327  0
H  H11  1  0.69605441  0.52365601  0.35147337  1  0  0.092926  0.081894  0  1.049386  0
H  H12  1  0.78139099  0.53258020  0.01013741  1  0  0.089763  0.083398  0  1.021173  0
H  H13  1  0.71860915  0.03258214  0.48985987  1  0  0.089778  0.083436  0  1.021198  0
H  H14  1  0.21860679  0.96741624  0.01013621  1  0  0.089777  0.083459  0  1.021187  0
H  H15  1  0.28139034  0.46741989  0.48986085  1  0  0.089767  0.08337  0  1.021236  0
H  H16  1  0.21859780  0.46742794  0.98985384  1  0  0.08976  0.083342  0  1.021285  0
H  H17  1  0.28139440  0.96742778  0.51013763  1  0  0.0898  0.083452  0  1.021227  0
H  H18  1  0.78139336  0.03257943  0.98985415  1  0  0.089765  0.08336  0  1.021301  0
H  H19  1  0.71860185  0.53256777  0.51014022  1  0  0.089774  0.083395  0  1.021318  0
H  H20  1  0.15004307  0.67355097  0.04674623  1  0  0.102736  0.093658  0  1.010189  0
H  H21  1  0.34995675  0.17354934  0.45324654  1  0  0.102709  0.093572  0  1.010262  0
H  H22  1  0.84995086  0.82645335  0.04674402  1  0  0.102733  0.093628  0  1.010281  0
H  H23  1  0.65004091  0.32644304  0.45325130  1  0  0.102797  0.093727  0  1.010213  0
H  H24  1  0.84994912  0.32645538  0.95324502  1  0  0.102771  0.093649  0  1.01018  0
H  H25  1  0.65004794  0.82645613  0.54675898  1  0  0.102748  0.093648  0  1.010178  0
H  H26  1  0.15004929  0.17354500  0.95324009  1  0  0.102737  0.093635  0  1.010179  0
H  H27  1  0.34995242  0.67354195  0.54674976  1  0  0.10277  0.093695  0  1.010211  0
H  H28  1  0.98524440  0.62140119  0.12605324  1  0  0.097238  0.082241  0  0.997451  0
H  H29  1  0.51475447  0.12139933  0.37394104  1  0  0.097227  0.082184  0  0.997504  0
H  H30  1  0.01474857  0.87860106  0.12605044  1  0  0.097253  0.082284  0  0.997407  0
H  H31  1  0.48524642  0.37860044  0.37394427  1  0  0.097271  0.082273  0  0.997472  0
H  H32  1  0.01474439  0.37860873  0.87393712  1  0  0.097293  0.082249  0  0.997473  0
H  H33  1  0.48524908  0.87861059  0.62606359  1  0  0.097252  0.082178  0  0.997541  0
H  H34  1  0.98525612  0.12138749  0.87393724  1  0  0.097297  0.082245  0  0.997531  0
H  H35  1  0.51474918  0.62138811  0.62606037  1  0  0.097293  0.082259  0  0.9975  0
C  C36  1  0.86244772  0.51654411  0.93728336  1  0  -0.08506  -0.023208  0  3.860549  0
C  C37  1  0.63755092  0.01654589  0.56271552  1  0  -0.085085  -0.023322  0  3.860661  0
C  C38  1  0.13755244  0.98345437  0.93728544  1  0  -0.085074  -0.02328  0  3.860512  0
C  C39  1  0.36244996  0.48345143  0.56271400  1  0  -0.08507  -0.023185  0  3.860755  0
C  C40  1  0.13754334  0.48345424  0.06270700  1  0  -0.085057  -0.023128  0  3.860722  0
C  C41  1  0.36245150  0.98345602  0.43728555  1  0  -0.085167  -0.023319  0  3.860736  0
C  C42  1  0.86245225  0.01655199  0.06270492  1  0  -0.08508  -0.023226  0  3.860749  0
C  C43  1  0.63755245  0.51653801  0.43728974  1  0  -0.085116  -0.023283  0  3.860811  0
C  C44  1  0.06317477  0.60390899  0.05125047  1  0  -0.076878  -0.009576  0  3.843713  0
C  C45  1  0.43681834  0.10390549  0.44874165  1  0  -0.076863  -0.009382  0  3.843659  0
C  C46  1  0.93681797  0.89609443  0.05125000  1  0  -0.076899  -0.009608  0  3.843801  0
C  C47  1  0.56317825  0.39608868  0.44874240  1  0  -0.076985  -0.009684  0  3.843861  0
C  C48  1  0.93681629  0.39609737  0.94873810  1  0  -0.076987  -0.009532  0  3.843883  0
C  C49  1  0.56318181  0.89609909  0.55126744  1  0  -0.076974  -0.00946  0  3.84384  0
C  C50  1  0.06318445  0.10390392  0.94873590  1  0  -0.077015  -0.009608  0  3.843947  0
C  C51  1  0.43681622  0.60390165  0.55126313  1  0  -0.077024  -0.009685  0  3.843931  0
Br  Br52  1  0.98200683  0.57625593  0.63816825  1  0  -0.117915  -0.297451  0  1.406001  0
Br  Br53  1  0.51797924  0.07626301  0.86181792  1  0  -0.117869  -0.29745  0  1.406011  0
Br  Br54  1  0.01798334  0.92374183  0.63816973  1  0  -0.117903  -0.297449  0  1.406007  0
Br  Br55  1  0.48201574  0.42375194  0.86182725  1  0  -0.117933  -0.297509  0  1.405977  0
Br  Br56  1  0.01796948  0.42375399  0.36182567  1  0  -0.117973  -0.297504  0  1.405824  0
Br  Br57  1  0.48203907  0.92371307  0.13820456  1  0  -0.11781  -0.297358  0  1.405974  0
Br  Br58  1  0.98203270  0.07625651  0.36181350  1  0  -0.117918  -0.297433  0  1.40584  0
Br  Br59  1  0.51797191  0.57627935  0.13819522  1  0  -0.117889  -0.297407  0  1.405914  0
Br  Br60  1  0.71490435  0.77236091  0.82277813  1  0  -0.104605  -0.278873  0  1.361661  0
Br  Br61  1  0.78507689  0.27236657  0.67723500  1  0  -0.104573  -0.278834  0  1.361744  0
Br  Br62  1  0.28506768  0.72763352  0.82275585  1  0  -0.104541  -0.278831  0  1.361938  0
Br  Br63  1  0.21491351  0.22763925  0.67720794  1  0  -0.104571  -0.278871  0  1.361809  0
Br  Br64  1  0.28510374  0.22764901  0.17720956  1  0  -0.104635  -0.278896  0  1.361579  0
Br  Br65  1  0.21494369  0.72762733  0.32280800  1  0  -0.104616  -0.278887  0  1.361977  0
Br  Br66  1  0.71490862  0.27236572  0.17722202  1  0  -0.104605  -0.278868  0  1.361741  0
Br  Br67  1  0.78514453  0.77235019  0.32282346  1  0  -0.104771  -0.278998  0  1.361236  0
O  O68  1  0.97736609  0.60965176  0.94070963  1  0  -0.20877  -0.216119  0  2.619659  0
O  O69  1  0.52263015  0.10965458  0.55928802  1  0  -0.208774  -0.216096  0  2.619611  0
O  O70  1  0.02262722  0.89034848  0.94071030  1  0  -0.20874  -0.216077  0  2.619691  0
O  O71  1  0.47736283  0.39034721  0.55929216  1  0  -0.208736  -0.215984  0  2.619686  0
O  O72  1  0.02263292  0.39035727  0.05928430  1  0  -0.208717  -0.216075  0  2.62015  0
O  O73  1  0.47737113  0.89035624  0.44072107  1  0  -0.208681  -0.216089  0  2.619987  0
O  O74  1  0.97737065  0.10964630  0.05928006  1  0  -0.208691  -0.216046  0  2.62017  0
O  O75  1  0.52263278  0.60963867  0.44071783  1  0  -0.208694  -0.215941  0  2.619942  0
