# generated using pymatgen
data_ZnH11C14N4O5
_symmetry_space_group_name_H-M   'P 1'
_cell_length_a   9.33638899
_cell_length_b   9.42954825
_cell_length_c   9.62613510
_cell_angle_alpha   91.72266042
_cell_angle_beta   112.37396674
_cell_angle_gamma   98.02054802
_symmetry_Int_Tables_number   1
_chemical_formula_structural   ZnH11C14N4O5
_chemical_formula_sum   'Zn2 H22 C28 N8 O10'
_cell_volume   772.79345621
_cell_formula_units_Z   2
loop_
 _symmetry_equiv_pos_site_id
 _symmetry_equiv_pos_as_xyz
  1  'x, y, z'
loop_
 _atom_site_type_symbol
 _atom_site_label
 _atom_site_symmetry_multiplicity
 _atom_site_fract_x
 _atom_site_fract_y
 _atom_site_fract_z
 _atom_site_occupancy
 _atom_site_hle17_bader_spin_density
 _atom_site_hle17_ddec_charge
 _atom_site_hle17_ddec_spin_density
 _atom_site_hle17_ddec_sum_bond_order
 _atom_site_hle17_magmom
 _atom_site_hse06_10hf_bader_spin_density
 _atom_site_hse06_10hf_ddec_charge
 _atom_site_hse06_10hf_ddec_spin_density
 _atom_site_hse06_10hf_ddec_sum_bond_order
 _atom_site_hse06_10hf_magmom
 _atom_site_hse06_bader_spin_density
 _atom_site_hse06_ddec_charge
 _atom_site_hse06_ddec_spin_density
 _atom_site_hse06_ddec_sum_bond_order
 _atom_site_hse06_magmom
 _atom_site_pbe_bader_spin_density
 _atom_site_pbe_cm5_charge
 _atom_site_pbe_ddec_charge
 _atom_site_pbe_ddec_spin_density
 _atom_site_pbe_ddec_sum_bond_order
 _atom_site_pbe_magmom
Zn  Zn0  1  0.84070787  0.56753412  0.00356661  1  0  1.092219  0  1.778461  0  0  0.914119  0  2.23488  0  0  0.965059  0  2.17627  0  0  0.688279  0.878665  0  2.274415  0
Zn  Zn1  1  0.15929546  0.43246036  0.99643463  1  0  1.092212  0  1.778412  0  0  0.914146  0  2.234829  0  0  0.965084  0  2.176215  0  0  0.688305  0.878699  0  2.274363  0
H  H2  1  0.43077966  0.43224839  0.56155524  1  0  0.10175  0  0.934842  0  0  0.114737  0  1.001757  0  0  0.116295  0  1.000636  0  0  0.118817  0.113821  0  1.002269  0
H  H3  1  0.56921824  0.56774819  0.43844616  1  0  0.101693  0  0.93485  0  0  0.114717  0  1.001778  0  0  0.116277  0  1.000655  0  0  0.118792  0.113798  0  1.002293  0
H  H4  1  0.36031183  0.34960546  0.69195883  1  0  0.12711  0  0.909846  0  0  0.14252  0  0.964586  0  0  0.145178  0  0.962205  0  0  0.128589  0.140532  0  0.966556  0
H  H5  1  0.63969029  0.65039544  0.30804738  1  0  0.127052  0  0.909812  0  0  0.142488  0  0.964585  0  0  0.145152  0  0.962189  0  0  0.128546  0.140497  0  0.966556  0
H  H6  1  0.34676978  0.62985252  0.45517003  1  0  0.097122  0  0.935789  0  0  0.106157  0  1.000763  0  0  0.108768  0  0.998137  0  0  0.127755  0.104455  0  1.002546  0
H  H7  1  0.65323135  0.37014947  0.54483170  1  0  0.097117  0  0.935823  0  0  0.106165  0  1.000788  0  0  0.108776  0  0.998161  0  0  0.127752  0.104476  0  1.002542  0
H  H8  1  0.14329746  0.78972866  0.39038637  1  0  0.110336  0  0.98068  0  0  0.115614  0  1.046635  0  0  0.118249  0  1.04866  0  0  0.105025  0.113966  0  1.044894  0
H  H9  1  0.85670215  0.21027116  0.60961473  1  0  0.110354  0  0.980633  0  0  0.115641  0  1.046589  0  0  0.118272  0  1.048626  0  0  0.105035  0.113994  0  1.044848  0
H  H10  1  0.96087451  0.77258776  0.52849227  1  0  0.101664  0  0.93042  0  0  0.114602  0  0.986768  0  0  0.11825  0  0.982346  0  0  0.111292  0.111607  0  0.990495  0
H  H11  1  0.03912644  0.22741314  0.47151040  1  0  0.101682  0  0.930366  0  0  0.114608  0  0.986721  0  0  0.118257  0  0.982297  0  0  0.111287  0.111617  0  0.990443  0
H  H12  1  0.17674950  0.76311900  0.06486461  1  0  0.129769  0  0.923671  0  0  0.140582  0  0.981886  0  0  0.143617  0  0.978403  0  0  0.149835  0.138293  0  0.98435  0
H  H13  1  0.82325750  0.23687657  0.93514218  1  0  0.12977  0  0.923652  0  0  0.140563  0  0.981897  0  0  0.143615  0  0.978391  0  0  0.14985  0.138276  0  0.984361  0
H  H14  1  0.01683397  0.09207444  0.24451165  1  0  0.107829  0  0.96183  0  0  0.116705  0  1.024994  0  0  0.118524  0  1.023602  0  0  0.137427  0.115486  0  1.025794  0
H  H15  1  0.98315446  0.90792106  0.75547584  1  0  0.107877  0  0.961735  0  0  0.116689  0  1.024971  0  0  0.118509  0  1.023581  0  0  0.137427  0.11547  0  1.025771  0
H  H16  1  0.27429733  0.16480209  0.19373553  1  0  0.121038  0  0.95091  0  0  0.128519  0  1.020323  0  0  0.1309  0  1.018281  0  0  0.11886  0.126468  0  1.022424  0
H  H17  1  0.72569532  0.83519773  0.80625574  1  0  0.121001  0  0.950976  0  0  0.128503  0  1.020404  0  0  0.130884  0  1.018366  0  0  0.118834  0.12645  0  1.022505  0
H  H18  1  0.33907903  0.02860751  0.11285855  1  0  0.101052  0  0.89687  0  0  0.117113  0  0.95038  0  0  0.118719  0  0.948725  0  0  0.121766  0.116502  0  0.950366  0
H  H19  1  0.66091594  0.97139229  0.88713876  1  0  0.101094  0  0.8968  0  0  0.117134  0  0.950362  0  0  0.118743  0  0.948706  0  0  0.121784  0.116523  0  0.950347  0
H  H20  1  0.31896820  0.17825188  0.46410181  1  0  0.102812  0  0.980145  0  0  0.111834  0  1.046756  0  0  0.11474  0  1.045308  0  0  0.100506  0.109263  0  1.048551  0
H  H21  1  0.68102518  0.82175221  0.53589507  1  0  0.102845  0  0.980162  0  0  0.111873  0  1.046758  0  0  0.114778  0  1.045315  0  0  0.100541  0.109301  0  1.04855  0
H  H22  1  0.48946302  0.12932187  0.72445525  1  0  0.098856  0  0.944153  0  0  0.110705  0  1.001923  0  0  0.114009  0  1.000037  0  0  0.10305  0.108254  0  1.003199  0
H  H23  1  0.51053134  0.87068114  0.27554300  1  0  0.09885  0  0.944286  0  0  0.110728  0  1.002013  0  0  0.114035  0  1.00013  0  0  0.103066  0.108278  0  1.003287  0
C  C24  1  0.56232612  0.51360031  0.79592835  1  0  0.669417  0  3.881825  0  0  0.624382  0  4.183066  0  0  0.656919  0  4.176978  0  0  0.197529  0.602167  0  4.186348  0
C  C25  1  0.43768251  0.48638461  0.20406308  1  0  0.669575  0  3.881863  0  0  0.62456  0  4.183136  0  0  0.657094  0  4.177046  0  0  0.197691  0.602347  0  4.186419  0
C  C26  1  0.40869016  0.45216594  0.66381730  1  0  -0.144267  0  3.615107  0  0  -0.212707  0  3.87509  0  0  -0.211487  0  3.87963  0  0  -0.052343  -0.213426  0  3.871478  0
C  C27  1  0.59131311  0.54783497  0.33618726  1  0  -0.144069  0  3.614955  0  0  -0.212681  0  3.87515  0  0  -0.211457  0  3.879689  0  0  -0.05231  -0.213399  0  3.871537  0
C  C28  1  0.27081862  0.63404034  0.51678908  1  0  0.134465  0  3.634412  0  0  0.087442  0  3.894076  0  0  0.100657  0  3.908244  0  0  0.064689  0.077691  0  3.885293  0
C  C29  1  0.72918233  0.36596057  0.48321255  1  0  0.13447  0  3.63451  0  0  0.087436  0  3.894182  0  0  0.10065  0  3.908349  0  0  0.064701  0.077685  0  3.885406  0
C  C30  1  0.15710424  0.72029691  0.48075443  1  0  -0.156791  0  3.773476  0  0  -0.173887  0  4.044932  0  0  -0.186205  0  4.066734  0  0  -0.105627  -0.165656  0  4.030317  0
C  C31  1  0.84289476  0.27970613  0.51924655  1  0  -0.156808  0  3.773567  0  0  -0.17393  0  4.04505  0  0  -0.186246  0  4.066845  0  0  -0.10567  -0.165701  0  4.030444  0
C  C32  1  0.05795639  0.71168185  0.55963756  1  0  0.02759  0  3.732916  0  0  -0.008039  0  3.990097  0  0  0.004639  0  4.002734  0  0  -0.062501  -0.016432  0  3.981944  0
C  C33  1  0.94204243  0.28832011  0.44036437  1  0  0.027581  0  3.732975  0  0  -0.008  0  3.990162  0  0  0.004685  0  4.002805  0  0  -0.06248  -0.016418  0  3.981989  0
C  C34  1  0.07674210  0.62465667  0.67696939  1  0  -0.258225  0  3.725331  0  0  -0.236497  0  3.973798  0  0  -0.256226  0  3.996418  0  0  -0.034578  -0.224036  0  3.958516  0
C  C35  1  0.92325538  0.37534420  0.32303304  1  0  -0.258203  0  3.725362  0  0  -0.236543  0  3.973926  0  0  -0.256297  0  3.996577  0  0  -0.034553  -0.224005  0  3.958556  0
C  C36  1  0.20228262  0.54100459  0.71982233  1  0  0.501403  0  3.782053  0  0  0.453632  0  4.053312  0  0  0.48213  0  4.058379  0  0  0.231876  0.435214  0  4.048846  0
C  C37  1  0.79772077  0.45900385  0.28018151  1  0  0.501485  0  3.782081  0  0  0.453696  0  4.053376  0  0  0.482202  0  4.058447  0  0  0.231886  0.43525  0  4.048912  0
C  C38  1  0.96170097  0.62034621  0.75199863  1  0  0.665023  0  3.923226  0  0  0.609549  0  4.225371  0  0  0.64466  0  4.21889  0  0  0.201454  0.585935  0  4.228944  0
C  C39  1  0.03829712  0.37965144  0.24800391  1  0  0.664983  0  3.923132  0  0  0.609506  0  4.225337  0  0  0.644632  0  4.21886  0  0  0.201484  0.58587  0  4.228909  0
C  C40  1  0.10110461  0.82232287  0.09743531  1  0  0.153794  0  3.624302  0  0  0.086308  0  3.894745  0  0  0.099711  0  3.90698  0  0  0.160016  0.07771  0  3.886199  0
C  C41  1  0.89889891  0.17767268  0.90256915  1  0  0.153855  0  3.624153  0  0  0.086405  0  3.894631  0  0  0.099795  0  3.906854  0  0  0.160018  0.077806  0  3.886086  0
C  C42  1  0.01726656  0.98869078  0.19214607  1  0  0.122941  0  3.666965  0  0  0.065962  0  3.946382  0  0  0.075961  0  3.959831  0  0  0.145716  0.059669  0  3.936371  0
C  C43  1  0.98272670  0.01130581  0.80784635  1  0  0.123056  0  3.666862  0  0  0.066138  0  3.94627  0  0  0.076138  0  3.959712  0  0  0.145775  0.059845  0  3.936258  0
C  C44  1  0.29481339  0.05319201  0.19966542  1  0  -0.052074  0  3.622708  0  0  -0.117349  0  3.867066  0  0  -0.112909  0  3.876356  0  0  -0.047621  -0.120375  0  3.861147  0
C  C45  1  0.70518139  0.94680673  0.80033076  1  0  -0.051825  0  3.622457  0  0  -0.117193  0  3.86697  0  0  -0.11276  0  3.876272  0  0  -0.047534  -0.120217  0  3.861048  0
C  C46  1  0.40517160  0.02828934  0.35478845  1  0  0.072702  0  3.763089  0  0  0.090169  0  4.004085  0  0  0.089139  0  4.029503  0  0  -0.014066  0.090709  0  3.987174  0
C  C47  1  0.59482251  0.97171906  0.64520677  1  0  0.072531  0  3.763117  0  0  0.090028  0  4.00413  0  0  0.088995  0  4.029546  0  0  -0.014132  0.090565  0  3.987216  0
C  C48  1  0.39864832  0.10007881  0.48117394  1  0  -0.124928  0  3.752292  0  0  -0.144968  0  4.001652  0  0  -0.14833  0  4.024858  0  0  -0.095843  -0.142886  0  3.986708  0
C  C49  1  0.60135220  0.89992640  0.51882561  1  0  -0.124925  0  3.752223  0  0  -0.144969  0  4.001592  0  0  -0.14833  0  4.024796  0  0  -0.095865  -0.142882  0  3.986644  0
C  C50  1  0.49318240  0.07201321  0.62590350  1  0  -0.11508  0  3.760559  0  0  -0.134791  0  4.008493  0  0  -0.137678  0  4.030965  0  0  -0.091872  -0.132755  0  3.99362  0
C  C51  1  0.50681501  0.92799415  0.37409082  1  0  -0.115179  0  3.760578  0  0  -0.134922  0  4.008536  0  0  -0.137819  0  4.031018  0  0  -0.091919  -0.13289  0  3.993668  0
N  N52  1  0.29023655  0.54625705  0.62910244  1  0  -0.111095  0  3.479365  0  0  -0.019322  0  3.696094  0  0  -0.038416  0  3.718777  0  0  -0.223939  -0.006866  0  3.680804  0
N  N53  1  0.70976764  0.45374925  0.37090161  1  0  -0.111232  0  3.479612  0  0  -0.019412  0  3.6964  0  0  -0.038508  0  3.719084  0  0  -0.223976  -0.006957  0  3.681121  0
N  N54  1  0.95735456  0.77182870  0.08757401  1  0  -0.270157  0  3.2428  0  0  -0.201839  0  3.553332  0  0  -0.218822  0  3.566153  0  0  -0.238602  -0.190496  0  3.54485  0
N  N55  1  0.04264859  0.22816471  0.91242817  1  0  -0.270077  0  3.242732  0  0  -0.201836  0  3.553345  0  0  -0.218822  0  3.566173  0  0  -0.238617  -0.190493  0  3.54486  0
N  N56  1  0.90337100  0.87656221  0.14839709  1  0  -0.215463  0  2.892087  0  0  -0.204366  0  3.173167  0  0  -0.20995  0  3.186076  0  0  -0.230746  -0.200772  0  3.164466  0
N  N57  1  0.09662518  0.12343118  0.85159629  1  0  -0.215547  0  2.892288  0  0  -0.204428  0  3.173369  0  0  -0.21001  0  3.186278  0  0  -0.230727  -0.20083  0  3.164666  0
N  N58  1  0.14231904  0.95972656  0.16103668  1  0  -0.081679  0  3.552876  0  0  0.012269  0  3.777345  0  0  -0.004402  0  3.802957  0  0  -0.230618  0.023431  0  3.759286  0
N  N59  1  0.85767789  0.04027110  0.83896232  1  0  -0.082018  0  3.552952  0  0  0.011958  0  3.77744  0  0  -0.004708  0  3.803048  0  0  -0.230723  0.023121  0  3.759384  0
O  O60  1  0.66348220  0.42713559  0.83849660  1  0  -0.660154  0  1.954764  0  0  -0.596641  0  2.207612  0  0  -0.626072  0  2.195775  0  0  -0.34139  -0.575863  0  2.214364  0
O  O61  1  0.33651630  0.57285781  0.16149868  1  0  -0.660236  0  1.95439  0  0  -0.596712  0  2.207241  0  0  -0.626149  0  2.195403  0  0  -0.341452  -0.575927  0  2.213992  0
O  O62  1  0.58557902  0.63975091  0.85292773  1  0  -0.593335  0  1.907327  0  0  -0.544333  0  2.128686  0  0  -0.56757  0  2.119445  0  0  -0.313258  -0.527804  0  2.13451  0
O  O63  1  0.41443615  0.36025869  0.14707840  1  0  -0.593421  0  1.907986  0  0  -0.544401  0  2.129338  0  0  -0.567633  0  2.120092  0  0  -0.313325  -0.52788  0  2.135167  0
O  O64  1  0.24001349  0.46004653  0.82515617  1  0  -0.560303  0  2.10975  0  0  -0.499334  0  2.369755  0  0  -0.525116  0  2.359366  0  0  -0.291827  -0.481997  0  2.376537  0
O  O65  1  0.75999760  0.53996625  0.17485272  1  0  -0.56034  0  2.109782  0  0  -0.499305  0  2.369738  0  0  -0.525087  0  2.359349  0  0  -0.291782  -0.481942  0  2.376492  0
O  O66  1  0.99206597  0.55953737  0.87719439  1  0  -0.688185  0  2.186008  0  0  -0.60102  0  2.470359  0  0  -0.632506  0  2.454907  0  0  -0.320649  -0.579132  0  2.479837  0
O  O67  1  0.00793254  0.44045600  0.12280608  1  0  -0.688134  0  2.185893  0  0  -0.60094  0  2.470209  0  0  -0.632469  0  2.4548  0  0  -0.320646  -0.579057  0  2.479698  0
O  O68  1  0.84277342  0.67860846  0.69329418  1  0  -0.607114  0  1.934947  0  0  -0.567775  0  2.175257  0  0  -0.590369  0  2.16717  0  0  -0.317014  -0.551314  0  2.180252  0
O  O69  1  0.15722565  0.32138813  0.30670868  1  0  -0.60711  0  1.934919  0  0  -0.567762  0  2.175209  0  0  -0.590344  0  2.167095  0  0  -0.31705  -0.551301  0  2.180215  0
