# generated using pymatgen
data_DyH18(C2O)7
_symmetry_space_group_name_H-M   'P 1'
_cell_length_a   12.88347810
_cell_length_b   14.10404411
_cell_length_c   18.82680971
_cell_angle_alpha   89.99993124
_cell_angle_beta   89.99998844
_cell_angle_gamma   90.00012757
_symmetry_Int_Tables_number   1
_chemical_formula_structural   DyH18(C2O)7
_chemical_formula_sum   'Dy8 H144 C112 O56'
_cell_volume   3421.00346479
_cell_formula_units_Z   8
loop_
 _symmetry_equiv_pos_site_id
 _symmetry_equiv_pos_as_xyz
  1  'x, y, z'
loop_
 _atom_site_type_symbol
 _atom_site_label
 _atom_site_symmetry_multiplicity
 _atom_site_fract_x
 _atom_site_fract_y
 _atom_site_fract_z
 _atom_site_occupancy
 _atom_site_pbe_bader_charge
 _atom_site_pbe_bader_spin_density
 _atom_site_pbe_cm5_charge
 _atom_site_pbe_ddec_charge
 _atom_site_pbe_ddec_spin_density
 _atom_site_pbe_ddec_sum_bond_order
 _atom_site_pbe_magmom
Dy  Dy0  1  0.71681717  0.00401447  0.88982994  1  2.190392  0  1.54646  2.150679  0  2.173797  0
Dy  Dy1  1  0.78318252  0.99598645  0.38983081  1  2.190471  0  1.546479  2.150677  0  2.173833  0
Dy  Dy2  1  0.28318182  0.50401481  0.61017005  1  2.190391  0  1.546431  2.150646  0  2.173875  0
Dy  Dy3  1  0.21681704  0.49598624  0.11016925  1  2.190589  0  1.546475  2.150635  0  2.173788  0
Dy  Dy4  1  0.77264687  0.02112681  0.67240701  1  2.184156  0  1.543826  2.08175  0  2.199144  0
Dy  Dy5  1  0.72735134  0.97887375  0.17240578  1  2.184162  0  1.543876  2.081851  0  2.199071  0
Dy  Dy6  1  0.22734983  0.52112811  0.82759403  1  2.184126  0  1.543859  2.081762  0  2.199201  0
Dy  Dy7  1  0.27264818  0.47887260  0.32759377  1  2.184051  0  1.543831  2.081813  0  2.19912  0
H  H8  1  0.99322709  0.06865012  0.88171487  1  0.056788  0  0.103619  0.092584  0  1.022128  0
H  H9  1  0.50677184  0.93135010  0.38171584  1  0.056776  0  0.103609  0.092576  0  1.022122  0
H  H10  1  0.00677362  0.56864989  0.61828453  1  0.056776  0  0.103624  0.09265  0  1.022141  0
H  H11  1  0.49322679  0.43135045  0.11828482  1  0.056769  0  0.103627  0.092623  0  1.022128  0
H  H12  1  0.12328652  0.04082682  0.75207960  1  0.030529  0  0.094233  0.100946  0  0.998705  0
H  H13  1  0.37671152  0.95917401  0.25207996  1  0.030538  0  0.094235  0.100951  0  0.998696  0
H  H14  1  0.87671256  0.54082603  0.74791877  1  0.030566  0  0.094255  0.100995  0  0.998669  0
H  H15  1  0.62328640  0.45917512  0.24791908  1  0.030553  0  0.094242  0.100974  0  0.998678  0
H  H16  1  0.15281499  0.01382459  0.84152227  1  0.051202  0  0.090664  0.087499  0  0.998507  0
H  H17  1  0.34718380  0.98617397  0.34152314  1  0.051188  0  0.090672  0.087514  0  0.998486  0
H  H18  1  0.84718558  0.51382530  0.65847612  1  0.051165  0  0.090678  0.087547  0  0.998474  0
H  H19  1  0.65281419  0.48617599  0.15847799  1  0.051191  0  0.090672  0.087549  0  0.998486  0
H  H20  1  0.26612152  0.14861939  0.83240223  1  0.020847  0  0.091775  0.092507  0  0.991098  0
H  H21  1  0.23387805  0.85137919  0.33240218  1  0.020858  0  0.091786  0.092516  0  0.991077  0
H  H22  1  0.73387938  0.64861985  0.66759657  1  0.020875  0  0.091741  0.092485  0  0.991112  0
H  H23  1  0.76612038  0.35138213  0.16759749  1  0.020855  0  0.091762  0.092509  0  0.991082  0
H  H24  1  0.19751278  0.19251459  0.75833709  1  0.034028  0  0.089878  0.085796  0  1.016889  0
H  H25  1  0.30248759  0.80748481  0.25833813  1  0.034027  0  0.089861  0.085784  0  1.016958  0
H  H26  1  0.80248822  0.69251365  0.74166167  1  0.034296  0  0.089851  0.085769  0  1.016954  0
H  H27  1  0.69751229  0.30748750  0.24166264  1  0.03429  0  0.089878  0.0858  0  1.016888  0
H  H28  1  0.22269620  0.21664158  0.95341315  1  0.04892  0  0.094845  0.131124  0  0.985672  0
H  H29  1  0.27730411  0.78336034  0.45341315  1  0.048933  0  0.094837  0.131105  0  0.985647  0
H  H30  1  0.77730564  0.71664162  0.54658719  1  0.048943  0  0.094835  0.131099  0  0.98567  0
H  H31  1  0.72269649  0.28335985  0.04658764  1  0.048914  0  0.094817  0.13109  0  0.985693  0
H  H32  1  0.13152738  0.12302296  0.94480579  1  0.036691  0  0.094861  0.133472  0  0.996528  0
H  H33  1  0.36847448  0.87697827  0.44480569  1  0.036732  0  0.094858  0.133438  0  0.996501  0
H  H34  1  0.86847501  0.62302316  0.55519357  1  0.036759  0  0.094861  0.13344  0  0.99654  0
H  H35  1  0.63152790  0.37697829  0.05519448  1  0.036647  0  0.094856  0.133452  0  0.996499  0
H  H36  1  0.08940380  0.23601814  0.97333368  1  0.000638  0  0.089877  0.114274  0  1.05175  0
H  H37  1  0.41059728  0.76398304  0.47333367  1  0.00055  0  0.08987  0.114231  0  1.051776  0
H  H38  1  0.91059809  0.73601990  0.52666611  1  0.000601  0  0.089876  0.114279  0  1.051775  0
H  H39  1  0.58940327  0.26398302  0.02666660  1  0.000667  0  0.08987  0.114239  0  1.05179  0
H  H40  1  0.98924558  0.33254756  0.76786700  1  0.003998  0  0.091074  0.131483  0  0.999155  0
H  H41  1  0.51075338  0.66745213  0.26786661  1  0.004003  0  0.091079  0.131489  0  0.99913  0
H  H42  1  0.01075577  0.83254787  0.73213270  1  0.004002  0  0.091078  0.13149  0  0.999122  0
H  H43  1  0.48924538  0.16745299  0.23213269  1  0.004019  0  0.091075  0.131494  0  0.999109  0
H  H44  1  0.90755169  0.23611062  0.74523709  1  0.04235  0  0.093408  0.126127  0  1.034146  0
H  H45  1  0.59244728  0.76388982  0.24523607  1  0.042354  0  0.0934  0.126153  0  1.034133  0
H  H46  1  0.09245020  0.73611035  0.75476270  1  0.042314  0  0.093396  0.126103  0  1.034182  0
H  H47  1  0.40755172  0.26389048  0.25476261  1  0.042334  0  0.093407  0.126123  0  1.034189  0
H  H48  1  0.03979611  0.23292911  0.72112844  1  0.024809  0  0.09261  0.135066  0  1.003224  0
H  H49  1  0.46020194  0.76707106  0.22112843  1  0.024768  0  0.092588  0.135038  0  1.003249  0
H  H50  1  0.96020499  0.73292914  0.77887134  1  0.024823  0  0.092607  0.135043  0  1.003224  0
H  H51  1  0.53979629  0.26707195  0.27887078  1  0.024817  0  0.09261  0.135056  0  1.003249  0
H  H52  1  0.93582751  0.31768287  0.89903209  1  0.027334  0  0.090402  0.132739  0  0.993593  0
H  H53  1  0.56417451  0.68231803  0.39903115  1  0.027356  0  0.090429  0.132784  0  0.993493  0
H  H54  1  0.06417535  0.81768137  0.60096762  1  0.027353  0  0.090398  0.132746  0  0.993576  0
H  H55  1  0.43582662  0.18231828  0.10096761  1  0.027357  0  0.090411  0.132749  0  0.993557  0
H  H56  1  0.93355081  0.20318802  0.93975280  1  0.065104  0  0.090405  0.130789  0  1.015147  0
H  H57  1  0.56645120  0.79681140  0.43975175  1  0.06513  0  0.090387  0.130769  0  1.015273  0
H  H58  1  0.06645100  0.70318729  0.56024755  1  0.06514  0  0.090386  0.130759  0  1.015255  0
H  H59  1  0.43355020  0.29681172  0.06024690  1  0.065086  0  0.090398  0.13077  0  1.015182  0
H  H60  1  0.84942838  0.22847152  0.86856495  1  0.009  0  0.090549  0.120891  0  1.046732  0
H  H61  1  0.65057210  0.77152872  0.36856391  1  0.009012  0  0.090556  0.120887  0  1.046714  0
H  H62  1  0.15057271  0.72847085  0.63143484  1  0.00897  0  0.090547  0.120895  0  1.046703  0
H  H63  1  0.34942847  0.27152805  0.13143423  1  0.008997  0  0.090552  0.120882  0  1.046745  0
H  H64  1  0.39715537  0.89924393  0.84713566  1  0.023077  0  0.09257  0.098566  0  1.00612  0
H  H65  1  0.10284419  0.10075532  0.34713470  1  0.023126  0  0.092576  0.098577  0  1.00614  0
H  H66  1  0.60284226  0.39924445  0.65286451  1  0.023109  0  0.092568  0.098576  0  1.0062  0
H  H67  1  0.89715596  0.60075614  0.15286465  1  0.023091  0  0.092565  0.098538  0  1.006198  0
H  H68  1  0.33481596  0.99903301  0.81126018  1  -0.005635  0  0.089082  0.089019  0  1.008248  0
H  H69  1  0.16518283  0.00096560  0.31125984  1  -0.005644  0  0.089114  0.089052  0  1.008183  0
H  H70  1  0.66518268  0.49903430  0.68873989  1  -0.005645  0  0.089104  0.089054  0  1.008191  0
H  H71  1  0.83481707  0.50096623  0.18873961  1  -0.005651  0  0.089118  0.08906  0  1.00818  0
H  H72  1  0.21183354  0.90188066  0.74839669  1  0.017955  0  0.085602  0.07617  0  1.023117  0
H  H73  1  0.28816683  0.09811805  0.24839731  1  0.017937  0  0.085591  0.076148  0  1.023099  0
H  H74  1  0.78816643  0.40188210  0.75160188  1  0.017962  0  0.085607  0.07619  0  1.023103  0
H  H75  1  0.71183409  0.59811763  0.25160365  1  0.017939  0  0.085594  0.076163  0  1.023091  0
H  H76  1  0.24711970  0.81628959  0.81241554  1  0.055507  0  0.092177  0.0947  0  1.015382  0
H  H77  1  0.25287910  0.18371115  0.31241502  1  0.05555  0  0.092194  0.09472  0  1.015352  0
H  H78  1  0.75287928  0.31628964  0.68758311  1  0.055482  0  0.092154  0.094688  0  1.015388  0
H  H79  1  0.74711893  0.68370877  0.18758426  1  0.055544  0  0.092173  0.094701  0  1.015384  0
H  H80  1  0.29502838  0.82163858  0.65906666  1  0.053084  0  0.101046  0.087224  0  0.988339  0
H  H81  1  0.20497202  0.17835744  0.15906562  1  0.052976  0  0.101025  0.087188  0  0.9883  0
H  H82  1  0.70497372  0.32163900  0.84093304  1  0.05307  0  0.101054  0.087235  0  0.988293  0
H  H83  1  0.79502832  0.67836129  0.34093260  1  0.053092  0  0.10105  0.087227  0  0.988337  0
H  H84  1  0.40555817  0.07480180  0.70645845  1  0.024779  0  0.085735  0.117017  0  1.02273  0
H  H85  1  0.09444298  0.92519769  0.20645782  1  0.024765  0  0.085727  0.117011  0  1.022717  0
H  H86  1  0.59444255  0.57480106  0.79354201  1  0.024781  0  0.085731  0.11703  0  1.022708  0
H  H87  1  0.90555563  0.42519859  0.29354231  1  0.024781  0  0.085748  0.117023  0  1.02274  0
H  H88  1  0.34203374  0.98507119  0.65705031  1  0.028343  0  0.088713  0.122736  0  0.999459  0
H  H89  1  0.15796665  0.01492767  0.15704996  1  0.028333  0  0.088716  0.122756  0  0.999442  0
H  H90  1  0.65796642  0.48507151  0.84294978  1  0.028331  0  0.08871  0.122743  0  0.999453  0
H  H91  1  0.84203174  0.51492949  0.34294948  1  0.02856  0  0.088691  0.122735  0  0.999483  0
H  H92  1  0.47572394  0.01028284  0.64136195  1  0.064059  0  0.091191  0.130525  0  1.04026  0
H  H93  1  0.02427646  0.98971604  0.14136126  1  0.064031  0  0.091183  0.130519  0  1.040258  0
H  H94  1  0.52427740  0.51028327  0.85863804  1  0.064065  0  0.091193  0.130532  0  1.040265  0
H  H95  1  0.97572153  0.48971698  0.35863881  1  0.064065  0  0.091198  0.130544  0  1.040243  0
H  H96  1  0.50351150  0.68733115  0.73689084  1  0.018201  0  0.091669  0.129632  0  1.013631  0
H  H97  1  0.99649057  0.31266859  0.23689017  1  0.018264  0  0.091669  0.129657  0  1.013577  0
H  H98  1  0.49648949  0.18732985  0.76310952  1  0.018239  0  0.091659  0.129677  0  1.013549  0
H  H99  1  0.00351165  0.81266883  0.26310900  1  0.018207  0  0.09167  0.129618  0  1.013622  0
H  H100  1  0.48443288  0.76261728  0.81111793  1  0.030104  0  0.090585  0.127857  0  1.046333  0
H  H101  1  0.01556980  0.23738204  0.31111739  1  0.030094  0  0.090576  0.127848  0  1.04636  0
H  H102  1  0.51556907  0.26261685  0.68888236  1  0.030095  0  0.090589  0.127873  0  1.046289  0
H  H103  1  0.98443302  0.73738085  0.18888131  1  0.030084  0  0.090592  0.127876  0  1.046279  0
H  H104  1  0.59302393  0.77983590  0.75402380  1  -0.003155  0  0.089918  0.125508  0  1.019226  0
H  H105  1  0.90697736  0.22016381  0.25402376  1  -0.003172  0  0.089931  0.125503  0  1.019188  0
H  H106  1  0.40697729  0.27983516  0.74597647  1  -0.003177  0  0.089935  0.125522  0  1.019208  0
H  H107  1  0.09302386  0.72016356  0.24597602  1  -0.003167  0  0.089917  0.125487  0  1.019237  0
H  H108  1  0.49648942  0.74526923  0.61735755  1  0.029803  0  0.086545  0.117592  0  1.02123  0
H  H109  1  0.00350944  0.25472969  0.11735700  1  0.029696  0  0.086518  0.11754  0  1.021289  0
H  H110  1  0.50351172  0.24526846  0.88264329  1  0.02963  0  0.08653  0.117577  0  1.021207  0
H  H111  1  0.99648954  0.75473105  0.38264222  1  0.029796  0  0.086542  0.117568  0  1.021249  0
H  H112  1  0.56907165  0.85080215  0.63037191  1  0.081405  0  0.094579  0.137221  0  1.013148  0
H  H113  1  0.93092812  0.14919706  0.13037246  1  0.08139  0  0.094577  0.137201  0  1.01313  0
H  H114  1  0.43092974  0.35080125  0.86962883  1  0.081288  0  0.09458  0.137211  0  1.013087  0
H  H115  1  0.06907137  0.64919726  0.36962792  1  0.081405  0  0.094577  0.137207  0  1.013152  0
H  H116  1  0.44232328  0.85710166  0.59366947  1  0.010832  0  0.085622  0.118044  0  1.017669  0
H  H117  1  0.05767480  0.14289730  0.09366848  1  0.010811  0  0.085627  0.118026  0  1.017607  0
H  H118  1  0.55767812  0.35710096  0.90633126  1  0.010758  0  0.085608  0.118012  0  1.017654  0
H  H119  1  0.94232312  0.64289851  0.40633031  1  0.010794  0  0.085599  0.118013  0  1.017672  0
H  H120  1  0.53236253  0.81042056  0.90924393  1  0.09985  0  0.105713  0.102253  0  1.062486  0
H  H121  1  0.96763406  0.18958245  0.40924391  1  0.099473  0  0.105757  0.10227  0  1.06244  0
H  H122  1  0.46764031  0.31042019  0.59075579  1  0.099875  0  0.10574  0.102293  0  1.062448  0
H  H123  1  0.03236553  0.68958090  0.09075431  1  0.099437  0  0.105739  0.102268  0  1.062489  0
H  H124  1  0.41923219  0.66778832  0.88778312  1  0.099456  0  0.110362  0.101849  0  1.040748  0
H  H125  1  0.08076348  0.33221583  0.38778408  1  0.099519  0  0.110361  0.101825  0  1.040779  0
H  H126  1  0.58076487  0.16778389  0.61221726  1  0.099631  0  0.110358  0.101855  0  1.040768  0
H  H127  1  0.91923491  0.83221251  0.11221719  1  0.099466  0  0.110363  0.101829  0  1.040794  0
H  H128  1  0.47417388  0.57586148  0.10207064  1  0.093242  0  0.107602  0.103087  0  1.039606  0
H  H129  1  0.02583041  0.42413605  0.60207420  1  0.09304  0  0.107597  0.103078  0  1.039533  0
H  H130  1  0.52582543  0.07586073  0.39792821  1  0.093217  0  0.107566  0.103037  0  1.039639  0
H  H131  1  0.97417038  0.92413876  0.89792860  1  0.093216  0  0.107617  0.103138  0  1.039512  0
H  H132  1  0.58786928  0.71702747  0.12265770  1  0.105819  0  0.108725  0.111012  0  1.025426  0
H  H133  1  0.91213127  0.28297246  0.62265974  1  0.105788  0  0.108754  0.111064  0  1.025344  0
H  H134  1  0.41213115  0.21702723  0.37734155  1  0.105785  0  0.108719  0.111007  0  1.025418  0
H  H135  1  0.08786685  0.78297340  0.87734053  1  0.105811  0  0.108711  0.111009  0  1.025391  0
H  H136  1  0.73351628  0.79804634  0.86588713  1  0.621166  0  0.335351  0.421629  0  0.864206  0
H  H137  1  0.76648421  0.20195391  0.36588659  1  0.621162  0  0.335345  0.421615  0  0.864227  0
H  H138  1  0.26648266  0.29804832  0.63411312  1  0.621199  0  0.335342  0.421662  0  0.864176  0
H  H139  1  0.23351542  0.70195412  0.13411373  1  0.621168  0  0.335338  0.421644  0  0.864189  0
H  H140  1  0.78578018  0.84232949  0.79582638  1  0.66687  0  0.30758  0.41694  0  0.913895  0
H  H141  1  0.71422188  0.15767158  0.29582589  1  0.666861  0  0.307595  0.41694  0  0.913893  0
H  H142  1  0.21422042  0.34232984  0.70417437  1  0.666853  0  0.307587  0.416931  0  0.913908  0
H  H143  1  0.28577841  0.65767036  0.20417448  1  0.66686  0  0.307563  0.416851  0  0.91402  0
H  H144  1  0.62048319  0.10596171  0.01807307  1  0.675422  0  0.304043  0.421642  0  0.906921  0
H  H145  1  0.87951739  0.89403980  0.51807297  1  0.675431  0  0.304035  0.421646  0  0.906917  0
H  H146  1  0.37951697  0.60596024  0.48192681  1  0.675428  0  0.304036  0.421651  0  0.906909  0
H  H147  1  0.12048255  0.39404093  0.98192667  1  0.675426  0  0.304043  0.42174  0  0.906796  0
H  H148  1  0.61048737  0.15885643  0.94231089  1  0.617819  0  0.312171  0.395365  0  0.925517  0
H  H149  1  0.88951309  0.84114511  0.44231083  1  0.617848  0  0.312149  0.395328  0  0.925562  0
H  H150  1  0.38951355  0.65885566  0.55768896  1  0.617828  0  0.312168  0.395379  0  0.925497  0
H  H151  1  0.11048843  0.34114619  0.05768885  1  0.617873  0  0.312123  0.395341  0  0.925526  0
C  C152  1  0.01116158  0.09614411  0.82855297  1  -0.005245  0  -0.083489  -0.177842  0  3.756662  0
C  C153  1  0.48883799  0.90385589  0.32855337  1  -0.005216  0  -0.083476  -0.177932  0  3.756685  0
C  C154  1  0.98883842  0.59614438  0.67144640  1  -0.005222  0  -0.083403  -0.177932  0  3.756794  0
C  C155  1  0.51116212  0.40385760  0.17144678  1  -0.005284  0  -0.083458  -0.177956  0  3.756853  0
C  C156  1  0.12280842  0.06941007  0.80622418  1  -0.026388  0  -0.165201  -0.16294  0  3.889966  0
C  C157  1  0.37719116  0.93058997  0.30622457  1  -0.026378  0  -0.165236  -0.162984  0  3.890016  0
C  C158  1  0.87719151  0.56941007  0.69377469  1  -0.026392  0  -0.165281  -0.163067  0  3.889985  0
C  C159  1  0.62280825  0.43059116  0.19377503  1  -0.026388  0  -0.165274  -0.163059  0  3.890041  0
C  C160  1  0.18783910  0.16079597  0.81107626  1  -0.02852  0  -0.164151  -0.187328  0  3.899173  0
C  C161  1  0.31216125  0.83920334  0.31107620  1  -0.028539  0  -0.164142  -0.187306  0  3.899305  0
C  C162  1  0.81216182  0.66079585  0.68892306  1  -0.028783  0  -0.164111  -0.187285  0  3.899298  0
C  C163  1  0.68783793  0.33920539  0.18892400  1  -0.028836  0  -0.16414  -0.187378  0  3.899205  0
C  C164  1  0.12489034  0.22748384  0.85936641  1  0.042037  0  -0.009541  0.013776  0  3.73643  0
C  C165  1  0.37510922  0.77251469  0.35936588  1  0.042013  0  -0.009513  0.01376  0  3.736511  0
C  C166  1  0.87511075  0.72748534  0.64063338  1  0.042027  0  -0.009527  0.013764  0  3.736499  0
C  C167  1  0.62489057  0.27251740  0.14063386  1  0.042031  0  -0.009495  0.014004  0  3.736135  0
C  C168  1  0.00868567  0.20768020  0.83495231  1  0.040118  0  0.002977  0.209933  0  3.668539  0
C  C169  1  0.49131389  0.79231837  0.33495121  1  0.040074  0  0.002983  0.210076  0  3.668398  0
C  C170  1  0.99131537  0.70768048  0.66504750  1  0.040022  0  0.002977  0.209983  0  3.668584  0
C  C171  1  0.50868517  0.29232151  0.16504798  1  0.040127  0  0.002998  0.210006  0  3.668478  0
C  C172  1  0.92959753  0.05579921  0.77916272  1  1.512384  0  0.220137  0.656323  0  4.087781  0
C  C173  1  0.57040220  0.94420118  0.27916208  1  1.512431  0  0.220073  0.656282  0  4.087974  0
C  C174  1  0.07040159  0.55579966  0.72083988  1  1.512485  0  0.219975  0.656217  0  4.087965  0
C  C175  1  0.42959646  0.44420122  0.22083538  1  1.512424  0  0.220116  0.656342  0  4.08766  0
C  C176  1  0.15323840  0.33151787  0.84869116  1  1.509672  0  0.221751  0.597929  0  4.083826  0
C  C177  1  0.34676194  0.66848281  0.34869072  1  1.509685  0  0.221777  0.59795  0  4.084046  0
C  C178  1  0.84676294  0.83151787  0.65130907  1  1.509712  0  0.221791  0.597957  0  4.083964  0
C  C179  1  0.65323760  0.16848413  0.15130964  1  1.509722  0  0.221698  0.597735  0  4.083835  0
C  C180  1  0.14284973  0.19955492  0.93738867  1  -0.064433  0  -0.239694  -0.39882  0  3.912405  0
C  C181  1  0.35715136  0.80044632  0.43738811  1  -0.064364  0  -0.239693  -0.398724  0  3.912351  0
C  C182  1  0.85715207  0.69955510  0.56261115  1  -0.064477  0  -0.239678  -0.398735  0  3.912401  0
C  C183  1  0.64285005  0.30044706  0.06261160  1  -0.064408  0  -0.23968  -0.398793  0  3.912356  0
C  C184  1  0.98594902  0.25493436  0.76310680  1  -0.041297  0  -0.246802  -0.427733  0  3.876339  0
C  C185  1  0.51405072  0.74506605  0.26310475  1  -0.041246  0  -0.246789  -0.427771  0  3.876302  0
C  C186  1  0.01405292  0.75493396  0.73689349  1  -0.04127  0  -0.246808  -0.427706  0  3.876317  0
C  C187  1  0.48594746  0.24506689  0.23689342  1  -0.04129  0  -0.246807  -0.427737  0  3.876347  0
C  C188  1  0.92790021  0.24118425  0.88905593  1  -0.076716  0  -0.245067  -0.42709  0  3.895785  0
C  C189  1  0.57210026  0.75881667  0.38905491  1  -0.076754  0  -0.24508  -0.427142  0  3.895817  0
C  C190  1  0.07210091  0.74118345  0.61094385  1  -0.076688  0  -0.245059  -0.427109  0  3.895882  0
C  C191  1  0.42790028  0.25881689  0.11094377  1  -0.076717  0  -0.245078  -0.42711  0  3.895815  0
C  C192  1  0.44589304  0.93171206  0.73962088  1  0.028618  0  -0.010142  0.012086  0  3.722604  0
C  C193  1  0.05410578  0.06828595  0.23961996  1  0.028606  0  -0.010105  0.012128  0  3.722601  0
C  C194  1  0.55410622  0.43171301  0.76037979  1  0.028545  0  -0.010113  0.012176  0  3.722578  0
C  C195  1  0.94589429  0.56828599  0.26037943  1  0.02859  0  -0.010115  0.012091  0  3.722626  0
C  C196  1  0.36298374  0.92762587  0.79825429  1  0.00847  0  -0.16805  -0.187867  0  3.89373  0
C  C197  1  0.13701506  0.07237276  0.29825389  1  0.008432  0  -0.168119  -0.18792  0  3.893745  0
C  C198  1  0.63701396  0.42762708  0.70174532  1  0.008441  0  -0.168109  -0.187962  0  3.893815  0
C  C199  1  0.86298424  0.57237343  0.20174496  1  0.008453  0  -0.168105  -0.187887  0  3.893772  0
C  C200  1  0.27759290  0.86193968  0.77014760  1  -0.038085  0  -0.171714  -0.164739  0  3.917704  0
C  C201  1  0.22240668  0.13805758  0.27014766  1  -0.03808  0  -0.171683  -0.164709  0  3.917589  0
C  C202  1  0.72240619  0.36194031  0.72985154  1  -0.038041  0  -0.171704  -0.164778  0  3.917693  0
C  C203  1  0.77759278  0.63805874  0.22985220  1  -0.03806  0  -0.171693  -0.164724  0  3.917638  0
C  C204  1  0.32757158  0.80192366  0.71100165  1  -0.023442  0  -0.08588  -0.181905  0  3.778999  0
C  C205  1  0.17242803  0.19807298  0.21100060  1  -0.023303  0  -0.085901  -0.181839  0  3.778854  0
C  C206  1  0.67242892  0.30192338  0.78899860  1  -0.023445  0  -0.085848  -0.181799  0  3.778896  0
C  C207  1  0.82757236  0.69807557  0.28899814  1  -0.023403  0  -0.085887  -0.181889  0  3.778908  0
C  C208  1  0.44674129  0.82730870  0.70828795  1  0.054917  0  0.001259  0.208482  0  3.663475  0
C  C209  1  0.05325909  0.17269007  0.20828747  1  0.054909  0  0.00125  0.208397  0  3.663516  0
C  C210  1  0.55325849  0.32730889  0.79171175  1  0.055037  0  0.001217  0.208338  0  3.663668  0
C  C211  1  0.94674201  0.67269077  0.29171183  1  0.054933  0  0.001225  0.208422  0  3.663558  0
C  C212  1  0.55260260  0.95606970  0.77002113  1  1.564783  0  0.237406  0.654513  0  4.079928  0
C  C213  1  0.94739791  0.04393141  0.27001858  1  1.564872  0  0.237402  0.654541  0  4.07991  0
C  C214  1  0.44739594  0.45606693  0.72998430  1  1.564972  0  0.237323  0.654435  0  4.079931  0
C  C215  1  0.05260056  0.54392826  0.22997924  1  1.56475  0  0.23743  0.654657  0  4.079883  0
C  C216  1  0.31047047  0.69591503  0.71786744  1  1.555985  0  0.237345  0.682377  0  4.091982  0
C  C217  1  0.18953146  0.30408443  0.21786151  1  1.555992  0  0.237228  0.682114  0  4.092206  0
C  C218  1  0.68953131  0.19591268  0.78213291  1  1.556094  0  0.237212  0.682148  0  4.092418  0
C  C219  1  0.81046842  0.80408770  0.28213235  1  1.556059  0  0.237288  0.682223  0  4.092233  0
C  C220  1  0.41588217  0.00449788  0.68242202  1  -0.083272  0  -0.241256  -0.391178  0  3.896986  0
C  C221  1  0.08411822  0.99550094  0.18242132  1  -0.083288  0  -0.241261  -0.391183  0  3.896915  0
C  C222  1  0.58411838  0.50449850  0.81757851  1  -0.083301  0  -0.241266  -0.391199  0  3.896904  0
C  C223  1  0.91588056  0.49550253  0.31757875  1  -0.083513  0  -0.241268  -0.391198  0  3.897003  0
C  C224  1  0.51035679  0.76069875  0.75585206  1  -0.037655  0  -0.248197  -0.432281  0  3.883331  0
C  C225  1  0.98964528  0.23930167  0.25585199  1  -0.037661  0  -0.248192  -0.432244  0  3.883207  0
C  C226  1  0.48964438  0.26069747  0.74414823  1  -0.037674  0  -0.248187  -0.432281  0  3.883243  0
C  C227  1  0.01035676  0.73930125  0.24414725  1  -0.037635  0  -0.248196  -0.432225  0  3.8833  0
C  C228  1  0.49078064  0.82025622  0.63290343  1  -0.1028  0  -0.245485  -0.417282  0  3.894373  0
C  C229  1  0.00921821  0.17974338  0.13290348  1  -0.102678  0  -0.245457  -0.417167  0  3.894302  0
C  C230  1  0.50922067  0.32025478  0.86709681  1  -0.102498  0  -0.245449  -0.417187  0  3.894264  0
C  C231  1  0.99078136  0.67974405  0.36709634  1  -0.10275  0  -0.245456  -0.417191  0  3.89438  0
C  C232  1  0.56854228  0.77023993  0.01648196  1  -0.03973  0  -0.01077  -0.033393  0  3.952597  0
C  C233  1  0.93145597  0.22976088  0.51648245  1  -0.039701  0  -0.010798  -0.033468  0  3.952508  0
C  C234  1  0.43145828  0.27024027  0.48351884  1  -0.039665  0  -0.010828  -0.033515  0  3.952602  0
C  C235  1  0.06854357  0.72976090  0.98351521  1  -0.039672  0  -0.01075  -0.033356  0  3.952546  0
C  C236  1  0.52056285  0.75704221  0.95039272  1  -0.03267  0  -0.085737  -0.110117  0  3.973841  0
C  C237  1  0.97943373  0.24296145  0.45039318  1  -0.032321  0  -0.085752  -0.110092  0  3.973744  0
C  C238  1  0.47943521  0.25703980  0.54960651  1  -0.032765  0  -0.08576  -0.110112  0  3.973765  0
C  C239  1  0.02056600  0.74295852  0.04960711  1  -0.032301  0  -0.085785  -0.110231  0  3.973759  0
C  C240  1  0.45766437  0.67835692  0.93873811  1  -0.057789  0  -0.07773  -0.08345  0  3.961026  0
C  C241  1  0.04233517  0.32164432  0.43873908  1  -0.057909  0  -0.077676  -0.083348  0  3.960869  0
C  C242  1  0.54233427  0.17835533  0.56126279  1  -0.058315  0  -0.077649  -0.083385  0  3.960888  0
C  C243  1  0.95766397  0.82164257  0.06126273  1  -0.057806  0  -0.077674  -0.083285  0  3.9609  0
C  C244  1  0.44221503  0.61168733  0.99301074  1  -0.045748  0  -0.011349  -0.047716  0  3.95248  0
C  C245  1  0.05778604  0.38831382  0.49301325  1  -0.045619  0  -0.011373  -0.047777  0  3.952531  0
C  C246  1  0.55778267  0.11168373  0.50698862  1  -0.045349  0  -0.011426  -0.047801  0  3.95245  0
C  C247  1  0.94221481  0.88831284  0.00698957  1  -0.045702  0  -0.01138  -0.047781  0  3.95237  0
C  C248  1  0.48889746  0.62618468  0.05950578  1  -0.022905  0  -0.080096  -0.088778  0  3.973773  0
C  C249  1  0.01110452  0.37381433  0.55950833  1  -0.022501  0  -0.080129  -0.088739  0  3.973653  0
C  C250  1  0.51110120  0.12618383  0.44049355  1  -0.02266  0  -0.080028  -0.088728  0  3.973705  0
C  C251  1  0.98889538  0.87381488  0.94049239  1  -0.022498  0  -0.080125  -0.088873  0  3.973655  0
C  C252  1  0.55160578  0.70482105  0.07124220  1  -0.047434  0  -0.079455  -0.088584  0  3.956399  0
C  C253  1  0.94839479  0.29517897  0.57124369  1  -0.047727  0  -0.079478  -0.088697  0  3.956425  0
C  C254  1  0.44839308  0.20482009  0.42875813  1  -0.047668  0  -0.079468  -0.088563  0  3.956328  0
C  C255  1  0.05160413  0.79518046  0.92875763  1  -0.047865  0  -0.079445  -0.088561  0  3.956531  0
C  C256  1  0.63701846  0.85452220  0.02862152  1  1.582759  0  0.248551  0.682144  0  4.116492  0
C  C257  1  0.86297514  0.14547930  0.52862104  1  1.582799  0  0.248576  0.682311  0  4.116133  0
C  C258  1  0.36298076  0.35452100  0.47137867  1  1.582657  0  0.248543  0.682158  0  4.116394  0
C  C259  1  0.13702032  0.64547806  0.97138255  1  1.582636  0  0.248503  0.682104  0  4.116272  0
C  C260  1  0.37439784  0.52692010  0.98054080  1  1.578121  0  0.23758  0.657499  0  4.158554  0
C  C261  1  0.12560091  0.47308037  0.48053898  1  1.577978  0  0.237561  0.657498  0  4.158635  0
C  C262  1  0.62559965  0.02691590  0.51946183  1  1.578111  0  0.23761  0.657609  0  4.158547  0
C  C263  1  0.87439860  0.97307994  0.01946217  1  1.578158  0  0.237553  0.65755  0  4.158453  0
O  O264  1  0.84013097  0.03125153  0.80446442  1  -1.220534  0  -0.446339  -0.77589  0  2.424158  0
O  O265  1  0.65986798  0.96874811  0.30446587  1  -1.22052  0  -0.446284  -0.775846  0  2.424026  0
O  O266  1  0.15986964  0.53125291  0.69553607  1  -1.22055  0  -0.446292  -0.775856  0  2.424028  0
O  O267  1  0.34013307  0.46874943  0.19553582  1  -1.220614  0  -0.446293  -0.77581  0  2.424169  0
O  O268  1  0.94645322  0.04699400  0.71328911  1  -1.16151  0  -0.368763  -0.61038  0  2.180545  0
O  O269  1  0.55354575  0.95301003  0.21329111  1  -1.161572  0  -0.368744  -0.610326  0  2.180761  0
O  O270  1  0.05354432  0.54699431  0.78671137  1  -1.161617  0  -0.368671  -0.610244  0  2.180756  0
O  O271  1  0.44645216  0.45300646  0.28671165  1  -1.161457  0  -0.368792  -0.610448  0  2.180372  0
O  O272  1  0.13721252  0.39344048  0.89705089  1  -1.188206  0  -0.340954  -0.615623  0  2.247612  0
O  O273  1  0.36278703  0.60655941  0.39705157  1  -1.188193  0  -0.340961  -0.615584  0  2.247491  0
O  O274  1  0.86278820  0.89343989  0.60294928  1  -1.188202  0  -0.34096  -0.615595  0  2.247557  0
O  O275  1  0.63721236  0.10656149  0.10294990  1  -1.188139  0  -0.340958  -0.615528  0  2.247514  0
O  O276  1  0.19481417  0.35980984  0.79049594  1  -1.201981  0  -0.36775  -0.647463  0  2.336516  0
O  O277  1  0.30518618  0.64019022  0.29049766  1  -1.20203  0  -0.36776  -0.647486  0  2.336781  0
O  O278  1  0.80518879  0.85980967  0.70950373  1  -1.202038  0  -0.367782  -0.647497  0  2.336685  0
O  O279  1  0.69481329  0.14019224  0.20950379  1  -1.202067  0  -0.367715  -0.647422  0  2.336633  0
O  O280  1  0.62670840  0.97323297  0.72736864  1  -1.215045  0  -0.422163  -0.716228  0  2.424167  0
O  O281  1  0.87329213  0.02676821  0.22736559  1  -1.215225  0  -0.422184  -0.716337  0  2.424259  0
O  O282  1  0.37329329  0.47323070  0.77263571  1  -1.215314  0  -0.4221  -0.716204  0  2.424166  0
O  O283  1  0.12670940  0.52676585  0.27263809  1  -1.21509  0  -0.422169  -0.716394  0  2.424133  0
O  O284  1  0.56472199  0.95640573  0.83715996  1  -1.198365  0  -0.404105  -0.675119  0  2.299868  0
O  O285  1  0.93527539  0.04359385  0.33715847  1  -1.198258  0  -0.404087  -0.675126  0  2.299873  0
O  O286  1  0.43527345  0.45640447  0.66284335  1  -1.198259  0  -0.404045  -0.675078  0  2.299806  0
O  O287  1  0.06472540  0.54359296  0.16284572  1  -1.198292  0  -0.404098  -0.675138  0  2.300066  0
O  O288  1  0.32634347  0.64707520  0.66165879  1  -1.214937  0  -0.410128  -0.706081  0  2.337164  0
O  O289  1  0.17366236  0.35292152  0.16165706  1  -1.215094  0  -0.410079  -0.705843  0  2.337438  0
O  O290  1  0.67365820  0.14707627  0.83834107  1  -1.21494  0  -0.410073  -0.705954  0  2.337336  0
O  O291  1  0.82634229  0.85292402  0.33834154  1  -1.215013  0  -0.410117  -0.705985  0  2.337171  0
O  O292  1  0.28320605  0.66152340  0.77735444  1  -1.204833  0  -0.395534  -0.664599  0  2.303487  0
O  O293  1  0.21679975  0.33847526  0.27735537  1  -1.204726  0  -0.395456  -0.664585  0  2.303359  0
O  O294  1  0.71679643  0.16152474  0.72264276  1  -1.204894  0  -0.395473  -0.664552  0  2.303721  0
O  O295  1  0.78320254  0.83847361  0.22264377  1  -1.204936  0  -0.395461  -0.664549  0  2.303701  0
O  O296  1  0.65852043  0.87621382  0.09220584  1  -1.179798  0  -0.403828  -0.662143  0  2.308104  0
O  O297  1  0.84147314  0.12378899  0.59220697  1  -1.179734  0  -0.403855  -0.662234  0  2.307903  0
O  O298  1  0.34147651  0.37621056  0.40779540  1  -1.179637  0  -0.403813  -0.662116  0  2.308022  0
O  O299  1  0.15852381  0.62378790  0.90779026  1  -1.17965  0  -0.403907  -0.662226  0  2.307603  0
O  O300  1  0.67025629  0.89860812  0.97417257  1  -1.205148  0  -0.418689  -0.689696  0  2.323939  0
O  O301  1  0.82974028  0.10139620  0.47417105  1  -1.205194  0  -0.418707  -0.689733  0  2.323924  0
O  O302  1  0.32974366  0.39860545  0.52582866  1  -1.205118  0  -0.418697  -0.689707  0  2.32389  0
O  O303  1  0.17025755  0.60139787  0.02582725  1  -1.205167  0  -0.4186  -0.689578  0  2.324232  0
O  O304  1  0.35178989  0.47471807  0.03400393  1  -1.210964  0  -0.423301  -0.704603  0  2.295853  0
O  O305  1  0.14821364  0.52528452  0.53400738  1  -1.210847  0  -0.423363  -0.70466  0  2.295613  0
O  O306  1  0.64821195  0.97471576  0.46599403  1  -1.210959  0  -0.423348  -0.704655  0  2.295618  0
O  O307  1  0.85178618  0.02528362  0.96599365  1  -1.210945  0  -0.423343  -0.70465  0  2.295613  0
O  O308  1  0.34307244  0.51038443  0.91796834  1  -1.201571  0  -0.406581  -0.67705  0  2.377269  0
O  O309  1  0.15692633  0.48961401  0.41797128  1  -1.201538  0  -0.406477  -0.676974  0  2.377498  0
O  O310  1  0.65692269  0.01038446  0.58203005  1  -1.201582  0  -0.406506  -0.677035  0  2.377479  0
O  O311  1  0.84307244  0.98961199  0.08203092  1  -1.201599  0  -0.406496  -0.677058  0  2.377451  0
O  O312  1  0.77274721  0.85162180  0.84773693  1  -1.262114  0  -0.624972  -0.852242  0  2.064392  0
O  O313  1  0.72725328  0.14837847  0.34773644  1  -1.262108  0  -0.624978  -0.852226  0  2.064426  0
O  O314  1  0.22725030  0.35162297  0.65226328  1  -1.262136  0  -0.624969  -0.852279  0  2.064338  0
O  O315  1  0.27274699  0.64837802  0.15226447  1  -1.262117  0  -0.624955  -0.852197  0  2.064429  0
O  O316  1  0.61367665  0.09699827  0.96529145  1  -1.273542  0  -0.649191  -0.862278  0  2.051708  0
O  O317  1  0.88632380  0.90300323  0.46529132  1  -1.27357  0  -0.649151  -0.862222  0  2.051724  0
O  O318  1  0.38632412  0.59699753  0.53470899  1  -1.273563  0  -0.649182  -0.862286  0  2.051685  0
O  O319  1  0.11367398  0.40300507  0.03470776  1  -1.273613  0  -0.649119  -0.862322  0  2.051533  0
