# generated using pymatgen
data_Zn4H8C24S4Br4N4O13
_symmetry_space_group_name_H-M   'P 1'
_cell_length_a   19.72166110
_cell_length_b   19.83067012
_cell_length_c   33.53133375
_cell_angle_alpha   78.26483677
_cell_angle_beta   78.57904185
_cell_angle_gamma   63.59068282
_symmetry_Int_Tables_number   1
_chemical_formula_structural   Zn4H8C24S4Br4N4O13
_chemical_formula_sum   'Zn16 H32 C96 S16 Br16 N16 O52'
_cell_volume   11413.00159435
_cell_formula_units_Z   4
loop_
 _symmetry_equiv_pos_site_id
 _symmetry_equiv_pos_as_xyz
  1  'x, y, z'
loop_
 _atom_site_type_symbol
 _atom_site_label
 _atom_site_symmetry_multiplicity
 _atom_site_fract_x
 _atom_site_fract_y
 _atom_site_fract_z
 _atom_site_occupancy
 _atom_site_pbe_bader_charge
 _atom_site_pbe_bader_spin_density
 _atom_site_pbe_cm5_charge
 _atom_site_pbe_ddec_charge
 _atom_site_pbe_ddec_spin_density
 _atom_site_pbe_ddec_sum_bond_order
 _atom_site_pbe_magmom
Zn  Zn0  1  0.05534738  0.40141534  0.47835338  1  1.316836  0  0.674547  0.968015  0  2.350646  0
Zn  Zn1  1  0.98595012  0.48370174  0.55965735  1  1.324162  0  0.674794  0.96038  0  2.396038  0
Zn  Zn2  1  0.05777799  0.56220182  0.48380091  1  1.320117  0  0.674347  0.963888  0  2.372365  0
Zn  Zn3  1  0.90147843  0.55259078  0.47880567  1  1.316576  0  0.674349  0.96385  0  2.375193  0
Zn  Zn4  1  0.69418371  0.34849776  0.27182755  1  1.316556  0  0.674201  0.967551  0  2.349383  0
Zn  Zn5  1  0.69120905  0.18898573  0.26626499  1  1.319013  0  0.674192  0.963956  0  2.372428  0
Zn  Zn6  1  0.76807225  0.26391905  0.18997665  1  1.319347  0  0.674324  0.964344  0  2.368771  0
Zn  Zn7  1  0.84683965  0.19835835  0.27235727  1  1.316826  0  0.674786  0.960596  0  2.393171  0
Zn  Zn8  1  0.26479634  0.76538273  0.69053215  1  1.330727  0  0.674478  0.958691  0  2.400498  0
Zn  Zn9  1  0.34905049  0.69813625  0.77088273  1  1.318743  0  0.67458  0.963831  0  2.374863  0
Zn  Zn10  1  0.19421094  0.84818768  0.77214942  1  1.320645  0  0.674098  0.967309  0  2.352525  0
Zn  Zn11  1  0.19154309  0.68847927  0.76646340  1  1.317857  0  0.674665  0.965382  0  2.369652  0
Zn  Zn12  1  0.55796029  0.06194090  0.98397215  1  1.321394  0  0.674374  0.963977  0  2.374356  0
Zn  Zn13  1  0.40387285  0.05207149  0.97707422  1  1.320445  0  0.674393  0.958734  0  2.398977  0
Zn  Zn14  1  0.55546255  0.90115162  0.97851082  1  1.31797  0  0.674191  0.967848  0  2.350898  0
Zn  Zn15  1  0.48291196  0.98492855  0.05999972  1  1.319368  0  0.67436  0.964765  0  2.369307  0
H  H16  1  0.79748137  0.53387464  0.42197861  1  0.488391  0  0.290663  0.301048  0  1.005577  0
H  H17  1  0.72379707  0.52823734  0.40486223  1  0.417728  0  0.295274  0.282609  0  0.970052  0
H  H18  1  0.94550547  0.21153391  0.33412300  1  0.469784  0  0.289109  0.298887  0  1.009229  0
H  H19  1  0.99487604  0.19387796  0.37468832  1  0.431599  0  0.294376  0.281212  0  0.971688  0
H  H20  1  0.71461111  0.45411068  0.32812650  1  0.484526  0  0.291233  0.301745  0  1.002332  0
H  H21  1  0.72155242  0.52712694  0.34463464  1  0.402318  0  0.295958  0.2833  0  0.96857  0
H  H22  1  0.04052672  0.30329404  0.41579444  1  0.477521  0  0.291381  0.302273  0  1.001646  0
H  H23  1  0.05629370  0.25266401  0.37630806  1  0.43751  0  0.29516  0.282392  0  0.970768  0
H  H24  1  0.14630781  0.63575920  0.52168592  1  0.476821  0  0.289672  0.299418  0  1.005855  0
H  H25  1  0.21543983  0.65633408  0.53341615  1  0.423562  0  0.294132  0.280447  0  0.972097  0
H  H26  1  0.11466548  0.60301873  0.72851321  1  0.479298  0  0.290582  0.300664  0  1.005443  0
H  H27  1  0.09183341  0.53560711  0.71688155  1  0.418615  0  0.294974  0.281824  0  0.971188  0
H  H28  1  0.22271657  0.73346119  0.60975394  1  0.491682  0  0.289717  0.299516  0  1.007517  0
H  H29  1  0.18786087  0.74533138  0.56448634  1  0.42377  0  0.294123  0.281139  0  0.97227  0
H  H30  1  0.01589943  0.52770882  0.64033079  1  0.496012  0  0.289311  0.29893  0  1.008078  0
H  H31  1  0.00259611  0.56375184  0.68514881  1  0.416542  0  0.29392  0.280459  0  0.972875  0
H  H32  1  0.72273864  0.23322172  0.10946671  1  0.484606  0  0.289943  0.299817  0  1.006791  0
H  H33  1  0.68745236  0.24530745  0.06433984  1  0.417525  0  0.294414  0.280972  0  0.972064  0
H  H34  1  0.51558562  0.02798942  0.14081633  1  0.484471  0  0.290479  0.299864  0  1.006324  0
H  H35  1  0.50398442  0.06248075  0.18593760  1  0.43683  0  0.295361  0.282398  0  0.969242  0
H  H36  1  0.64609764  0.13501832  0.02179802  1  0.467743  0  0.290218  0.300491  0  1.005947  0
H  H37  1  0.71475995  0.15644372  0.03340165  1  0.43091  0  0.29443  0.281758  0  0.971225  0
H  H38  1  0.61588351  0.10256110  0.22856258  1  0.467694  0  0.290705  0.30153  0  1.004042  0
H  H39  1  0.59368181  0.03468160  0.21703661  1  0.423911  0  0.295253  0.2823  0  0.970047  0
H  H40  1  0.21519735  0.95329731  0.82816903  1  0.489409  0  0.291259  0.302381  0  1.001117  0
H  H41  1  0.22184308  0.02602755  0.84522839  1  0.418855  0  0.295376  0.282924  0  0.969859  0
H  H42  1  0.54114579  0.80187559  0.91591407  1  0.460993  0  0.291427  0.30132  0  1.003152  0
H  H43  1  0.55737703  0.75172797  0.87614127  1  0.43385  0  0.295957  0.283466  0  0.968573  0
H  H44  1  0.29857011  0.03310353  0.92169360  1  0.489406  0  0.289572  0.298911  0  1.008441  0
H  H45  1  0.22465120  0.02623588  0.90562750  1  0.426546  0  0.293918  0.280838  0  0.971992  0
H  H46  1  0.44595149  0.71030106  0.83413854  1  0.477962  0  0.290127  0.300388  0  1.00604  0
H  H47  1  0.49581101  0.69285186  0.87450049  1  0.436128  0  0.294663  0.281586  0  0.971389  0
C  C48  1  0.06125947  0.31684268  0.56191310  1  1.593041  0  0.216809  0.623374  0  4.203954  0
C  C49  1  0.07041855  0.57017918  0.56961370  1  1.45713  0  0.222921  0.62241  0  4.11566  0
C  C50  1  0.18308284  0.44137313  0.43914736  1  1.61301  0  0.216852  0.625316  0  4.203852  0
C  C51  1  0.93589545  0.68356014  0.43882962  1  1.578883  0  0.217151  0.623986  0  4.202845  0
C  C52  1  0.93055582  0.42967408  0.43035907  1  1.469447  0  0.223391  0.624262  0  4.112091  0
C  C53  1  0.81795509  0.56036963  0.56214855  1  1.59279  0  0.21688  0.624248  0  4.203677  0
C  C54  1  0.56643544  0.30911492  0.31133408  1  1.584641  0  0.217123  0.623955  0  4.204704  0
C  C55  1  0.68127160  0.17863984  0.18037056  1  1.44902  0  0.222987  0.622251  0  4.115545  0
C  C56  1  0.68958578  0.43159975  0.18778816  1  1.600534  0  0.217574  0.626426  0  4.200502  0
C  C57  1  0.93476713  0.18772779  0.18965204  1  1.589367  0  0.216336  0.621593  0  4.204999  0
C  C58  1  0.81857653  0.32204930  0.31957846  1  1.457184  0  0.223776  0.622512  0  4.11644  0
C  C59  1  0.81270694  0.06737036  0.31168372  1  1.621997  0  0.216554  0.625119  0  4.203511  0
C  C60  1  0.43260096  0.69085282  0.68765106  1  1.581383  0  0.21689  0.622862  0  4.204578  0
C  C61  1  0.31951071  0.82131510  0.81923241  1  1.44808  0  0.223335  0.62312  0  4.115135  0
C  C62  1  0.18708769  0.93228070  0.68836508  1  1.577994  0  0.216767  0.624995  0  4.203067  0
C  C63  1  0.06645752  0.80873627  0.81140481  1  1.587999  0  0.217381  0.624692  0  4.205031  0
C  C64  1  0.18064274  0.67853778  0.68063005  1  1.444824  0  0.222715  0.622181  0  4.117669  0
C  C65  1  0.31497019  0.56699716  0.81089807  1  1.578076  0  0.216464  0.623306  0  4.206303  0
C  C66  1  0.43690471  0.18386810  0.93865472  1  1.603205  0  0.216524  0.620935  0  4.210061  0
C  C67  1  0.43217859  0.92898525  0.92954741  1  1.462424  0  0.22346  0.62284  0  4.115271  0
C  C68  1  0.68309933  0.94126665  0.93919450  1  1.616046  0  0.216941  0.625518  0  4.203391  0
C  C69  1  0.56029109  0.81746252  0.06230145  1  1.592057  0  0.216874  0.623799  0  4.20112  0
C  C70  1  0.56878822  0.07078959  0.06998293  1  1.459643  0  0.224087  0.623992  0  4.112107  0
C  C71  1  0.31592860  0.06087463  0.05970068  1  1.578723  0  0.216441  0.623652  0  4.204011  0
C  C72  1  0.90225399  0.40245415  0.40229068  1  0.00301  0  -0.039463  -0.249577  0  3.946678  0
C  C73  1  0.84687501  0.34927963  0.34763471  1  0.004947  0  -0.040255  -0.248808  0  3.945774  0
C  C74  1  0.82883255  0.44753810  0.38879884  1  0.464983  0  0.078921  0.174707  0  4.049683  0
C  C75  1  0.91941439  0.30327870  0.36198972  1  0.44663  0  0.079023  0.174968  0  4.04643  0
C  C76  1  0.80239936  0.42212963  0.36108370  1  0.390585  0  0.079361  0.175097  0  4.050907  0
C  C77  1  0.94749313  0.33032224  0.38807239  1  0.42838  0  0.079686  0.17482  0  4.053837  0
C  C78  1  0.09798278  0.59797672  0.59769582  1  0.037008  0  -0.039484  -0.247377  0  3.948134  0
C  C79  1  0.15237538  0.65149428  0.65252444  1  -0.009434  0  -0.039888  -0.249122  0  3.946477  0
C  C80  1  0.14216075  0.64055393  0.58205508  1  0.446116  0  0.079425  0.174747  0  4.049736  0
C  C81  1  0.10930984  0.60777100  0.66814246  1  0.490528  0  0.079983  0.177205  0  4.050316  0
C  C82  1  0.16749458  0.66845072  0.60905767  1  0.418164  0  0.080059  0.176868  0  4.047365  0
C  C83  1  0.08102576  0.58284252  0.64112984  1  0.402742  0  0.078889  0.174705  0  4.047608  0
C  C84  1  0.30507505  0.45497944  0.40052102  1  0.009993  0  -0.022088  0.063384  0  3.992217  0
C  C85  1  0.44420953  0.29579364  0.34973913  1  -0.019086  0  -0.022113  0.063507  0  3.99177  0
C  C86  1  0.25794609  0.41746710  0.41407966  1  -0.144971  0  -0.028269  -0.16947  0  3.93555  0
C  C87  1  0.49131344  0.33333574  0.33616828  1  -0.110381  0  -0.027675  -0.168999  0  3.933734  0
C  C88  1  0.37626407  0.34015902  0.37311279  1  -0.096523  0  -0.029142  -0.060124  0  4.097471  0
C  C89  1  0.37289358  0.41081230  0.37699410  1  -0.134625  0  -0.02831  -0.05947  0  4.097668  0
C  C90  1  0.72571088  0.57619688  0.63002120  1  0.027944  0  -0.021713  0.065436  0  3.990523  0
C  C91  1  0.52472386  0.67420976  0.61975122  1  0.019419  0  -0.021884  0.063623  0  3.99078  0
C  C92  1  0.74350123  0.58460293  0.58758014  1  -0.129461  0  -0.028735  -0.170091  0  3.936859  0
C  C93  1  0.50700604  0.66571197  0.66220146  1  -0.122121  0  -0.027575  -0.167871  0  3.934582  0
C  C94  1  0.60442009  0.64117289  0.60799061  1  -0.135964  0  -0.028663  -0.05965  0  4.095677  0
C  C95  1  0.64599501  0.60839708  0.64179488  1  -0.16751  0  -0.028333  -0.060699  0  4.096423  0
C  C96  1  0.07632810  0.22453435  0.62990461  1  -0.060686  0  -0.021796  0.063799  0  3.993556  0
C  C97  1  0.17300254  0.02447954  0.62033657  1  0.03726  0  -0.021871  0.06451  0  3.990121  0
C  C98  1  0.08564669  0.24242401  0.58744329  1  -0.060378  0  -0.027329  -0.16825  0  3.933409  0
C  C99  1  0.16370282  0.00658988  0.66278804  1  -0.102604  0  -0.028736  -0.169985  0  3.938121  0
C  C100  1  0.14152102  0.10388561  0.60829947  1  -0.180269  0  -0.028179  -0.060091  0  4.096945  0
C  C101  1  0.10849548  0.14512675  0.64190225  1  -0.098795  0  -0.028616  -0.059221  0  4.097191  0
C  C102  1  0.84242384  0.80181783  0.39663424  1  -0.01549  0  -0.021749  0.063502  0  3.994444  0
C  C103  1  0.90709537  0.94819363  0.35288244  1  0.051628  0  -0.02213  0.063446  0  3.989429  0
C  C104  1  0.91037660  0.75813384  0.41348357  1  -0.117074  0  -0.027721  -0.168953  0  3.933922  0
C  C105  1  0.83899654  0.99198579  0.33617044  1  -0.15707  0  -0.028041  -0.168746  0  3.934429  0
C  C106  1  0.90868457  0.87863520  0.37471810  1  -0.157194  0  -0.028751  -0.060258  0  4.095261  0
C  C107  1  0.84140893  0.87085521  0.37432688  1  -0.099171  0  -0.028573  -0.059496  0  4.096593  0
C  C108  1  0.65279235  0.15135521  0.15244048  1  -0.010895  0  -0.039939  -0.248701  0  3.945645  0
C  C109  1  0.59742385  0.09792722  0.09792596  1  -0.023392  0  -0.039981  -0.249172  0  3.945264  0
C  C110  1  0.66748905  0.16819693  0.10895020  1  0.404234  0  0.079269  0.175879  0  4.047302  0
C  C111  1  0.58114383  0.08267213  0.14140690  1  0.447609  0  0.079015  0.174732  0  4.050323  0
C  C112  1  0.64186894  0.14023661  0.08209940  1  0.459261  0  0.079998  0.175574  0  4.047124  0
C  C113  1  0.60992560  0.10746223  0.16825632  1  0.487657  0  0.079102  0.175057  0  4.05015  0
C  C114  1  0.67384018  0.52460697  0.11987073  1  0.028857  0  -0.022091  0.06409  0  3.990472  0
C  C115  1  0.57616662  0.72439078  0.13016013  1  -0.050256  0  -0.02245  0.062362  0  3.994776  0
C  C116  1  0.66525030  0.50612073  0.16229850  1  -0.120783  0  -0.028882  -0.170837  0  3.934226  0
C  C117  1  0.58495573  0.74288280  0.08773728  1  -0.068373  0  -0.027523  -0.168587  0  3.932559  0
C  C118  1  0.60871008  0.64487655  0.14188282  1  -0.100965  0  -0.028025  -0.057982  0  4.095886  0
C  C119  1  0.64158581  0.60410422  0.10810318  1  -0.173422  0  -0.028777  -0.060635  0  4.096629  0
C  C120  1  0.08266668  0.12314023  0.17747043  1  -0.079236  0  -0.022209  0.063007  0  3.992488  0
C  C121  1  0.16803347  0.12607968  0.07184081  1  -0.076788  0  -0.021598  0.06403  0  3.990197  0
C  C122  1  0.01017052  0.16245358  0.16512285  1  -0.080042  0  -0.026813  -0.166501  0  3.931572  0
C  C123  1  0.24051996  0.08692333  0.08419585  1  -0.022542  0  -0.02816  -0.168254  0  3.935589  0
C  C124  1  0.11043184  0.13969155  0.10580421  1  -0.150487  0  -0.028898  -0.060277  0  4.097358  0
C  C125  1  0.14021252  0.11024174  0.14350677  1  -0.1639  0  -0.028564  -0.059073  0  4.098221  0
C  C126  1  0.34769702  0.84829035  0.84745885  1  0.005637  0  -0.039727  -0.248237  0  3.947301  0
C  C127  1  0.40337881  0.90140223  0.90194118  1  -0.000706  0  -0.039602  -0.247953  0  3.947032  0
C  C128  1  0.30314640  0.92102965  0.86106889  1  0.455168  0  0.079757  0.175334  0  4.051841  0
C  C129  1  0.44838251  0.82916241  0.88787195  1  0.437155  0  0.079126  0.174045  0  4.052809  0
C  C130  1  0.32974312  0.94643866  0.88870046  1  0.456274  0  0.078607  0.17413  0  4.046836  0
C  C131  1  0.42020309  0.80218198  0.86182138  1  0.436187  0  0.07902  0.173926  0  4.048861  0
C  C132  1  0.40857759  0.44840073  0.85291239  1  -0.040198  0  -0.022124  0.063332  0  3.995057  0
C  C133  1  0.34321654  0.30261262  0.89692433  1  -0.082006  0  -0.021842  0.063236  0  3.991531  0
C  C134  1  0.34078714  0.49209588  0.83591369  1  -0.100472  0  -0.02828  -0.168616  0  3.937434  0
C  C135  1  0.41122778  0.25878836  0.91370817  1  -0.081844  0  -0.027136  -0.166283  0  3.934227  0
C  C136  1  0.34233740  0.37160106  0.87460442  1  -0.085175  0  -0.028488  -0.058806  0  4.094857  0
C  C137  1  0.40969044  0.37920052  0.87500120  1  -0.111669  0  -0.028661  -0.060018  0  4.097296  0
C  C138  1  0.94415653  0.79550245  0.84979135  1  -0.020012  0  -0.022422  0.062944  0  3.992086  0
C  C139  1  0.80504962  0.95484976  0.90047941  1  0.0098  0  -0.02188  0.063455  0  3.992268  0
C  C140  1  0.99127682  0.83301235  0.83617966  1  -0.110816  0  -0.027432  -0.168542  0  3.932959  0
C  C141  1  0.75793393  0.91732506  0.91409255  1  -0.145422  0  -0.028412  -0.169591  0  3.935107  0
C  C142  1  0.87283871  0.91063229  0.87695192  1  -0.132998  0  -0.028714  -0.060186  0  4.097943  0
C  C143  1  0.87619516  0.83994459  0.87313065  1  -0.098951  0  -0.028541  -0.058492  0  4.09553  0
S  S144  1  0.29670368  0.32795989  0.39793667  1  0.300227  0  0.091254  0.152254  0  2.781884  0
S  S145  1  0.45229898  0.42313508  0.35199422  1  0.298083  0  0.093489  0.155269  0  2.779232  0
S  S146  1  0.66254467  0.63186738  0.56202094  1  0.304716  0  0.091947  0.153193  0  2.782025  0
S  S147  1  0.58787388  0.61733743  0.68776285  1  0.312352  0  0.094333  0.156615  0  2.78161  0
S  S148  1  0.13380047  0.16198953  0.56221083  1  0.306794  0  0.094199  0.156349  0  2.77809  0
S  S149  1  0.11652309  0.08707845  0.68801991  1  0.289873  0  0.091565  0.152701  0  2.780364  0
S  S150  1  0.97317090  0.80154151  0.40198557  1  0.301537  0  0.093662  0.155841  0  2.779966  0
S  S151  1  0.77693063  0.94781244  0.34703638  1  0.292726  0  0.091749  0.152972  0  2.783975  0
S  S152  1  0.61760528  0.58625046  0.18782409  1  0.28932  0  0.090865  0.151915  0  2.782494  0
S  S153  1  0.63312980  0.66280220  0.06218006  1  0.304103  0  0.093375  0.155032  0  2.778752  0
S  S154  1  0.01245972  0.18353578  0.11187108  1  0.364247  0  0.09387  0.155324  0  2.78009  0
S  S155  1  0.23821710  0.06687666  0.13746139  1  0.331575  0  0.091707  0.1524  0  2.782374  0
S  S156  1  0.27823935  0.44843587  0.84702270  1  0.314701  0  0.090663  0.151578  0  2.784892  0
S  S157  1  0.47407000  0.30210303  0.90230544  1  0.30669  0  0.094088  0.155296  0  2.781032  0
S  S158  1  0.95227983  0.92287372  0.85193281  1  0.302246  0  0.093393  0.155  0  2.779366  0
S  S159  1  0.79664732  0.82779209  0.89800333  1  0.299364  0  0.091041  0.151715  0  2.782072  0
Br  Br160  1  0.28628178  0.55224459  0.41009086  1  0.003985  0  0.045116  -0.009847  0  1.390971  0
Br  Br161  1  0.46252244  0.19898420  0.33975361  1  0.009573  0  0.047109  -0.007482  0  1.393497  0
Br  Br162  1  0.79418055  0.52832744  0.66943772  1  0.007431  0  0.044751  -0.010935  0  1.4005  0
Br  Br163  1  0.45622029  0.72221298  0.58039014  1  0.00735  0  0.046315  -0.008807  0  1.404813  0
Br  Br164  1  0.02846843  0.29234492  0.66908243  1  0.00872  0  0.046187  -0.009087  0  1.407812  0
Br  Br165  1  0.22114709  0.95649805  0.58119401  1  -0.000135  0  0.044329  -0.011367  0  1.401953  0
Br  Br166  1  0.75920237  0.77761568  0.40097758  1  0.010439  0  0.047371  -0.007032  0  1.39381  0
Br  Br167  1  0.99038025  0.97250255  0.34833086  1  0.005193  0  0.043839  -0.011522  0  1.400127  0
Br  Br168  1  0.72188955  0.45709824  0.08049089  1  0.000911  0  0.045252  -0.009636  0  1.389719  0
Br  Br169  1  0.52866512  0.79174959  0.16958336  1  0.006327  0  0.047006  -0.007377  0  1.395017  0
Br  Br170  1  0.10737982  0.08892521  0.23141320  1  0.013411  0  0.046043  -0.009138  0  1.406478  0
Br  Br171  1  0.14338472  0.16019866  0.01785940  1  0.007637  0  0.044336  -0.011101  0  1.401567  0
Br  Br172  1  0.49190084  0.47252529  0.84861690  1  0.004624  0  0.045888  -0.008889  0  1.390163  0
Br  Br173  1  0.25979616  0.27862426  0.90141803  1  0.008734  0  0.045665  -0.009677  0  1.405349  0
Br  Br174  1  0.96255468  0.69859133  0.83993669  1  0.007817  0  0.046865  -0.007821  0  1.393906  0
Br  Br175  1  0.78624535  0.05212961  0.91000447  1  0.004249  0  0.045367  -0.009427  0  1.391441  0
N  N176  1  0.77973476  0.51885808  0.40009031  1  -1.246656  0  -0.61283  -0.620484  0  3.339844  0
N  N177  1  0.96829374  0.23156319  0.35104112  1  -1.204579  0  -0.613705  -0.622458  0  3.344277  0
N  N178  1  0.73064600  0.47152377  0.34972228  1  -1.187196  0  -0.612665  -0.619882  0  3.336577  0
N  N179  1  0.01919980  0.28088250  0.39942444  1  -1.229042  0  -0.612277  -0.617573  0  3.336218  0
N  N180  1  0.16145536  0.65969401  0.54046089  1  -1.233195  0  -0.612807  -0.618688  0  3.338863  0
N  N181  1  0.08984171  0.58883112  0.70971033  1  -1.232682  0  -0.612416  -0.618413  0  3.341343  0
N  N182  1  0.20900173  0.71002929  0.59005873  1  -1.229932  0  -0.613028  -0.620792  0  3.344142  0
N  N183  1  0.03883560  0.54189653  0.66012901  1  -1.222912  0  -0.613022  -0.621365  0  3.344688  0
N  N184  1  0.70887246  0.20983239  0.08981067  1  -1.211886  0  -0.613123  -0.619584  0  3.33966  0
N  N185  1  0.53934932  0.04143074  0.16053177  1  -1.233005  0  -0.612867  -0.619079  0  3.340006  0
N  N186  1  0.66097026  0.15932708  0.04048701  1  -1.22876  0  -0.613298  -0.620784  0  3.339201  0
N  N187  1  0.59105844  0.08814513  0.20986950  1  -1.228058  0  -0.612571  -0.62082  0  3.341283  0
N  N188  1  0.23125961  0.97035285  0.84990126  1  -1.244196  0  -0.612395  -0.61891  0  3.335427  0
N  N189  1  0.52004639  0.77967896  0.89927819  1  -1.221979  0  -0.612608  -0.617617  0  3.336333  0
N  N190  1  0.28039703  0.01760945  0.90020416  1  -1.24157  0  -0.613222  -0.621449  0  3.343357  0
N  N191  1  0.46884811  0.73042222  0.85092922  1  -1.231925  0  -0.613154  -0.620991  0  3.33913  0
O  O192  1  0.00065276  0.49945852  0.49964423  1  -1.239229  0  -0.572838  -1.024217  0  2.544683  0
O  O193  1  0.08041723  0.31566371  0.52313789  1  -1.167363  0  -0.319048  -0.544343  0  2.317462  0
O  O194  1  0.03802793  0.52496907  0.58475074  1  -1.175222  0  -0.316561  -0.549329  0  2.384106  0
O  O195  1  0.15607081  0.50515720  0.45250613  1  -1.173732  0  -0.31588  -0.542606  0  2.379533  0
O  O196  1  0.02352004  0.37525227  0.58036840  1  -1.165639  0  -0.314857  -0.53804  0  2.385813  0
O  O197  1  0.15212730  0.39476053  0.44523502  1  -1.172963  0  -0.32061  -0.546815  0  2.321909  0
O  O198  1  0.07924990  0.59148174  0.53064663  1  -1.186249  0  -0.315998  -0.551271  0  2.372309  0
O  O199  1  0.00345555  0.65688104  0.44878676  1  -1.170199  0  -0.319251  -0.542857  0  2.327877  0
O  O200  1  0.88973904  0.49672259  0.44088380  1  -1.184325  0  -0.317491  -0.552904  0  2.383365  0
O  O201  1  0.88958402  0.65251631  0.44865722  1  -1.157225  0  -0.31431  -0.539408  0  2.375181  0
O  O202  1  0.99529059  0.38603382  0.44379014  1  -1.179403  0  -0.316492  -0.554077  0  2.371983  0
O  O203  1  0.87718537  0.53140808  0.58059820  1  -1.170346  0  -0.31507  -0.540197  0  2.379031  0
O  O204  1  0.81591497  0.57123818  0.52330305  1  -1.163232  0  -0.320536  -0.545797  0  2.323607  0
O  O205  1  0.74915253  0.25087553  0.25004844  1  -1.234099  0  -0.572562  -1.024624  0  2.543354  0
O  O206  1  0.59462601  0.35821417  0.30230147  1  -1.169838  0  -0.319234  -0.543762  0  2.321977  0
O  O207  1  0.66202372  0.16756622  0.21941633  1  -1.186047  0  -0.316255  -0.551046  0  2.377711  0
O  O208  1  0.72153665  0.37290249  0.16932955  1  -1.175048  0  -0.315999  -0.542668  0  2.377047  0
O  O209  1  0.59656794  0.24242566  0.30120188  1  -1.162335  0  -0.314827  -0.539599  0  2.378103  0
O  O210  1  0.67581010  0.43329396  0.22668130  1  -1.166847  0  -0.320644  -0.54746  0  2.321742  0
O  O211  1  0.72487236  0.21292288  0.16516372  1  -1.167362  0  -0.316425  -0.551685  0  2.378216  0
O  O212  1  0.87754844  0.22466579  0.16926332  1  -1.167414  0  -0.318442  -0.542099  0  2.322435  0
O  O213  1  0.86321026  0.25891766  0.30535346  1  -1.183382  0  -0.316911  -0.549078  0  2.38645  0
O  O214  1  0.93276233  0.17089755  0.22845384  1  -1.149363  0  -0.314137  -0.537339  0  2.380058  0
O  O215  1  0.75025609  0.36159591  0.30983240  1  -1.180317  0  -0.316057  -0.553172  0  2.369547  0
O  O216  1  0.74889275  0.09050795  0.29775509  1  -1.169758  0  -0.320223  -0.545884  0  2.323223  0
O  O217  1  0.85463524  0.10284427  0.30665898  1  -1.180746  0  -0.315086  -0.540993  0  2.379924  0
O  O218  1  0.24940877  0.75048564  0.75052863  1  -1.243745  0  -0.572876  -1.024704  0  2.545406  0
O  O219  1  0.37343738  0.72821657  0.66926037  1  -1.165329  0  -0.313532  -0.536909  0  2.382648  0
O  O220  1  0.36416671  0.75842848  0.80476215  1  -1.173973  0  -0.317138  -0.551914  0  2.381615  0
O  O221  1  0.17486047  0.93371382  0.72725295  1  -1.177042  0  -0.320402  -0.547178  0  2.3184  0
O  O222  1  0.43461274  0.67250290  0.72647107  1  -1.156355  0  -0.319346  -0.543101  0  2.324582  0
O  O223  1  0.21680895  0.87375114  0.66982780  1  -1.160345  0  -0.31533  -0.539578  0  2.383226  0
O  O224  1  0.25114322  0.86106572  0.80959107  1  -1.180854  0  -0.316838  -0.553814  0  2.371778  0
O  O225  1  0.09468798  0.85780489  0.80252005  1  -1.167983  0  -0.319564  -0.544028  0  2.322938  0
O  O226  1  0.16171742  0.66713684  0.71969815  1  -1.171509  0  -0.31647  -0.552592  0  2.374205  0
O  O227  1  0.09656616  0.74212610  0.80116400  1  -1.167689  0  -0.314632  -0.540351  0  2.3784  0
O  O228  1  0.22397555  0.71306383  0.66543835  1  -1.178767  0  -0.316297  -0.548772  0  2.387662  0
O  O229  1  0.35804665  0.60147796  0.80454149  1  -1.16248  0  -0.31481  -0.540781  0  2.375072  0
O  O230  1  0.25027875  0.59054620  0.79784279  1  -1.173738  0  -0.320742  -0.545904  0  2.328181  0
O  O231  1  0.50098519  0.99912465  0.99993009  1  -1.23421  0  -0.572744  -1.024599  0  2.545301  0
O  O232  1  0.50423340  0.15703051  0.94894041  1  -1.172137  0  -0.318915  -0.542398  0  2.327737  0
O  O233  1  0.39269366  0.99719278  0.93862239  1  -1.177618  0  -0.317031  -0.54874  0  2.386306  0
O  O234  1  0.65213320  0.89464676  0.94532651  1  -1.176465  0  -0.320653  -0.54738  0  2.322299  0
O  O235  1  0.39084014  0.15251450  0.94778960  1  -1.167043  0  -0.313722  -0.536202  0  2.383831  0
O  O236  1  0.65611266  0.00507368  0.95251424  1  -1.173388  0  -0.31586  -0.542374  0  2.379673  0
O  O237  1  0.49588413  0.88480466  0.94393857  1  -1.181028  0  -0.31614  -0.553952  0  2.369865  0
O  O238  1  0.57955927  0.81608907  0.02353716  1  -1.15879  0  -0.319589  -0.54409  0  2.320783  0
O  O239  1  0.53377243  0.02788376  0.08516443  1  -1.168821  0  -0.31674  -0.552605  0  2.377259  0
O  O240  1  0.52241082  0.87597302  0.08067153  1  -1.167601  0  -0.314107  -0.539303  0  2.375873  0
O  O241  1  0.57931456  0.09065383  0.03095722  1  -1.182537  0  -0.316655  -0.551322  0  2.377942  0
O  O242  1  0.31781994  0.06937825  0.02088996  1  -1.175284  0  -0.314968  -0.53915  0  2.378961  0
O  O243  1  0.37321475  0.03137513  0.08015236  1  -1.178447  0  -0.320391  -0.546138  0  2.323136  0
