# generated using pymatgen
data_CdH14C12N5O3
_symmetry_space_group_name_H-M   'P 1'
_cell_length_a   9.76101406
_cell_length_b   11.15268060
_cell_length_c   18.96172210
_cell_angle_alpha   105.24782945
_cell_angle_beta   104.92430618
_cell_angle_gamma   89.98946418
_symmetry_Int_Tables_number   1
_chemical_formula_structural   CdH14C12N5O3
_chemical_formula_sum   'Cd4 H56 C48 N20 O12'
_cell_volume   1919.29672087
_cell_formula_units_Z   4
loop_
 _symmetry_equiv_pos_site_id
 _symmetry_equiv_pos_as_xyz
  1  'x, y, z'
loop_
 _atom_site_type_symbol
 _atom_site_label
 _atom_site_symmetry_multiplicity
 _atom_site_fract_x
 _atom_site_fract_y
 _atom_site_fract_z
 _atom_site_occupancy
 _atom_site_pbe_bader_charge
 _atom_site_pbe_bader_spin_density
 _atom_site_pbe_cm5_charge
 _atom_site_pbe_ddec_charge
 _atom_site_pbe_ddec_spin_density
 _atom_site_pbe_ddec_sum_bond_order
 _atom_site_pbe_magmom
Cd  Cd0  1  0.45469790  0.62843423  0.57759091  1  1.240972  0  0.786201  0.81509  0  2.283787  0
Cd  Cd1  1  0.87706882  0.87150869  0.42246483  1  1.237338  0  0.786332  0.815566  0  2.282418  0
Cd  Cd2  1  0.54530079  0.37156463  0.42240667  1  1.240877  0  0.786192  0.81513  0  2.283756  0
Cd  Cd3  1  0.12293053  0.12849294  0.57753681  1  1.237473  0  0.786334  0.81557  0  2.282335  0
H  H4  1  0.64682432  0.08504819  0.94096717  1  0.041624  0  0.096679  0.091729  0  1.028365  0
H  H5  1  0.70638266  0.41517024  0.05892961  1  0.045565  0  0.096905  0.092136  0  1.027287  0
H  H6  1  0.35316834  0.91494601  0.05902929  1  0.041464  0  0.09667  0.091789  0  1.028325  0
H  H7  1  0.29363075  0.58483140  0.94107228  1  0.04594  0  0.096926  0.092198  0  1.027216  0
H  H8  1  0.61985660  0.96976640  0.80789390  1  0.06961  0  0.102375  0.102913  0  1.010221  0
H  H9  1  0.81235992  0.53039119  0.19203940  1  0.111744  0  0.102489  0.103206  0  1.009939  0
H  H10  1  0.38013567  0.03022779  0.19210323  1  0.069616  0  0.102362  0.10288  0  1.010155  0
H  H11  1  0.18764921  0.46961417  0.80796383  1  0.111832  0  0.102497  0.103268  0  1.009886  0
H  H12  1  0.30582208  0.71372777  0.82050254  1  0.098694  0  0.100081  0.098992  0  1.024064  0
H  H13  1  0.48524625  0.78614572  0.17947708  1  0.067441  0  0.100167  0.098761  0  1.024503  0
H  H14  1  0.69416958  0.28627015  0.17949536  1  0.098764  0  0.100104  0.098979  0  1.02404  0
H  H15  1  0.51475701  0.21385127  0.82052068  1  0.067417  0  0.100187  0.098802  0  1.024458  0
H  H16  1  0.33067018  0.82661018  0.95406248  1  0.028394  0  0.094735  0.087396  0  1.038124  0
H  H17  1  0.37661320  0.67327374  0.04589174  1  0.04916  0  0.095318  0.088131  0  1.038262  0
H  H18  1  0.66932224  0.17338588  0.04593497  1  0.028259  0  0.09471  0.087412  0  1.038182  0
H  H19  1  0.62339905  0.32672885  0.95410381  1  0.049436  0  0.095309  0.088156  0  1.038241  0
H  H20  1  0.51147186  0.36017262  0.63317086  1  0.088872  0  0.119833  0.047179  0  1.012449  0
H  H21  1  0.87806189  0.14009320  0.36685102  1  0.084578  0  0.120026  0.046945  0  1.01199  0
H  H22  1  0.48852489  0.63982901  0.36683240  1  0.088927  0  0.119857  0.047207  0  1.01238  0
H  H23  1  0.12193966  0.85990470  0.63315143  1  0.08461  0  0.120004  0.046893  0  1.011926  0
H  H24  1  0.33887082  0.14789464  0.45623647  1  0.122096  0  0.130808  0.099089  0  0.999064  0
H  H25  1  0.88222919  0.35217061  0.54386451  1  0.155594  0  0.131039  0.099953  0  0.998469  0
H  H26  1  0.66113295  0.85210327  0.54376503  1  0.122136  0  0.130783  0.099203  0  0.998962  0
H  H27  1  0.11776671  0.64783195  0.45613905  1  0.155719  0  0.130983  0.099853  0  0.998441  0
H  H28  1  0.21058328  0.54486762  0.63153997  1  0.470669  0  0.292945  0.311607  0  1.000679  0
H  H29  1  0.57907800  0.95510042  0.36837068  1  0.471875  0  0.291489  0.310611  0  1.002002  0
H  H30  1  0.78941892  0.45513216  0.36845906  1  0.470665  0  0.29295  0.311643  0  1.000653  0
H  H31  1  0.42092442  0.04490029  0.63162971  1  0.471903  0  0.291487  0.310605  0  1.001999  0
H  H32  1  0.14297317  0.41047899  0.63876926  1  0.482601  0  0.291194  0.303853  0  1.005425  0
H  H33  1  0.50414949  0.08948966  0.36114930  1  0.482356  0  0.290263  0.30336  0  1.005536  0
H  H34  1  0.85703008  0.58952079  0.36123083  1  0.482762  0  0.291213  0.303825  0  1.005425  0
H  H35  1  0.49585140  0.91051012  0.63885054  1  0.482306  0  0.290268  0.303382  0  1.005505  0
H  H36  1  0.87743239  0.48166087  0.69035698  1  0.078793  0  0.106133  0.120169  0  1.026114  0
H  H37  1  0.18686302  0.01823697  0.30972276  1  0.07583  0  0.106442  0.120184  0  1.026647  0
H  H38  1  0.12257011  0.51834077  0.30964356  1  0.078828  0  0.106145  0.120189  0  1.026076  0
H  H39  1  0.81313772  0.98176560  0.69027822  1  0.075849  0  0.106448  0.120185  0  1.026668  0
H  H40  1  0.94159459  0.33858925  0.70790539  1  0.116744  0  0.106808  0.136346  0  1.029123  0
H  H41  1  0.23362479  0.16123490  0.29217071  1  0.116468  0  0.107205  0.136467  0  1.028061  0
H  H42  1  0.05840423  0.66141238  0.29209572  1  0.116699  0  0.106823  0.136357  0  1.029128  0
H  H43  1  0.76637358  0.83876768  0.70783003  1  0.116676  0  0.107214  0.136452  0  1.028122  0
H  H44  1  0.88751711  0.45244467  0.77960983  1  0.052698  0  0.100616  0.10934  0  0.981361  0
H  H45  1  0.10765596  0.04753236  0.22048917  1  0.045868  0  0.100774  0.108922  0  0.981024  0
H  H46  1  0.11248309  0.54755790  0.22039063  1  0.052726  0  0.100611  0.109359  0  0.981396  0
H  H47  1  0.89234279  0.95246834  0.77951179  1  0.045827  0  0.100769  0.108934  0  0.981  0
H  H48  1  0.58044875  0.20319597  0.67703315  1  0.093272  0  0.107514  0.125526  0  1.03915  0
H  H49  1  0.90365771  0.29717959  0.32309512  1  0.088319  0  0.106813  0.124999  0  1.040307  0
H  H50  1  0.41955297  0.79680566  0.32296873  1  0.093241  0  0.107508  0.125539  0  1.039158  0
H  H51  1  0.09633865  0.70281925  0.67690647  1  0.088409  0  0.106751  0.124979  0  1.040323  0
H  H52  1  0.74038846  0.22191332  0.75113391  1  0.04822  0  0.103237  0.114987  0  0.978715  0
H  H53  1  0.98946108  0.27823219  0.24897219  1  0.043791  0  0.102659  0.114387  0  0.979588  0
H  H54  1  0.25961480  0.77809112  0.24886763  1  0.048256  0  0.103222  0.114983  0  0.978742  0
H  H55  1  0.01053499  0.72176945  0.75102934  1  0.043728  0  0.102652  0.114375  0  0.979605  0
H  H56  1  0.74540967  0.15947223  0.65492014  1  0.081074  0  0.104101  0.124806  0  0.994186  0
H  H57  1  0.09077201  0.34056591  0.34517811  1  0.065591  0  0.104494  0.12533  0  0.993539  0
H  H58  1  0.25459412  0.84053220  0.34508192  1  0.081061  0  0.104101  0.12481  0  0.994188  0
H  H59  1  0.90922451  0.65943479  0.65482380  1  0.065562  0  0.104454  0.125295  0  0.993544  0
C  C60  1  0.49132657  0.96602656  0.95962774  1  0.079618  0  -0.002669  0.073381  0  3.973357  0
C  C61  1  0.53183648  0.53396456  0.04035576  1  -0.011274  0  -0.002754  0.075088  0  3.97104  0
C  C62  1  0.50866577  0.03396857  0.04036955  1  0.038719  0  -0.002709  0.073523  0  3.973286  0
C  C63  1  0.46817732  0.46603429  0.95964314  1  0.03164  0  -0.002811  0.075012  0  3.971067  0
C  C64  1  0.44703030  0.76253829  0.72504032  1  1.546649  0  0.198191  0.568281  0  4.214194  0
C  C65  1  0.72191619  0.73740749  0.27495471  1  1.5514  0  0.198765  0.569964  0  4.211494  0
C  C66  1  0.55296015  0.23745964  0.27495533  1  1.547043  0  0.198218  0.56824  0  4.21418  0
C  C67  1  0.27808585  0.26259508  0.72504546  1  1.551654  0  0.198756  0.570008  0  4.21148  0
C  C68  1  0.46043286  0.83447999  0.80531793  1  0.010204  0  -0.018263  -0.029548  0  3.976736  0
C  C69  1  0.65522102  0.66547604  0.19464811  1  -0.078462  0  -0.017964  -0.029022  0  3.975477  0
C  C70  1  0.53956087  0.16551607  0.19467870  1  0.009989  0  -0.018222  -0.029542  0  3.976768  0
C  C71  1  0.34478353  0.33452653  0.80535350  1  -0.078126  0  -0.01803  -0.029166  0  3.975676  0
C  C72  1  0.57099698  0.00389880  0.91585972  1  -0.010488  0  -0.092354  -0.130988  0  3.985752  0
C  C73  1  0.65548184  0.49619198  0.08405889  1  -0.028085  0  -0.092194  -0.132344  0  3.984177  0
C  C74  1  0.42899546  0.99609447  0.08413539  1  -0.010427  0  -0.092324  -0.131189  0  3.985777  0
C  C75  1  0.34453035  0.50380780  0.91594165  1  -0.028527  0  -0.092144  -0.132296  0  3.984192  0
C  C76  1  0.55638535  0.93955712  0.84053259  1  -0.058016  0  -0.084126  -0.088527  0  3.993755  0
C  C77  1  0.71615004  0.56052271  0.15939777  1  -0.07397  0  -0.085189  -0.08976  0  3.994025  0
C  C78  1  0.44361013  0.06043801  0.15946361  1  -0.058281  0  -0.08412  -0.088381  0  3.993651  0
C  C79  1  0.28385604  0.43948079  0.84060438  1  -0.074217  0  -0.085205  -0.089851  0  3.994071  0
C  C80  1  0.37938289  0.79619885  0.84766571  1  -0.125011  0  -0.084415  -0.085664  0  3.99034  0
C  C81  1  0.53174166  0.70373180  0.15231401  1  0.03436  0  -0.084811  -0.086498  0  3.991993  0
C  C82  1  0.62060878  0.20379629  0.15232986  1  -0.124974  0  -0.084454  -0.085713  0  3.990446  0
C  C83  1  0.46826360  0.29626706  0.84768377  1  0.034085  0  -0.084844  -0.086544  0  3.991995  0
C  C84  1  0.39486098  0.86041756  0.92310307  1  -0.055773  0  -0.092811  -0.131834  0  3.982927  0
C  C85  1  0.47181777  0.63952728  0.07687765  1  -0.078358  0  -0.093306  -0.132874  0  3.984866  0
C  C86  1  0.60513297  0.13957477  0.07689346  1  -0.056001  0  -0.092786  -0.131837  0  3.983099  0
C  C87  1  0.52819139  0.36047437  0.92312003  1  -0.078688  0  -0.093258  -0.132792  0  3.984714  0
C  C88  1  0.61636421  0.41308074  0.65421292  1  1.381029  0  0.169022  0.297268  0  4.107866  0
C  C89  1  0.96196414  0.08713562  0.34589308  1  1.379614  0  0.169189  0.299156  0  4.106709  0
C  C90  1  0.38363088  0.58692649  0.34578917  1  1.381062  0  0.169037  0.297285  0  4.107431  0
C  C91  1  0.03803546  0.91287068  0.65410814  1  1.379507  0  0.169133  0.299186  0  4.106528  0
C  C92  1  0.23613126  0.39177811  0.55497539  1  1.441949  0  0.311353  0.518726  0  4.114497  0
C  C93  1  0.68105478  0.10821594  0.44498272  1  1.505293  0  0.309509  0.515884  0  4.116336  0
C  C94  1  0.76387131  0.60821980  0.44502386  1  1.441946  0  0.31138  0.518768  0  4.114539  0
C  C95  1  0.31894397  0.89178477  0.55501824  1  1.505322  0  0.309518  0.51591  0  4.116198  0
C  C96  1  0.31654080  0.24086290  0.48482852  1  1.009123  0  0.132249  0.150922  0  4.034029  0
C  C97  1  0.83142441  0.25918317  0.51524201  1  0.96321  0  0.131384  0.149901  0  4.035383  0
C  C98  1  0.68346336  0.75913501  0.51517231  1  1.008769  0  0.132168  0.150618  0  4.034189  0
C  C99  1  0.16857196  0.74082032  0.48476104  1  0.96313  0  0.131445  0.150013  0  4.035143  0
C  C100  1  0.86553254  0.40914640  0.71809747  1  0.213448  0  -0.137481  -0.283351  0  3.908526  0
C  C101  1  0.14729405  0.09079772  0.28200556  1  0.234289  0  -0.137122  -0.28051  0  3.90711  0
C  C102  1  0.13446622  0.59085617  0.28190260  1  0.213432  0  -0.137481  -0.283373  0  3.908546  0
C  C103  1  0.85270393  0.90920485  0.71799585  1  0.234  0  -0.13717  -0.280512  0  3.907164  0
C  C104  1  0.69518749  0.22682367  0.69255505  1  0.253166  0  -0.130818  -0.277796  0  3.907032  0
C  C105  1  0.00280192  0.27334502  0.30754604  1  0.278357  0  -0.129542  -0.275876  0  3.907396  0
C  C106  1  0.30481469  0.77317890  0.30744632  1  0.253139  0  -0.130771  -0.277777  0  3.906976  0
C  C107  1  0.99719444  0.72665382  0.69245556  1  0.278326  0  -0.129465  -0.275809  0  3.907429  0
N  N108  1  0.32577585  0.44286653  0.52585207  1  -0.793737  0  -0.291093  -0.346336  0  3.388811  0
N  N109  1  0.79987847  0.05716831  0.47413792  1  -0.768344  0  -0.290948  -0.3463  0  3.387848  0
N  N110  1  0.67422733  0.55713232  0.47414786  1  -0.793743  0  -0.291089  -0.346357  0  3.388903  0
N  N111  1  0.20012135  0.94283426  0.52586320  1  -0.768348  0  -0.290953  -0.346324  0  3.387705  0
N  N112  1  0.72095182  0.35226141  0.68759307  1  -1.207037  0  -0.28326  0.031345  0  3.723878  0
N  N113  1  0.03329884  0.14785956  0.31253027  1  -1.209697  0  -0.284341  0.027059  0  3.726157  0
N  N114  1  0.27904747  0.64774116  0.31240753  1  -1.207114  0  -0.283277  0.031335  0  3.723778  0
N  N115  1  0.96669952  0.85214114  0.68747135  1  -1.209342  0  -0.284308  0.026948  0  3.726071  0
N  N116  1  0.22656850  0.26497902  0.52989108  1  -1.209964  0  -0.377023  -0.450302  0  3.41422  0
N  N117  1  0.69643945  0.23500327  0.47011082  1  -1.29225  0  -0.375621  -0.449071  0  3.415637  0
N  N118  1  0.77343620  0.73502075  0.47010939  1  -1.209574  0  -0.376924  -0.450158  0  3.414182  0
N  N119  1  0.30355846  0.76499836  0.52989043  1  -1.292225  0  -0.375662  -0.449055  0  3.415659  0
N  N120  1  0.37741741  0.34427608  0.48084014  1  -0.791996  0  -0.279369  -0.226618  0  3.532814  0
N  N121  1  0.89642592  0.15579788  0.51922118  1  -0.800345  0  -0.279317  -0.226364  0  3.531805  0
N  N122  1  0.62258569  0.65572184  0.51915964  1  -0.791962  0  -0.279368  -0.226567  0  3.532944  0
N  N123  1  0.10357053  0.84420655  0.48078202  1  -0.800447  0  -0.2793  -0.226367  0  3.531566  0
N  N124  1  0.16159381  0.45845227  0.60232885  1  -1.257312  0  -0.607094  -0.678893  0  3.239836  0
N  N125  1  0.55922452  0.04149648  0.39758900  1  -1.244208  0  -0.604176  -0.676416  0  3.238126  0
N  N126  1  0.83840884  0.54154658  0.39767056  1  -1.257539  0  -0.607143  -0.678915  0  3.239818  0
N  N127  1  0.44077698  0.95850423  0.60241153  1  -1.244212  0  -0.60416  -0.676445  0  3.238046  0
O  O128  1  0.53737867  0.79052835  0.69219030  1  -1.176534  0  -0.328827  -0.560404  0  2.262807  0
O  O129  1  0.84526770  0.70962671  0.30781728  1  -1.175832  0  -0.327709  -0.559421  0  2.261205  0
O  O130  1  0.46261802  0.20946677  0.30780814  1  -1.176627  0  -0.328863  -0.560411  0  2.262774  0
O  O131  1  0.15473257  0.29037493  0.69218421  1  -1.175838  0  -0.327675  -0.55938  0  2.261226  0
O  O132  1  0.63417552  0.51976911  0.64681758  1  -1.15498  0  -0.313304  -0.461652  0  2.321232  0
O  O133  1  0.98714573  0.98045781  0.35333764  1  -1.156605  0  -0.314148  -0.462769  0  2.320951  0
O  O134  1  0.36581816  0.48022879  0.35318549  1  -1.154894  0  -0.313356  -0.461738  0  2.320862  0
O  O135  1  0.01285819  0.01954009  0.64666505  1  -1.156787  0  -0.314063  -0.462655  0  2.320973  0
O  O136  1  0.34882162  0.67600687  0.69229877  1  -1.188342  0  -0.331366  -0.577318  0  2.213974  0
O  O137  1  0.65617088  0.82371229  0.30768217  1  -1.191594  0  -0.331919  -0.578581  0  2.213416  0
O  O138  1  0.65116511  0.32399387  0.30769553  1  -1.188345  0  -0.331364  -0.577283  0  2.213952  0
O  O139  1  0.34383047  0.17628842  0.69231716  1  -1.191839  0  -0.331887  -0.578574  0  2.213448  0
