# generated using pymatgen
data_AgH16C10S(NO2)3
_symmetry_space_group_name_H-M   'P 1'
_cell_length_a   8.00549058
_cell_length_b   11.56982440
_cell_length_c   16.89137523
_cell_angle_alpha   98.60239913
_cell_angle_beta   90.02361316
_cell_angle_gamma   110.24701016
_symmetry_Int_Tables_number   1
_chemical_formula_structural   AgH16C10S(NO2)3
_chemical_formula_sum   'Ag4 H64 C40 S4 N12 O24'
_cell_volume   1449.03215230
_cell_formula_units_Z   4
loop_
 _symmetry_equiv_pos_site_id
 _symmetry_equiv_pos_as_xyz
  1  'x, y, z'
loop_
 _atom_site_type_symbol
 _atom_site_label
 _atom_site_symmetry_multiplicity
 _atom_site_fract_x
 _atom_site_fract_y
 _atom_site_fract_z
 _atom_site_occupancy
 _atom_site_hle17_bader_spin_density
 _atom_site_hle17_ddec_charge
 _atom_site_hle17_ddec_spin_density
 _atom_site_hle17_ddec_sum_bond_order
 _atom_site_hle17_magmom
 _atom_site_hse06_10hf_bader_spin_density
 _atom_site_hse06_10hf_ddec_charge
 _atom_site_hse06_10hf_ddec_spin_density
 _atom_site_hse06_10hf_ddec_sum_bond_order
 _atom_site_hse06_10hf_magmom
 _atom_site_hse06_bader_spin_density
 _atom_site_hse06_ddec_charge
 _atom_site_hse06_ddec_spin_density
 _atom_site_hse06_ddec_sum_bond_order
 _atom_site_hse06_magmom
 _atom_site_pbe_bader_spin_density
 _atom_site_pbe_cm5_charge
 _atom_site_pbe_ddec_charge
 _atom_site_pbe_ddec_spin_density
 _atom_site_pbe_ddec_sum_bond_order
 _atom_site_pbe_magmom
Ag  Ag0  1  0.29368807  0.07761920  0.26382121  1  0  0.426436  0  1.640498  0  0  0.313041  0  2.115013  0  0  0.335104  0  2.068092  0  0  0.396232  0.297125  0  2.147955  0
Ag  Ag1  1  0.21608090  0.92257652  0.73627375  1  0  0.426604  0  1.640539  0  0  0.312875  0  2.115048  0  0  0.335124  0  2.067949  0  0  0.39605  0.29691  0  2.148008  0
Ag  Ag2  1  0.73072737  0.96376465  0.24372180  1  0  0.424128  0  1.671888  0  0  0.311262  0  2.152385  0  0  0.331885  0  2.106158  0  0  0.402534  0.296422  0  2.18471  0
Ag  Ag3  1  0.76704500  0.03640652  0.75639599  1  0  0.424423  0  1.670816  0  0  0.311571  0  2.151105  0  0  0.332382  0  2.104798  0  0  0.402617  0.296755  0  2.183415  0
H  H4  1  0.36455798  0.77291744  0.22293258  1  0  0.308424  0  0.92686  0  0  0.290912  0  0.991501  0  0  0.29851  0  0.985304  0  0  0.302072  0.285504  0  0.995878  0
H  H5  1  0.59154448  0.22682586  0.77708027  1  0  0.308  0  0.927531  0  0  0.290904  0  0.991879  0  0  0.298575  0  0.985596  0  0  0.301723  0.285484  0  0.996344  0
H  H6  1  0.09481657  0.47867408  0.75874441  1  0  0.389899  0  0.907376  0  0  0.357075  0  0.989544  0  0  0.370383  0  0.974654  0  0  0.298713  0.347763  0  0.999291  0
H  H7  1  0.61604593  0.52150471  0.24139032  1  0  0.389375  0  0.907871  0  0  0.356695  0  0.989715  0  0  0.370018  0  0.975145  0  0  0.298708  0.347384  0  0.999456  0
H  H8  1  0.18664324  0.54627961  0.96481204  1  0  0.112988  0  0.936545  0  0  0.127119  0  0.995094  0  0  0.129319  0  0.994528  0  0  0.102746  0.125436  0  0.995694  0
H  H9  1  0.64029180  0.45377861  0.03539670  1  0  0.11281  0  0.936644  0  0  0.127044  0  0.995329  0  0  0.129208  0  0.994828  0  0  0.10267  0.125451  0  0.995833  0
H  H10  1  0.95691224  0.46021056  0.97283248  1  0  0.118767  0  0.94042  0  0  0.129432  0  1.005218  0  0  0.132077  0  1.00412  0  0  0.105815  0.127503  0  1.006086  0
H  H11  1  0.49642992  0.53963951  0.02725360  1  0  0.118911  0  0.940451  0  0  0.129872  0  1.005119  0  0  0.132605  0  1.003965  0  0  0.105961  0.127878  0  1.006037  0
H  H12  1  0.28182923  0.85685694  0.45981289  1  0  0.318666  0  0.897987  0  0  0.301779  0  0.957187  0  0  0.310237  0  0.949639  0  0  0.312538  0.295709  0  0.962716  0
H  H13  1  0.42473379  0.14328463  0.54018909  1  0  0.319739  0  0.89736  0  0  0.302028  0  0.957411  0  0  0.310461  0  0.94992  0  0  0.312751  0.295966  0  0.962929  0
H  H14  1  0.89412719  0.66291982  0.97954489  1  0  0.068523  0  0.942201  0  0  0.084356  0  1.005789  0  0  0.08546  0  1.006312  0  0  0.088606  0.083515  0  1.005468  0
H  H15  1  0.23116903  0.33668340  0.02041904  1  0  0.068286  0  0.942864  0  0  0.083932  0  1.006638  0  0  0.085024  0  1.007188  0  0  0.088469  0.083056  0  1.006353  0
H  H16  1  0.12578281  0.74473680  0.98307262  1  0  0.070329  0  0.931445  0  0  0.090399  0  0.988238  0  0  0.09114  0  0.988918  0  0  0.089901  0.089761  0  0.98792  0
H  H17  1  0.38129690  0.25511459  0.01692479  1  0  0.070592  0  0.93103  0  0  0.090502  0  0.988001  0  0  0.091289  0  0.98862  0  0  0.090162  0.089871  0  0.98767  0
H  H18  1  0.92356834  0.15283626  0.04780115  1  0  0.321807  0  0.889237  0  0  0.305925  0  0.946684  0  0  0.31368  0  0.940332  0  0  0.315339  0.300409  0  0.951265  0
H  H19  1  0.77089325  0.84725614  0.95202989  1  0  0.321817  0  0.888455  0  0  0.305487  0  0.946769  0  0  0.313183  0  0.940441  0  0  0.315412  0.300014  0  0.951346  0
H  H20  1  0.15387722  0.64287831  0.10593762  1  0  0.071547  0  0.939862  0  0  0.087025  0  1.005274  0  0  0.088666  0  1.004528  0  0  0.087292  0.08573  0  1.005965  0
H  H21  1  0.51110223  0.35718654  0.89415832  1  0  0.070992  0  0.94  0  0  0.086444  0  1.005384  0  0  0.088116  0  1.004626  0  0  0.087111  0.085165  0  1.006041  0
H  H22  1  0.91835797  0.58561832  0.10496356  1  0  0.059669  0  0.954994  0  0  0.075969  0  1.022657  0  0  0.07692  0  1.02265  0  0  0.084069  0.075193  0  1.022792  0
H  H23  1  0.33275559  0.41433440  0.89510869  1  0  0.059142  0  0.955293  0  0  0.075499  0  1.022666  0  0  0.076499  0  1.022592  0  0  0.083948  0.074723  0  1.02279  0
H  H24  1  0.13510697  0.27051176  0.27789860  1  0  0.308045  0  0.926583  0  0  0.291161  0  0.991289  0  0  0.298405  0  0.985331  0  0  0.303591  0.28602  0  0.995567  0
H  H25  1  0.86432482  0.72931972  0.72197489  1  0  0.308489  0  0.925106  0  0  0.290709  0  0.990984  0  0  0.298016  0  0.984904  0  0  0.303477  0.28554  0  0.995289  0
H  H26  1  0.82057851  0.47966211  0.74576365  1  0  0.391453  0  0.90325  0  0  0.358558  0  0.984413  0  0  0.3716  0  0.970897  0  0  0.301645  0.34943  0  0.993826  0
H  H27  1  0.34072745  0.52025220  0.25427632  1  0  0.390928  0  0.90389  0  0  0.35824  0  0.984635  0  0  0.371241  0  0.971146  0  0  0.301679  0.34916  0  0.993959  0
H  H28  1  0.16972215  0.85894200  0.13527850  1  0  0.071718  0  0.935685  0  0  0.087894  0  1.001064  0  0  0.089617  0  0.999452  0  0  0.086964  0.086527  0  1.00239  0
H  H29  1  0.31100780  0.14109359  0.86466914  1  0  0.071292  0  0.935962  0  0  0.087721  0  1.001506  0  0  0.089448  0  0.999864  0  0  0.086758  0.086335  0  1.002855  0
H  H30  1  0.94253614  0.81975060  0.10737870  1  0  0.084925  0  0.939628  0  0  0.100918  0  1.000943  0  0  0.10201  0  1.001271  0  0  0.092253  0.100025  0  1.000851  0
H  H31  1  0.12290942  0.18012897  0.89252043  1  0  0.08542  0  0.93845  0  0  0.101367  0  1.000302  0  0  0.102544  0  1.000481  0  0  0.092144  0.100436  0  1.000288  0
H  H32  1  0.84902515  0.71363641  0.22338634  1  0  0.086565  0  0.928303  0  0  0.097188  0  0.989708  0  0  0.098366  0  0.989999  0  0  0.107313  0.096246  0  0.989701  0
H  H33  1  0.13570601  0.28654577  0.77657241  1  0  0.086711  0  0.929126  0  0  0.09755  0  0.99004  0  0  0.098738  0  0.990324  0  0  0.107543  0.096614  0  0.990069  0
H  H34  1  0.07211901  0.63257818  0.25842877  1  0  0.061016  0  0.905576  0  0  0.074368  0  0.96245  0  0  0.075114  0  0.962152  0  0  0.112991  0.073713  0  0.962843  0
H  H35  1  0.44019913  0.36740957  0.74165789  1  0  0.061195  0  0.905795  0  0  0.07434  0  0.962803  0  0  0.07515  0  0.962442  0  0  0.113161  0.07364  0  0.963246  0
H  H36  1  0.00437787  0.69041198  0.39305258  1  0  0.070979  0  0.926065  0  0  0.078065  0  0.991727  0  0  0.079562  0  0.990202  0  0  0.115157  0.0768  0  0.99309  0
H  H37  1  0.31408684  0.30984512  0.60702060  1  0  0.069904  0  0.926975  0  0  0.077133  0  0.99232  0  0  0.078552  0  0.990883  0  0  0.114653  0.07597  0  0.993591  0
H  H38  1  0.02162590  0.93739226  0.42291532  1  0  0.121894  0  0.918595  0  0  0.140321  0  0.97132  0  0  0.14177  0  0.970952  0  0  0.110751  0.139145  0  0.971824  0
H  H39  1  0.08415535  0.06291855  0.57704973  1  0  0.122412  0  0.918685  0  0  0.1406  0  0.971714  0  0  0.142011  0  0.971392  0  0  0.1111  0.139453  0  0.972174  0
H  H40  1  0.82724064  0.81190083  0.37706937  1  0  0.119525  0  0.937371  0  0  0.132564  0  1.000208  0  0  0.133969  0  1.00032  0  0  0.105949  0.13148  0  1.000253  0
H  H41  1  0.01545007  0.18844279  0.62294376  1  0  0.119472  0  0.938491  0  0  0.13222  0  1.001901  0  0  0.133639  0  1.002011  0  0  0.105719  0.131127  0  1.001929  0
H  H42  1  0.78408905  0.44706203  0.53725377  1  0  0.118118  0  0.93931  0  0  0.1307  0  1.004298  0  0  0.13288  0  1.003465  0  0  0.107989  0.129114  0  1.004985  0
H  H43  1  0.33689434  0.55297670  0.46275313  1  0  0.117417  0  0.940257  0  0  0.130549  0  1.004752  0  0  0.132723  0  1.003985  0  0  0.107909  0.128957  0  1.005428  0
H  H44  1  0.72930398  0.29093276  0.54956763  1  0  0.115205  0  0.945017  0  0  0.128168  0  1.007619  0  0  0.130181  0  1.007357  0  0  0.105548  0.126682  0  1.007909  0
H  H45  1  0.43835200  0.70911267  0.45046228  1  0  0.114632  0  0.944614  0  0  0.127508  0  1.007528  0  0  0.129531  0  1.00725  0  0  0.105476  0.126036  0  1.0078  0
H  H46  1  0.01936915  0.28638421  0.50449016  1  0  0.059368  0  0.93248  0  0  0.081991  0  0.987065  0  0  0.08192  0  0.988644  0  0  0.086833  0.081981  0  0.986037  0
H  H47  1  0.73292200  0.71364136  0.49565107  1  0  0.059895  0  0.931354  0  0  0.08223  0  0.985999  0  0  0.082193  0  0.987508  0  0  0.086885  0.082135  0  0.985094  0
H  H48  1  0.11242922  0.45017078  0.52236561  1  0  0.068009  0  0.959424  0  0  0.079766  0  1.032945  0  0  0.081295  0  1.03179  0  0  0.089132  0.078552  0  1.033961  0
H  H49  1  0.66219290  0.54986497  0.47766875  1  0  0.067695  0  0.958707  0  0  0.079215  0  1.032561  0  0  0.080731  0  1.031419  0  0  0.088978  0.078041  0  1.033531  0
H  H50  1  0.07226895  0.39778955  0.38131688  1  0  0.068565  0  0.958149  0  0  0.08318  0  1.026778  0  0  0.084298  0  1.027017  0  0  0.087548  0.082271  0  1.026793  0
H  H51  1  0.67446381  0.60218172  0.61875898  1  0  0.068945  0  0.958703  0  0  0.083031  0  1.027605  0  0  0.084157  0  1.027797  0  0  0.08738  0.082123  0  1.027618  0
H  H52  1  0.90225207  0.45596255  0.41104579  1  0  0.072424  0  0.926454  0  0  0.093094  0  0.984529  0  0  0.094023  0  0.984479  0  0  0.091749  0.092342  0  0.984699  0
H  H53  1  0.44623524  0.54383902  0.58893208  1  0  0.0726  0  0.92698  0  0  0.093391  0  0.984536  0  0  0.09424  0  0.984618  0  0  0.091814  0.092668  0  0.984668  0
H  H54  1  0.86098358  0.17937757  0.36487860  1  0  0.062793  0  0.948599  0  0  0.077963  0  1.019473  0  0  0.079914  0  1.017411  0  0  0.083023  0.07647  0  1.021046  0
H  H55  1  0.68137240  0.82048992  0.63505931  1  0  0.063015  0  0.947686  0  0  0.078093  0  1.018423  0  0  0.079964  0  1.016474  0  0  0.083273  0.076651  0  1.01993  0
H  H56  1  0.68736057  0.22829115  0.40314822  1  0  0.083102  0  0.934796  0  0  0.1018  0  0.991899  0  0  0.102291  0  0.993213  0  0  0.093453  0.101328  0  0.991113  0
H  H57  1  0.45883309  0.77146309  0.59671087  1  0  0.083089  0  0.934671  0  0  0.101834  0  0.991634  0  0  0.102343  0  0.992925  0  0  0.09326  0.101343  0  0.990886  0
H  H58  1  0.68576980  0.33652843  0.28836444  1  0  0.088847  0  0.916737  0  0  0.100613  0  0.974609  0  0  0.101731  0  0.975132  0  0  0.108517  0.099697  0  0.974452  0
H  H59  1  0.34895492  0.66350965  0.71154932  1  0  0.088386  0  0.916072  0  0  0.100179  0  0.974084  0  0  0.101292  0  0.974587  0  0  0.108073  0.099307  0  0.973902  0
H  H60  1  0.97991767  0.41053996  0.24292314  1  0  0.061289  0  0.905987  0  0  0.073458  0  0.964546  0  0  0.074304  0  0.964075  0  0  0.113559  0.072719  0  0.965099  0
H  H61  1  0.56869315  0.58924587  0.75699152  1  0  0.06028  0  0.905821  0  0  0.073201  0  0.964177  0  0  0.074006  0  0.963748  0  0  0.113302  0.072509  0  0.964666  0
H  H62  1  0.84755364  0.34821530  0.11079307  1  0  0.063073  0  0.919529  0  0  0.071613  0  0.982798  0  0  0.072562  0  0.98197  0  0  0.11273  0.070832  0  0.983556  0
H  H63  1  0.49922343  0.65167591  0.88914006  1  0  0.063745  0  0.919067  0  0  0.07128  0  0.98366  0  0  0.07218  0  0.982865  0  0  0.112631  0.070504  0  0.984432  0
H  H64  1  0.60753135  0.10489829  0.08591160  1  0  0.129611  0  0.918589  0  0  0.144188  0  0.976237  0  0  0.146035  0  0.975229  0  0  0.11392  0.142754  0  0.977098  0
H  H65  1  0.50281322  0.89502338  0.91399391  1  0  0.128668  0  0.919178  0  0  0.143577  0  0.976442  0  0  0.145426  0  0.975473  0  0  0.113648  0.142125  0  0.977328  0
H  H66  1  0.54993712  0.23507175  0.13091957  1  0  0.116408  0  0.931892  0  0  0.131677  0  0.991478  0  0  0.13279  0  0.991668  0  0  0.106373  0.130775  0  0.991488  0
H  H67  1  0.31491218  0.76493487  0.86895776  1  0  0.116611  0  0.932783  0  0  0.131629  0  0.992532  0  0  0.132766  0  0.99272  0  0  0.106295  0.130724  0  0.992537  0
C  C68  1  0.01107466  0.52478740  0.86391116  1  0  0.732979  0  3.709802  0  0  0.681906  0  4.018755  0  0  0.715832  0  4.008678  0  0  0.244834  0.658762  0  4.02514  0
C  C69  1  0.48605761  0.47511533  0.13618119  1  0  0.733325  0  3.709689  0  0  0.682663  0  4.018216  0  0  0.716568  0  4.008171  0  0  0.245303  0.659505  0  4.024642  0
C  C70  1  0.05099971  0.54413626  0.95264732  1  0  -0.282761  0  3.669118  0  0  -0.321141  0  3.921607  0  0  -0.328087  0  3.930212  0  0  -0.164852  -0.31623  0  3.915636  0
C  C71  1  0.50671295  0.45576289  0.04746241  1  0  -0.282521  0  3.670046  0  0  -0.321676  0  3.922651  0  0  -0.328709  0  3.931401  0  0  -0.16443  -0.316803  0  3.916722  0
C  C72  1  0.02404312  0.66037049  0.99857769  1  0  -0.074057  0  3.672048  0  0  -0.115634  0  3.933225  0  0  -0.116373  0  3.948074  0  0  -0.163693  -0.114938  0  3.922895  0
C  C73  1  0.36371804  0.33945250  0.00145546  1  0  -0.074074  0  3.673239  0  0  -0.115775  0  3.934497  0  0  -0.116481  0  3.949404  0  0  -0.164522  -0.115058  0  3.924124  0
C  C74  1  0.03411775  0.66191359  0.08906746  1  0  -0.104221  0  3.661779  0  0  -0.143738  0  3.924127  0  0  -0.145199  0  3.938886  0  0  -0.168578  -0.142539  0  3.913854  0
C  C75  1  0.37229939  0.33804685  0.91098413  1  0  -0.103392  0  3.661278  0  0  -0.142034  0  3.922911  0  0  -0.143521  0  3.937686  0  0  -0.167915  -0.140806  0  3.912599  0
C  C76  1  0.03711225  0.78673789  0.13614092  1  0  -0.127976  0  3.677155  0  0  -0.170176  0  3.932708  0  0  -0.171765  0  3.947551  0  0  -0.167735  -0.168724  0  3.922188  0
C  C77  1  0.25053691  0.21326363  0.86382282  1  0  -0.127724  0  3.676318  0  0  -0.170775  0  3.932016  0  0  -0.172511  0  3.947128  0  0  -0.167561  -0.169297  0  3.921566  0
C  C78  1  0.98786775  0.77642012  0.22232363  1  0  -0.038415  0  3.571945  0  0  -0.046391  0  3.827353  0  0  -0.046098  0  3.842163  0  0  -0.068253  -0.046633  0  3.817223  0
C  C79  1  0.21160299  0.22369101  0.77765700  1  0  -0.038888  0  3.572991  0  0  -0.046205  0  3.827347  0  0  -0.045999  0  3.842351  0  0  -0.068565  -0.046447  0  3.817226  0
C  C80  1  0.10609571  0.73427098  0.27440447  1  0  0.122464  0  3.56352  0  0  0.098763  0  3.80358  0  0  0.101864  0  3.818808  0  0  0.023846  0.096705  0  3.793086  0
C  C81  1  0.37206347  0.26576697  0.72563256  1  0  0.121679  0  3.565114  0  0  0.098186  0  3.804865  0  0  0.101258  0  3.820126  0  0  0.02386  0.096177  0  3.794348  0
C  C82  1  0.07654859  0.77159358  0.36475173  1  0  0.150407  0  3.564036  0  0  0.124652  0  3.815075  0  0  0.128661  0  3.828913  0  0  0.023866  0.122019  0  3.80554  0
C  C83  1  0.30508186  0.22860428  0.63527471  1  0  0.151567  0  3.565005  0  0  0.126438  0  3.814289  0  0  0.13051  0  3.828191  0  0  0.024629  0.123725  0  3.804735  0
C  C84  1  0.97032396  0.86097645  0.37245406  1  0  -0.183422  0  3.532582  0  0  -0.230385  0  3.796585  0  0  -0.230614  0  3.806013  0  0  -0.138881  -0.23009  0  3.79003  0
C  C85  1  0.10933890  0.13927433  0.62754238  1  0  -0.183921  0  3.533302  0  0  -0.230977  0  3.797284  0  0  -0.231199  0  3.80674  0  0  -0.139182  -0.230811  0  3.791015  0
C  C86  1  0.38247322  0.84353756  0.34399687  1  0  0.712757  0  3.939505  0  0  0.643167  0  4.251299  0  0  0.67761  0  4.246169  0  0  0.314154  0.61974  0  4.254032  0
C  C87  1  0.53881137  0.15640704  0.65599084  1  0  0.712545  0  3.938511  0  0  0.642763  0  4.250845  0  0  0.677233  0  4.245691  0  0  0.313352  0.619327  0  4.253598  0
C  C88  1  0.89717607  0.42132446  0.64190127  1  0  0.741995  0  3.70297  0  0  0.686798  0  4.016012  0  0  0.720991  0  4.00555  0  0  0.247092  0.663434  0  4.022708  0
C  C89  1  0.47574520  0.57874076  0.35815547  1  0  0.741933  0  3.702387  0  0  0.686639  0  4.015758  0  0  0.720925  0  4.005219  0  0  0.24769  0.663204  0  4.022539  0
C  C90  1  0.84125540  0.38011715  0.55455102  1  0  -0.284631  0  3.683269  0  0  -0.324269  0  3.936402  0  0  -0.331113  0  3.945666  0  0  -0.165217  -0.319449  0  3.929933  0
C  C91  1  0.46104445  0.61991835  0.44548330  1  0  -0.283338  0  3.681901  0  0  -0.323578  0  3.935089  0  0  -0.33045  0  3.94423  0  0  -0.16517  -0.318758  0  3.928709  0
C  C92  1  0.99030661  0.37171332  0.50046078  1  0  -0.073241  0  3.690078  0  0  -0.119486  0  3.957641  0  0  -0.119126  0  3.971121  0  0  -0.167797  -0.119545  0  3.948276  0
C  C93  1  0.61852353  0.62827852  0.49960782  1  0  -0.073226  0  3.687239  0  0  -0.118834  0  3.954041  0  0  -0.118493  0  3.967581  0  0  -0.167831  -0.118888  0  3.944668  0
C  C94  1  0.94792028  0.37675184  0.41298030  1  0  -0.101649  0  3.641533  0  0  -0.139625  0  3.900575  0  0  -0.141092  0  3.915086  0  0  -0.166499  -0.13844  0  3.890474  0
C  C95  1  0.57106476  0.62313160  0.58704875  1  0  -0.103055  0  3.64429  0  0  -0.140567  0  3.902436  0  0  -0.141922  0  3.916839  0  0  -0.166564  -0.139434  0  3.892416  0
C  C96  1  0.80833563  0.25642556  0.36926033  1  0  -0.124444  0  3.676974  0  0  -0.167876  0  3.932314  0  0  -0.16939  0  3.947257  0  0  -0.168224  -0.166603  0  3.921984  0
C  C97  1  0.55171498  0.74344597  0.63067383  1  0  -0.123904  0  3.67699  0  0  -0.167113  0  3.931929  0  0  -0.168634  0  3.946917  0  0  -0.167707  -0.165826  0  3.921573  0
C  C98  1  0.75707196  0.27008190  0.28526345  1  0  -0.038602  0  3.552882  0  0  -0.045669  0  3.808178  0  0  -0.045495  0  3.823197  0  0  -0.06628  -0.045822  0  3.797867  0
C  C99  1  0.48682037  0.72988106  0.71466115  1  0  -0.039233  0  3.553832  0  0  -0.046209  0  3.810002  0  0  -0.045989  0  3.824956  0  0  -0.06625  -0.046471  0  3.799903  0
C  C100  1  0.91188856  0.30865639  0.22911361  1  0  0.120519  0  3.563234  0  0  0.096721  0  3.802999  0  0  0.099929  0  3.817951  0  0  0.023952  0.094581  0  3.792676  0
C  C101  1  0.60293583  0.69116268  0.77081482  1  0  0.122537  0  3.559838  0  0  0.097092  0  3.802634  0  0  0.100319  0  3.817519  0  0  0.024473  0.094955  0  3.792363  0
C  C102  1  0.83747871  0.26759942  0.13979803  1  0  0.155639  0  3.573627  0  0  0.130059  0  3.82446  0  0  0.134132  0  3.838526  0  0  0.023529  0.127335  0  3.814782  0
C  C103  1  0.56979696  0.73228452  0.86013432  1  0  0.154399  0  3.574891  0  0  0.12921  0  3.827075  0  0  0.133365  0  3.840888  0  0  0.023734  0.126447  0  3.8176  0
C  C104  1  0.63994294  0.18307182  0.13553022  1  0  -0.184923  0  3.546566  0  0  -0.23275  0  3.813175  0  0  -0.232683  0  3.822532  0  0  -0.139684  -0.232759  0  3.806973  0
C  C105  1  0.45695412  0.81687887  0.86436811  1  0  -0.184486  0  3.549154  0  0  -0.231674  0  3.81441  0  0  -0.231756  0  3.823918  0  0  -0.139435  -0.23156  0  3.807981  0
C  C106  1  0.06603728  0.18947709  0.15880340  1  0  0.72036  0  3.929379  0  0  0.648854  0  4.243687  0  0  0.683698  0  4.238068  0  0  0.316317  0.625153  0  4.246748  0
C  C107  1  0.87644215  0.81038146  0.84107978  1  0  0.717679  0  3.933265  0  0  0.648045  0  4.245346  0  0  0.682855  0  4.239774  0  0  0.316453  0.624412  0  4.248379  0
S  S108  1  0.99671006  0.92594573  0.27971028  1  0  0.043951  0  2.967622  0  0  0.081013  0  3.465826  0  0  0.077231  0  3.4451  0  0  -0.027214  0.083266  0  3.480533  0
S  S109  1  0.07075550  0.07422134  0.72023426  1  0  0.043691  0  2.967609  0  0  0.080897  0  3.46512  0  0  0.077144  0  3.44435  0  0  -0.027223  0.083188  0  3.479826  0
S  S110  1  0.60316078  0.12279330  0.22986539  1  0  0.040313  0  2.968495  0  0  0.076595  0  3.471051  0  0  0.07287  0  3.449882  0  0  -0.030112  0.078805  0  3.486045  0
S  S111  1  0.48044739  0.87720129  0.77004449  1  0  0.040046  0  2.96936  0  0  0.076184  0  3.472044  0  0  0.072511  0  3.450799  0  0  -0.030196  0.078387  0  3.487082  0
N  N112  1  0.29589624  0.79945221  0.26904632  1  0  -0.550242  0  3.263434  0  0  -0.500974  0  3.526899  0  0  -0.521189  0  3.530641  0  0  -0.449954  -0.48687  0  3.523882  0
N  N113  1  0.49622998  0.20027854  0.73097706  1  0  -0.549221  0  3.262589  0  0  -0.501396  0  3.5275  0  0  -0.52173  0  3.531343  0  0  -0.449699  -0.487186  0  3.524392  0
N  N114  1  0.25708219  0.83044633  0.39930560  1  0  -0.50173  0  3.265503  0  0  -0.44823  0  3.51771  0  0  -0.46871  0  3.521607  0  0  -0.430384  -0.434074  0  3.514702  0
N  N115  1  0.42660587  0.16974139  0.60069065  1  0  -0.50301  0  3.265195  0  0  -0.448087  0  3.516495  0  0  -0.468588  0  3.520403  0  0  -0.43011  -0.433921  0  3.513552  0
N  N116  1  0.95269397  0.20364565  0.10407321  1  0  -0.504382  0  3.232538  0  0  -0.452357  0  3.4854  0  0  -0.47256  0  3.489245  0  0  -0.428588  -0.438372  0  3.482395  0
N  N117  1  0.74909008  0.79618185  0.89584770  1  0  -0.502679  0  3.232819  0  0  -0.451012  0  3.485991  0  0  -0.471083  0  3.489725  0  0  -0.428763  -0.437287  0  3.483222  0
N  N118  1  0.03697350  0.24393634  0.23331369  1  0  -0.546663  0  3.27452  0  0  -0.497555  0  3.536103  0  0  -0.517507  0  3.540138  0  0  -0.448422  -0.483622  0  3.532922  0
N  N119  1  0.79284102  0.75568040  0.76663346  1  0  -0.545186  0  3.271602  0  0  -0.495754  0  3.534567  0  0  -0.515657  0  3.538386  0  0  -0.447976  -0.481855  0  3.531482  0
N  N120  1  0.35767266  0.25979475  0.41917876  1  0  0.687072  0  4.139445  0  0  0.735097  0  4.408491  0  0  0.748949  0  4.433585  0  0  0.094848  0.716177  0  4.403406  0
N  N121  1  0.09812363  0.74028674  0.58079725  1  0  0.689933  0  4.138782  0  0  0.736175  0  4.409889  0  0  0.764371  0  4.416542  0  0  0.095343  0.717254  0  4.404808  0
N  N122  1  0.56811718  0.79729899  0.08291291  1  0  0.682765  0  4.148219  0  0  0.718602  0  4.433795  0  0  0.74442  0  4.441926  0  0  0.096976  0.712336  0  4.410843  0
N  N123  1  0.77093135  0.20288919  0.91711775  1  0  0.683142  0  4.144405  0  0  0.731484  0  4.412294  0  0  0.746491  0  4.437982  0  0  0.09684  0.712552  0  4.407299  0
O  O124  1  0.13815310  0.50527660  0.81916390  1  0  -0.565526  0  2.075179  0  0  -0.513502  0  2.299988  0  0  -0.536539  0  2.284662  0  0  -0.33112  -0.497485  0  2.309692  0
O  O125  1  0.63274128  0.49488085  0.18098514  1  0  -0.564555  0  2.075084  0  0  -0.513359  0  2.30006  0  0  -0.536404  0  2.284995  0  0  -0.33122  -0.497316  0  2.309739  0
O  O126  1  0.86820947  0.52497876  0.83471148  1  0  -0.567546  0  1.969702  0  0  -0.515463  0  2.183971  0  0  -0.538188  0  2.174228  0  0  -0.287979  -0.499973  0  2.190389  0
O  O127  1  0.34291814  0.47476988  0.16531202  1  0  -0.568289  0  1.969294  0  0  -0.515999  0  2.182891  0  0  -0.538762  0  2.17324  0  0  -0.288612  -0.500514  0  2.18928  0
O  O128  1  0.54785703  0.88761786  0.35794110  1  0  -0.618052  0  1.93504  0  0  -0.564327  0  2.178053  0  0  -0.587173  0  2.165621  0  0  -0.340405  -0.548257  0  2.186084  0
O  O129  1  0.66006030  0.11234815  0.64205550  1  0  -0.617537  0  1.935725  0  0  -0.563459  0  2.178524  0  0  -0.586314  0  2.166109  0  0  -0.339579  -0.547374  0  2.186531  0
O  O130  1  0.77553953  0.44891784  0.68592442  1  0  -0.555089  0  2.097622  0  0  -0.502047  0  2.325357  0  0  -0.525061  0  2.311401  0  0  -0.327716  -0.486072  0  2.334527  0
O  O131  1  0.32645401  0.55098523  0.31408965  1  0  -0.554568  0  2.097758  0  0  -0.501793  0  2.325326  0  0  -0.524772  0  2.311324  0  0  -0.328005  -0.48588  0  2.334601  0
O  O132  1  0.04508294  0.42851754  0.67064539  1  0  -0.582905  0  1.964956  0  0  -0.528524  0  2.183578  0  0  -0.551637  0  2.173268  0  0  -0.290873  -0.512714  0  2.190281  0
O  O133  1  0.61655017  0.57168239  0.32946542  1  0  -0.583263  0  1.965508  0  0  -0.528052  0  2.182833  0  0  -0.551235  0  2.172634  0  0  -0.29098  -0.51217  0  2.189467  0
O  O134  1  0.17715575  0.13635861  0.14476752  1  0  -0.612686  0  1.937382  0  0  -0.559697  0  2.18326  0  0  -0.583109  0  2.171215  0  0  -0.335459  -0.54323  0  2.190998  0
O  O135  1  0.04072183  0.86378891  0.85511634  1  0  -0.612102  0  1.940084  0  0  -0.559683  0  2.185229  0  0  -0.583118  0  2.173245  0  0  -0.335797  -0.543195  0  2.1929  0
O  O136  1  0.33820784  0.28364479  0.34845441  1  0  -0.49259  0  1.799861  0  0  -0.473528  0  2.028446  0  0  -0.486249  0  2.023986  0  0  -0.216138  -0.461188  0  2.034537  0
O  O137  1  0.05446940  0.71646445  0.65148280  1  0  -0.494645  0  1.800267  0  0  -0.474128  0  2.028447  0  0  -0.491667  0  2.019178  0  0  -0.216633  -0.461773  0  2.034537  0
O  O138  1  0.33821405  0.14777092  0.42717718  1  0  -0.491739  0  1.74153  0  0  -0.484719  0  1.958084  0  0  -0.495788  0  1.954502  0  0  -0.207567  -0.473471  0  1.963694  0
O  O139  1  0.19097148  0.85227226  0.57284169  1  0  -0.491675  0  1.741638  0  0  -0.484435  0  1.958873  0  0  -0.500414  0  1.950389  0  0  -0.207529  -0.473139  0  1.964386  0
O  O140  1  0.39720905  0.34531343  0.47800919  1  0  -0.419051  0  1.776411  0  0  -0.409861  0  1.981751  0  0  -0.419826  0  1.984139  0  0  -0.158297  -0.399433  0  1.983492  0
O  O141  1  0.05218331  0.65477140  0.52195826  1  0  -0.420745  0  1.776215  0  0  -0.411114  0  1.982106  0  0  -0.426044  0  1.979243  0  0  -0.158601  -0.40072  0  1.983913  0
O  O142  1  0.55491891  0.77227261  0.15515965  1  0  -0.492098  0  1.817869  0  0  -0.464744  0  2.0527  0  0  -0.481883  0  2.043086  0  0  -0.217273  -0.456087  0  2.054468  0
O  O143  1  0.78241814  0.22788279  0.84487099  1  0  -0.491828  0  1.817523  0  0  -0.468949  0  2.048204  0  0  -0.482862  0  2.04313  0  0  -0.217255  -0.456162  0  2.054535  0
O  O144  1  0.69535719  0.89229096  0.06854967  1  0  -0.472622  0  1.740784  0  0  -0.463078  0  1.953274  0  0  -0.476917  0  1.945744  0  0  -0.193264  -0.457171  0  1.953834  0
O  O145  1  0.80380565  0.10812791  0.93148739  1  0  -0.472358  0  1.740353  0  0  -0.467202  0  1.948486  0  0  -0.477521  0  1.945616  0  0  -0.19254  -0.456948  0  1.953747  0
O  O146  1  0.45627899  0.72719780  0.02887492  1  0  -0.434302  0  1.779012  0  0  -0.420209  0  1.987715  0  0  -0.434705  0  1.984548  0  0  -0.166214  -0.413603  0  1.98475  0
O  O147  1  0.72893811  0.27278905  0.97114886  1  0  -0.434315  0  1.77747  0  0  -0.424201  0  1.98114  0  0  -0.435217  0  1.982767  0  0  -0.166155  -0.413479  0  1.983349  0
