# generated using pymatgen
data_CdH11C15Br4(NO3)2
_symmetry_space_group_name_H-M   'P 1'
_cell_length_a   9.30999460
_cell_length_b   9.34340104
_cell_length_c   13.60166945
_cell_angle_alpha   70.43464264
_cell_angle_beta   88.52113369
_cell_angle_gamma   63.70008292
_symmetry_Int_Tables_number   1
_chemical_formula_structural   CdH11C15Br4(NO3)2
_chemical_formula_sum   'Cd2 H22 C30 Br8 N4 O12'
_cell_volume   988.87399535
_cell_formula_units_Z   2
loop_
 _symmetry_equiv_pos_site_id
 _symmetry_equiv_pos_as_xyz
  1  'x, y, z'
loop_
 _atom_site_type_symbol
 _atom_site_label
 _atom_site_symmetry_multiplicity
 _atom_site_fract_x
 _atom_site_fract_y
 _atom_site_fract_z
 _atom_site_occupancy
 _atom_site_hle17_bader_spin_density
 _atom_site_hle17_ddec_charge
 _atom_site_hle17_ddec_spin_density
 _atom_site_hle17_ddec_sum_bond_order
 _atom_site_hle17_magmom
 _atom_site_hse06_10hf_bader_spin_density
 _atom_site_hse06_10hf_ddec_charge
 _atom_site_hse06_10hf_ddec_spin_density
 _atom_site_hse06_10hf_ddec_sum_bond_order
 _atom_site_hse06_10hf_magmom
 _atom_site_hse06_bader_spin_density
 _atom_site_hse06_ddec_charge
 _atom_site_hse06_ddec_spin_density
 _atom_site_hse06_ddec_sum_bond_order
 _atom_site_hse06_magmom
 _atom_site_pbe_bader_spin_density
 _atom_site_pbe_cm5_charge
 _atom_site_pbe_ddec_charge
 _atom_site_pbe_ddec_spin_density
 _atom_site_pbe_ddec_sum_bond_order
 _atom_site_pbe_magmom
Cd  Cd0  1  0.46122359  0.30582046  0.53416477  1  0  1.236674  0  1.558947  0  0  1.059941  0  1.991999  0  0  1.117554  0  1.937029  0  0  0.778019  1.018803  0  2.029624  0
Cd  Cd1  1  0.53877732  0.69418070  0.46583465  1  0  1.236662  0  1.558996  0  0  1.059921  0  1.992053  0  0  1.117533  0  1.937082  0  0  0.778003  1.018784  0  2.02968  0
H  H2  1  0.16024061  0.26724880  0.55093988  1  0  0.443485  0  0.814237  0  0  0.411126  0  0.893836  0  0  0.420678  0  0.882603  0  0  0.307079  0.404334  0  0.901775  0
H  H3  1  0.83975871  0.73275104  0.44905693  1  0  0.443469  0  0.814221  0  0  0.411117  0  0.893807  0  0  0.420668  0  0.882578  0  0  0.307088  0.404323  0  0.901749  0
H  H4  1  0.31684008  0.10237316  0.62828006  1  0  0.41947  0  0.888565  0  0  0.385353  0  0.957428  0  0  0.396341  0  0.941451  0  0  0.288191  0.377659  0  0.968584  0
H  H5  1  0.68316191  0.89762798  0.37171786  1  0  0.419532  0  0.888456  0  0  0.385424  0  0.957307  0  0  0.396412  0  0.941329  0  0  0.288243  0.377731  0  0.968461  0
H  H6  1  0.60843642  0.95980078  0.63207246  1  0  0.418093  0  0.870122  0  0  0.387856  0  0.942259  0  0  0.397818  0  0.92803  0  0  0.292189  0.380796  0  0.952334  0
H  H7  1  0.39156669  0.04019781  0.36792678  1  0  0.418097  0  0.870112  0  0  0.387865  0  0.942248  0  0  0.397826  0  0.928019  0  0  0.292184  0.380805  0  0.952323  0
H  H8  1  0.68156839  0.94997561  0.52584336  1  0  0.441066  0  0.851157  0  0  0.412847  0  0.908877  0  0  0.423047  0  0.894291  0  0  0.289527  0.40559  0  0.919234  0
H  H9  1  0.31843574  0.05002554  0.47415452  1  0  0.441095  0  0.851123  0  0  0.412874  0  0.908844  0  0  0.423075  0  0.894257  0  0  0.28953  0.405617  0  0.919202  0
H  H10  1  0.56521198  0.42657856  0.29222249  1  0  0.08942  0  0.99122  0  0  0.092173  0  1.069069  0  0  0.095226  0  1.064854  0  0  0.119241  0.089891  0  1.072127  0
H  H11  1  0.43478673  0.57342514  0.70777490  1  0  0.089472  0  0.991174  0  0  0.092221  0  1.069031  0  0  0.095274  0  1.064814  0  0  0.119253  0.089938  0  1.072089  0
H  H12  1  0.13140526  0.39895257  0.36201488  1  0  0.11643  0  0.959633  0  0  0.124606  0  1.022856  0  0  0.127449  0  1.021262  0  0  0.11337  0.122464  0  1.024183  0
H  H13  1  0.86859687  0.60104091  0.63798632  1  0  0.116423  0  0.959626  0  0  0.124602  0  1.022857  0  0  0.127437  0  1.021271  0  0  0.113379  0.12246  0  1.024172  0
H  H14  1  0.14710387  0.46478567  0.14733255  1  0  0.100627  0  0.997099  0  0  0.104583  0  1.07077  0  0  0.107796  0  1.067989  0  0  0.10314  0.102255  0  1.072847  0
H  H15  1  0.85289928  0.53521036  0.85266729  1  0  0.100596  0  0.997139  0  0  0.10455  0  1.070792  0  0  0.107778  0  1.067995  0  0  0.103118  0.102222  0  1.072866  0
H  H16  1  0.61194304  0.21694007  0.14512964  1  0  0.123651  0  0.965836  0  0  0.126595  0  1.039563  0  0  0.130752  0  1.036554  0  0  0.100863  0.123581  0  1.041805  0
H  H17  1  0.38805787  0.78306109  0.85486904  1  0  0.123623  0  0.96589  0  0  0.126565  0  1.039612  0  0  0.130721  0  1.036604  0  0  0.100858  0.123552  0  1.041852  0
H  H18  1  0.11372278  0.77421704  0.03371542  1  0  0.096184  0  0.989231  0  0  0.110889  0  1.065912  0  0  0.112372  0  1.065338  0  0  0.07444  0.10978  0  1.066349  0
H  H19  1  0.88627603  0.22578154  0.96628317  1  0  0.096217  0  0.989234  0  0  0.110902  0  1.065928  0  0  0.112386  0  1.065353  0  0  0.074446  0.109792  0  1.066364  0
H  H20  1  0.19179077  0.91048305  0.95668284  1  0  0.106824  0  0.96709  0  0  0.125823  0  1.033507  0  0  0.127023  0  1.033631  0  0  0.081125  0.12492  0  1.033444  0
H  H21  1  0.80820850  0.08951940  0.04331703  1  0  0.106842  0  0.967078  0  0  0.125845  0  1.033487  0  0  0.127045  0  1.033611  0  0  0.08114  0.124941  0  1.033424  0
H  H22  1  0.24873196  0.81420876  0.09625109  1  0  0.114609  0  0.948229  0  0  0.132614  0  1.014742  0  0  0.13393  0  1.01468  0  0  0.083859  0.131585  0  1.014884  0
H  H23  1  0.75126577  0.18578984  0.90374972  1  0  0.114627  0  0.948259  0  0  0.132637  0  1.014765  0  0  0.133953  0  1.014703  0  0  0.08387  0.131611  0  1.014905  0
C  C24  1  0.48482866  0.08308757  0.77102494  1  0  0.660884  0  3.949636  0  0  0.605151  0  4.256009  0  0  0.63941  0  4.248176  0  0  0.198501  0.581949  0  4.260483  0
C  C25  1  0.51516805  0.91690846  0.22897577  1  0  0.660901  0  3.949822  0  0  0.605107  0  4.256282  0  0  0.639366  0  4.24845  0  0  0.1985  0.581912  0  4.260756  0
C  C26  1  0.49492090  0.04054258  0.88975995  1  0  -0.09519  0  3.709417  0  0  -0.0905  0  3.959659  0  0  -0.093312  0  3.976601  0  0  -0.021814  -0.089035  0  3.948762  0
C  C27  1  0.50507632  0.95945478  0.11024411  1  0  -0.09518  0  3.70935  0  0  -0.090468  0  3.959603  0  0  -0.093277  0  3.976542  0  0  -0.021811  -0.089009  0  3.948711  0
C  C28  1  0.63987740  0.92281971  0.95808817  1  0  0.039015  0  3.693015  0  0  0.038624  0  3.968705  0  0  0.041994  0  3.988554  0  0  -0.023682  0.036202  0  3.955544  0
C  C29  1  0.36011978  0.07718022  0.04191602  1  0  0.039143  0  3.692962  0  0  0.038722  0  3.968696  0  0  0.042092  0  3.988544  0  0  -0.023598  0.036303  0  3.955536  0
C  C30  1  0.35521101  0.11669289  0.93279904  1  0  0.033566  0  3.693401  0  0  0.033606  0  3.967455  0  0  0.036992  0  3.98696  0  0  -0.023259  0.031161  0  3.954542  0
C  C31  1  0.64478621  0.88330445  0.06720355  1  0  0.033629  0  3.693423  0  0  0.033656  0  3.96748  0  0  0.037042  0  3.986984  0  0  -0.023274  0.031215  0  3.954567  0
C  C32  1  0.18880145  0.63785890  0.53149998  1  0  0.655625  0  3.974925  0  0  0.59916  0  4.283901  0  0  0.633441  0  4.276403  0  0  0.192988  0.575854  0  4.288059  0
C  C33  1  0.81120217  0.36214103  0.46850334  1  0  0.65574  0  3.974902  0  0  0.599248  0  4.283917  0  0  0.633531  0  4.276416  0  0  0.193001  0.575942  0  4.288075  0
C  C34  1  0.09017826  0.82531699  0.51594305  1  0  -0.1065  0  3.741628  0  0  -0.100195  0  3.990337  0  0  -0.103072  0  4.006762  0  0  -0.024179  -0.098587  0  3.979689  0
C  C35  1  0.90982643  0.17468294  0.48405952  1  0  -0.106521  0  3.741538  0  0  -0.100216  0  3.990273  0  0  -0.103088  0  4.006683  0  0  -0.024214  -0.098608  0  3.979625  0
C  C36  1  0.96953374  0.05298646  0.58635897  1  0  0.042852  0  3.707387  0  0  0.04222  0  3.983873  0  0  0.046237  0  4.001996  0  0  -0.022979  0.039291  0  3.972011  0
C  C37  1  0.03047039  0.94701475  0.41364404  1  0  0.042914  0  3.707416  0  0  0.042285  0  3.983898  0  0  0.046302  0  4.002022  0  0  -0.022943  0.039354  0  3.972037  0
C  C38  1  0.05707876  0.87913780  0.60198546  1  0  0.043325  0  3.677371  0  0  0.042711  0  3.951277  0  0  0.046512  0  3.969726  0  0  -0.020988  0.039915  0  3.939176  0
C  C39  1  0.94292000  0.12086338  0.39801546  1  0  0.043303  0  3.677289  0  0  0.042683  0  3.951202  0  0  0.046484  0  3.96965  0  0  -0.020988  0.039886  0  3.939106  0
C  C40  1  0.45086228  0.42461526  0.28424620  1  0  0.191141  0  3.642272  0  0  0.129612  0  3.905367  0  0  0.145089  0  3.916173  0  0  0.142209  0.119594  0  3.89772  0
C  C41  1  0.54913807  0.57538717  0.71575219  1  0  0.191112  0  3.642253  0  0  0.129588  0  3.905329  0  0  0.145064  0  3.916134  0  0  0.142208  0.11957  0  3.897681  0
C  C42  1  0.22470878  0.41264575  0.31616970  1  0  -0.001677  0  3.743605  0  0  -0.034911  0  4.010399  0  0  -0.032794  0  4.030866  0  0  -0.012967  -0.036332  0  3.996714  0
C  C43  1  0.77529274  0.58735157  0.68383061  1  0  -0.001633  0  3.743552  0  0  -0.03488  0  4.010334  0  0  -0.032757  0  4.030806  0  0  -0.012967  -0.036295  0  3.996653  0
C  C44  1  0.22856769  0.44864520  0.20987898  1  0  -0.059968  0  3.687517  0  0  -0.100591  0  3.950443  0  0  -0.099414  0  3.968713  0  0  -0.009972  -0.101266  0  3.938213  0
C  C45  1  0.77143383  0.55135212  0.79012132  1  0  -0.059939  0  3.687479  0  0  -0.100543  0  3.950394  0  0  -0.09938  0  3.968649  0  0  -0.009944  -0.101222  0  3.938168  0
C  C46  1  0.43447069  0.48080214  0.09216747  1  0  0.116221  0  3.743456  0  0  0.10595  0  3.987129  0  0  0.109446  0  4.010505  0  0  0.085935  0.103538  0  3.971391  0
C  C47  1  0.56552695  0.51920156  0.90782994  1  0  0.116294  0  3.743317  0  0  0.105959  0  3.987064  0  0  0.109455  0  4.010438  0  0  0.085939  0.10354  0  3.971328  0
C  C48  1  0.56660891  0.34075836  0.08086314  1  0  -0.191902  0  3.732644  0  0  -0.222962  0  3.991587  0  0  -0.227131  0  4.012431  0  0  -0.094536  -0.220086  0  3.977626  0
C  C49  1  0.43339036  0.65924407  0.91913454  1  0  -0.19189  0  3.732747  0  0  -0.222907  0  3.991675  0  0  -0.227077  0  4.012521  0  0  -0.094526  -0.220028  0  3.977715  0
C  C50  1  0.36365676  0.64338091  0.01203042  1  0  0.099185  0  3.738289  0  0  0.119999  0  3.976494  0  0  0.119381  0  4.001049  0  0  -0.007723  0.12033  0  3.95986  0
C  C51  1  0.63634093  0.35662020  0.98796612  1  0  0.09908  0  3.73815  0  0  0.11992  0  3.976383  0  0  0.119302  0  4.000939  0  0  -0.007759  0.120258  0  3.959744  0
C  C52  1  0.22227116  0.79351726  0.02526355  1  0  -0.328694  0  3.717938  0  0  -0.408638  0  3.954961  0  0  -0.41083  0  3.964993  0  0  -0.25057  -0.406783  0  3.948046  0
C  C53  1  0.77772923  0.20648261  0.97473544  1  0  -0.32875  0  3.717991  0  0  -0.408678  0  3.955016  0  0  -0.410871  0  3.965046  0  0  -0.250604  -0.406826  0  3.948098  0
Br  Br54  1  0.12744613  0.71006020  0.73998359  1  0  -0.005176  0  1.419651  0  0  0.007326  0  1.700533  0  0  0.004212  0  1.69112  0  0  0.081011  0.009578  0  1.707315  0
Br  Br55  1  0.87255590  0.28993842  0.26001860  1  0  -0.005151  0  1.419633  0  0  0.007357  0  1.700511  0  0  0.004242  0  1.691098  0  0  0.081009  0.009603  0  1.707305  0
Br  Br56  1  0.93308511  0.13070304  0.70082654  1  0  -0.011881  0  1.406807  0  0  -0.009832  0  1.687622  0  0  -0.012218  0  1.679395  0  0  0.065386  -0.008195  0  1.693598  0
Br  Br57  1  0.06691743  0.86929688  0.29917681  1  0  -0.011922  0  1.406882  0  0  -0.009876  0  1.6877  0  0  -0.012256  0  1.679461  0  0  0.065367  -0.008239  0  1.693677  0
Br  Br58  1  0.82849313  0.82345241  0.89843847  1  0  -0.041594  0  1.466124  0  0  -0.038806  0  1.758411  0  0  -0.040522  0  1.74844  0  0  0.061621  -0.037645  0  1.765509  0
Br  Br59  1  0.17149975  0.17654749  0.10156435  1  0  -0.041624  0  1.466136  0  0  -0.038822  0  1.758434  0  0  -0.040538  0  1.748458  0  0  0.0616  -0.037662  0  1.765531  0
Br  Br60  1  0.15823251  0.26944476  0.83975925  1  0  -0.030807  0  1.464258  0  0  -0.023927  0  1.754038  0  0  -0.026564  0  1.744929  0  0  0.070047  -0.02213  0  1.7606  0
Br  Br61  1  0.84176509  0.73056154  0.16024050  1  0  -0.030805  0  1.464275  0  0  -0.023929  0  1.754067  0  0  -0.026567  0  1.744955  0  0  0.070065  -0.022133  0  1.760628  0
N  N62  1  0.36480556  0.39738479  0.36135241  1  0  -0.407256  0  3.272382  0  0  -0.32745  0  3.551671  0  0  -0.350649  0  3.569676  0  0  -0.364007  -0.311563  0  3.538925  0
N  N63  1  0.63519535  0.60261636  0.63864553  1  0  -0.407312  0  3.272329  0  0  -0.327497  0  3.551616  0  0  -0.350695  0  3.569616  0  0  -0.364038  -0.31161  0  3.538869  0
N  N64  1  0.37257344  0.45557253  0.19081173  1  0  -0.080809  0  3.589475  0  0  0.013225  0  3.794714  0  0  -0.001672  0  3.82039  0  0  -0.227158  0.023094  0  3.777201  0
N  N65  1  0.62742695  0.54442734  0.80918726  1  0  -0.080882  0  3.58953  0  0  0.013166  0  3.794783  0  0  -0.001731  0  3.820461  0  0  -0.227194  0.023038  0  3.777269  0
O  O66  1  0.49891589  0.21498644  0.71712576  1  0  -0.622216  0  1.982824  0  0  -0.564086  0  2.234702  0  0  -0.593619  0  2.224398  0  0  -0.320339  -0.543325  0  2.240981  0
O  O67  1  0.50108404  0.78500962  0.28287707  1  0  -0.622266  0  1.982975  0  0  -0.564088  0  2.234825  0  0  -0.593619  0  2.22452  0  0  -0.320375  -0.543329  0  2.241104  0
O  O68  1  0.46004514  0.98384886  0.73678612  1  0  -0.634169  0  1.972584  0  0  -0.573061  0  2.188288  0  0  -0.599011  0  2.179186  0  0  -0.314597  -0.554663  0  2.193775  0
O  O69  1  0.53994984  0.01615353  0.26320945  1  0  -0.634169  0  1.972661  0  0  -0.573037  0  2.188368  0  0  -0.598991  0  2.179271  0  0  -0.314551  -0.55462  0  2.193807  0
O  O70  1  0.34277186  0.58547747  0.53125481  1  0  -0.687101  0  2.068882  0  0  -0.605494  0  2.3381  0  0  -0.640502  0  2.326875  0  0  -0.328596  -0.580647  0  2.344749  0
O  O71  1  0.65723068  0.41452240  0.46874414  1  0  -0.687122  0  2.068951  0  0  -0.60549  0  2.338157  0  0  -0.640501  0  2.326934  0  0  -0.328561  -0.580642  0  2.344803  0
O  O72  1  0.11799406  0.54859127  0.54260184  1  0  -0.588945  0  1.916462  0  0  -0.542586  0  2.145659  0  0  -0.566806  0  2.137017  0  0  -0.306277  -0.525335  0  2.150934  0
O  O73  1  0.88200849  0.45140869  0.45740444  1  0  -0.58901  0  1.916434  0  0  -0.542646  0  2.145644  0  0  -0.566867  0  2.137002  0  0  -0.306293  -0.525396  0  2.150922  0
O  O74  1  0.26787328  0.17575418  0.55314893  1  0  -0.850881  0  1.910294  0  0  -0.786098  0  2.105177  0  0  -0.808082  0  2.075646  0  0  -0.565185  -0.770465  0  2.125546  0
O  O75  1  0.73212655  0.82424695  0.44684831  1  0  -0.850897  0  1.910241  0  0  -0.786132  0  2.10512  0  0  -0.808112  0  2.075588  0  0  -0.565231  -0.770502  0  2.125489  0
O  O76  1  0.65051359  0.01720483  0.57298729  1  0  -0.843618  0  1.865718  0  0  -0.782906  0  2.063488  0  0  -0.80656  0  2.032649  0  0  -0.589925  -0.766169  0  2.084996  0
O  O77  1  0.34948895  0.98279505  0.42701165  1  0  -0.843656  0  1.86572  0  0  -0.782949  0  2.063483  0  0  -0.806601  0  2.032644  0  0  -0.58992  -0.766212  0  2.084992  0
