# generated using pymatgen
data_CuH4C2SCl
_symmetry_space_group_name_H-M   'P 1'
_cell_length_a   6.64701899
_cell_length_b   10.40043555
_cell_length_c   11.92649966
_cell_angle_alpha   90.00001045
_cell_angle_beta   97.48575066
_cell_angle_gamma   90.00018844
_symmetry_Int_Tables_number   1
_chemical_formula_structural   CuH4C2SCl
_chemical_formula_sum   'Cu8 H32 C16 S8 Cl8'
_cell_volume   817.47450764
_cell_formula_units_Z   8
loop_
 _symmetry_equiv_pos_site_id
 _symmetry_equiv_pos_as_xyz
  1  'x, y, z'
loop_
 _atom_site_type_symbol
 _atom_site_label
 _atom_site_symmetry_multiplicity
 _atom_site_fract_x
 _atom_site_fract_y
 _atom_site_fract_z
 _atom_site_occupancy
 _atom_site_pbe_bader_spin_density
 _atom_site_pbe_cm5_charge
 _atom_site_pbe_ddec_charge
 _atom_site_pbe_ddec_spin_density
 _atom_site_pbe_ddec_sum_bond_order
 _atom_site_pbe_magmom
Cu  Cu0  1  0.96495301  0.44946304  0.60189081  1  0  0.315835  0.206824  0  2.758011  0
Cu  Cu1  1  0.53504862  0.94946277  0.39811013  1  0  0.315818  0.2068  0  2.75798  0
Cu  Cu2  1  0.03504771  0.55053664  0.39811021  1  0  0.315835  0.206812  0  2.757993  0
Cu  Cu3  1  0.46495058  0.05053691  0.60188911  1  0  0.315838  0.206818  0  2.758002  0
Cu  Cu4  1  0.25823865  0.24569008  0.82329755  1  0  0.318475  0.188103  0  2.808737  0
Cu  Cu5  1  0.24176217  0.74569020  0.17670282  1  0  0.318435  0.188045  0  2.808764  0
Cu  Cu6  1  0.74176055  0.75430864  0.17670252  1  0  0.318466  0.188063  0  2.808702  0
Cu  Cu7  1  0.75824007  0.25430852  0.82329748  1  0  0.318473  0.188031  0  2.808771  0
H  H8  1  0.29720539  0.65083083  0.75108784  1  0  0.093496  0.115512  0  1.000191  0
H  H9  1  0.20279646  0.15083239  0.24891427  1  0  0.093481  0.115434  0  1.000147  0
H  H10  1  0.70279382  0.34916981  0.24891140  1  0  0.093473  0.115443  0  1.000206  0
H  H11  1  0.79720123  0.84917114  0.75108653  1  0  0.093488  0.115469  0  1.000195  0
H  H12  1  0.21902347  0.56798904  0.86974452  1  0  0.09992  0.126292  0  0.990186  0
H  H13  1  0.28097491  0.06798881  0.13025564  1  0  0.099903  0.126259  0  0.990217  0
H  H14  1  0.78097573  0.43201256  0.13025639  1  0  0.099916  0.126291  0  0.990175  0
H  H15  1  0.71901976  0.93201375  0.86974158  1  0  0.099934  0.126276  0  0.990203  0
H  H16  1  0.56648305  0.64871104  0.92250192  1  0  0.086398  0.112973  0  1.020497  0
H  H17  1  0.93351702  0.14871016  0.07749886  1  0  0.086392  0.112936  0  1.020438  0
H  H18  1  0.43351767  0.35128864  0.07749910  1  0  0.086368  0.112919  0  1.020457  0
H  H19  1  0.06647612  0.85128856  0.92249993  1  0  0.086391  0.11295  0  1.020444  0
H  H20  1  0.56922673  0.47879219  0.92010049  1  0  0.087883  0.092349  0  1.017328  0
H  H21  1  0.93077201  0.97879078  0.07990192  1  0  0.087883  0.092341  0  1.01733  0
H  H22  1  0.43077247  0.52120652  0.07989959  1  0  0.087904  0.092355  0  1.017316  0
H  H23  1  0.06922415  0.02120794  0.92009960  1  0  0.087904  0.092368  0  1.017324  0
H  H24  1  0.43798682  0.52916683  0.58389067  1  0  0.102312  0.139202  0  0.998111  0
H  H25  1  0.06201743  0.02916716  0.41610992  1  0  0.1023  0.139194  0  0.998147  0
H  H26  1  0.56201390  0.47082996  0.41610952  1  0  0.102333  0.139243  0  0.99821  0
H  H27  1  0.93798482  0.97083156  0.58388870  1  0  0.102336  0.139256  0  0.998164  0
H  H28  1  0.42909973  0.35603465  0.56780566  1  0  0.092084  0.141753  0  1.039391  0
H  H29  1  0.07090319  0.85603446  0.43219488  1  0  0.092088  0.141746  0  1.039381  0
H  H30  1  0.57090098  0.64396407  0.43219704  1  0  0.092113  0.141755  0  1.039381  0
H  H31  1  0.92910209  0.14396617  0.56780313  1  0  0.092087  0.141729  0  1.039368  0
H  H32  1  0.85810980  0.57336738  0.83608006  1  0  0.094778  0.122146  0  1.006923  0
H  H33  1  0.64189137  0.07336878  0.16392331  1  0  0.094786  0.122183  0  1.006894  0
H  H34  1  0.14189091  0.42663134  0.16392181  1  0  0.094801  0.122168  0  1.006961  0
H  H35  1  0.35810327  0.92662993  0.83607726  1  0  0.094729  0.122115  0  1.006919  0
H  H36  1  0.68773784  0.64875537  0.72673974  1  0  0.090994  0.113205  0  1.009152  0
H  H37  1  0.81226829  0.14875524  0.27326316  1  0  0.090989  0.113203  0  1.009141  0
H  H38  1  0.31226592  0.35124527  0.27326067  1  0  0.090975  0.11319  0  1.009157  0
H  H39  1  0.18773091  0.85124444  0.72673859  1  0  0.090964  0.113145  0  1.009198  0
C  C40  1  0.32757318  0.56766705  0.80769807  1  0  -0.147134  -0.156389  0  3.804601  0
C  C41  1  0.17242975  0.06766564  0.19230327  1  0  -0.147099  -0.156259  0  3.804453  0
C  C42  1  0.67242754  0.43233359  0.19230295  1  0  -0.147109  -0.156299  0  3.804484  0
C  C43  1  0.82756795  0.93233500  0.80769501  1  0  -0.147164  -0.156291  0  3.804564  0
C  C44  1  0.54499158  0.56461261  0.86615308  1  0  -0.175408  -0.141431  0  3.928504  0
C  C45  1  0.95500955  0.06461082  0.13384944  1  0  -0.175408  -0.141387  0  3.928455  0
C  C46  1  0.45500761  0.43538803  0.13384867  1  0  -0.175438  -0.141432  0  3.928464  0
C  C47  1  0.04498813  0.93538885  0.86615052  1  0  -0.175416  -0.141473  0  3.928433  0
C  C48  1  0.45374969  0.43625247  0.62801108  1  0  -0.14905  -0.215469  0  3.785731  0
C  C49  1  0.04625364  0.93625223  0.37198951  1  0  -0.149061  -0.215467  0  3.785655  0
C  C50  1  0.54625103  0.56374528  0.37198995  1  0  -0.149115  -0.215581  0  3.785775  0
C  C51  1  0.95375012  0.06374649  0.62800839  1  0  -0.149082  -0.215565  0  3.785797  0
C  C52  1  0.70656630  0.56850972  0.78732298  1  0  -0.153007  -0.166686  0  3.83328  0
C  C53  1  0.79343639  0.06850857  0.21267798  1  0  -0.153029  -0.166754  0  3.833417  0
C  C54  1  0.29343595  0.43149092  0.21267648  1  0  -0.153012  -0.166724  0  3.833416  0
C  C55  1  0.20656130  0.93149206  0.78732282  1  0  -0.152909  -0.166539  0  3.833293  0
S  S56  1  0.70906765  0.42252064  0.70307805  1  0  -0.077457  0.071008  0  3.80894  0
S  S57  1  0.79093383  0.92252185  0.29692456  1  0  -0.077446  0.07101  0  3.808888  0
S  S58  1  0.29093458  0.57747904  0.29692393  1  0  -0.07744  0.071053  0  3.808933  0
S  S59  1  0.20906689  0.07747975  0.70307563  1  0  -0.077474  0.070943  0  3.808991  0
S  S60  1  0.26029702  0.42607867  0.72076217  1  0  -0.072287  0.076408  0  3.795898  0
S  S61  1  0.23970626  0.92607689  0.27923925  1  0  -0.072273  0.076419  0  3.795806  0
S  S62  1  0.73970370  0.57392197  0.27923969  1  0  -0.072265  0.076456  0  3.795803  0
S  S63  1  0.76029751  0.07392375  0.72075781  1  0  -0.072293  0.076444  0  3.795776  0
Cl  Cl64  1  0.53473231  0.17578658  0.94525049  1  0  -0.2967  -0.398178  0  1.674372  0
Cl  Cl65  1  0.96526638  0.67578715  0.05475019  1  0  -0.296675  -0.398167  0  1.674381  0
Cl  Cl66  1  0.46526690  0.82421214  0.05474958  1  0  -0.296698  -0.398168  0  1.674346  0
Cl  Cl67  1  0.03473586  0.32421156  0.94525094  1  0  -0.296669  -0.398134  0  1.674373  0
Cl  Cl68  1  0.01558522  0.32746424  0.44715716  1  0  -0.311117  -0.427563  0  1.619013  0
Cl  Cl69  1  0.48441755  0.82746496  0.55284253  1  0  -0.311118  -0.427574  0  1.619039  0
Cl  Cl70  1  0.98441550  0.67253352  0.55284303  1  0  -0.311118  -0.427559  0  1.619046  0
Cl  Cl71  1  0.51558318  0.17253568  0.44715598  1  0  -0.311108  -0.427547  0  1.619012  0
