# generated using pymatgen
data_RbH4C7O2
_symmetry_space_group_name_H-M   'P 1'
_cell_length_a   7.01450812
_cell_length_b   6.98788488
_cell_length_c   14.34611525
_cell_angle_alpha   89.99993500
_cell_angle_beta   92.71081494
_cell_angle_gamma   89.99986355
_symmetry_Int_Tables_number   1
_chemical_formula_structural   RbH4C7O2
_chemical_formula_sum   'Rb4 H16 C28 O8'
_cell_volume   702.41053567
_cell_formula_units_Z   4
loop_
 _symmetry_equiv_pos_site_id
 _symmetry_equiv_pos_as_xyz
  1  'x, y, z'
loop_
 _atom_site_type_symbol
 _atom_site_label
 _atom_site_symmetry_multiplicity
 _atom_site_fract_x
 _atom_site_fract_y
 _atom_site_fract_z
 _atom_site_occupancy
 _atom_site_hle17_bader_spin_density
 _atom_site_hle17_ddec_charge
 _atom_site_hle17_ddec_spin_density
 _atom_site_hle17_ddec_sum_bond_order
 _atom_site_hle17_magmom
 _atom_site_hse06_10hf_bader_spin_density
 _atom_site_hse06_10hf_ddec_charge
 _atom_site_hse06_10hf_ddec_spin_density
 _atom_site_hse06_10hf_ddec_sum_bond_order
 _atom_site_hse06_10hf_magmom
 _atom_site_hse06_bader_spin_density
 _atom_site_hse06_ddec_charge
 _atom_site_hse06_ddec_spin_density
 _atom_site_hse06_ddec_sum_bond_order
 _atom_site_hse06_magmom
 _atom_site_pbe_bader_spin_density
 _atom_site_pbe_cm5_charge
 _atom_site_pbe_ddec_charge
 _atom_site_pbe_ddec_spin_density
 _atom_site_pbe_ddec_sum_bond_order
 _atom_site_pbe_magmom
Rb  Rb0  1  0.72585984  0.00960038  0.91741763  1  0  0.943548  0  0.534754  0  0  0.897414  0  0.742792  0  0  0.912376  0  0.720095  0  0  0.827962  0.886141  0  0.75904  0
Rb  Rb1  1  0.77414303  0.50959953  0.08258251  1  0  0.943559  0  0.534755  0  0  0.897417  0  0.7428  0  0  0.91238  0  0.720103  0  0  0.827961  0.886144  0  0.759048  0
Rb  Rb2  1  0.27414281  0.99039940  0.08258239  1  0  0.94356  0  0.534756  0  0  0.897426  0  0.742786  0  0  0.912389  0  0.720088  0  0  0.827957  0.886153  0  0.759033  0
Rb  Rb3  1  0.22585963  0.49040025  0.91741821  1  0  0.94355  0  0.534761  0  0  0.897418  0  0.742796  0  0  0.91238  0  0.7201  0  0  0.827958  0.886145  0  0.759044  0
H  H4  1  0.84576330  0.28029756  0.70601165  1  0  0.092464  0  0.974455  0  0  0.098611  0  1.043587  0  0  0.101425  0  1.043066  0  0  0.103927  0.096482  0  1.044135  0
H  H5  1  0.65423605  0.78029650  0.29398758  1  0  0.092437  0  0.974503  0  0  0.098586  0  1.043635  0  0  0.101401  0  1.043115  0  0  0.103925  0.096456  0  1.044185  0
H  H6  1  0.15423792  0.71970365  0.29398764  1  0  0.092462  0  0.974493  0  0  0.098611  0  1.043624  0  0  0.101426  0  1.043104  0  0  0.103931  0.096482  0  1.044172  0
H  H7  1  0.34576376  0.21970185  0.70601309  1  0  0.09245  0  0.974459  0  0  0.098597  0  1.043587  0  0  0.101412  0  1.043066  0  0  0.10392  0.096468  0  1.044136  0
H  H8  1  0.74346959  0.27596180  0.54044108  1  0  0.086237  0  0.988645  0  0  0.097077  0  1.050565  0  0  0.099462  0  1.050593  0  0  0.09631  0.095364  0  1.050622  0
H  H9  1  0.75653264  0.77596297  0.45956030  1  0  0.086245  0  0.988649  0  0  0.097074  0  1.050581  0  0  0.099462  0  1.050605  0  0  0.096304  0.095362  0  1.050638  0
H  H10  1  0.25653307  0.72403655  0.45955964  1  0  0.086311  0  0.98857  0  0  0.0971  0  1.050543  0  0  0.099488  0  1.050566  0  0  0.096315  0.095388  0  1.0506  0
H  H11  1  0.24346859  0.22403825  0.54044039  1  0  0.086245  0  0.988639  0  0  0.097078  0  1.050563  0  0  0.099464  0  1.050591  0  0  0.096309  0.095365  0  1.05062  0
H  H12  1  0.34016945  0.72961309  0.59020191  1  0  0.088407  0  0.990358  0  0  0.098041  0  1.054107  0  0  0.100111  0  1.054955  0  0  0.09669  0.09654  0  1.053649  0
H  H13  1  0.15982647  0.22961387  0.40979661  1  0  0.088449  0  0.990269  0  0  0.098079  0  1.054027  0  0  0.100151  0  1.054872  0  0  0.096697  0.096579  0  1.053569  0
H  H14  1  0.65983036  0.27038383  0.40979875  1  0  0.08845  0  0.990284  0  0  0.098042  0  1.054087  0  0  0.100113  0  1.054934  0  0  0.096669  0.096542  0  1.053629  0
H  H15  1  0.84017045  0.77038592  0.59020190  1  0  0.088396  0  0.990311  0  0  0.098024  0  1.05407  0  0  0.100095  0  1.054919  0  0  0.096678  0.096524  0  1.053612  0
H  H16  1  0.44631143  0.73071038  0.75475992  1  0  0.086391  0  0.983219  0  0  0.092986  0  1.053072  0  0  0.096217  0  1.051368  0  0  0.104377  0.090565  0  1.054437  0
H  H17  1  0.05368733  0.23070894  0.24523796  1  0  0.086354  0  0.983197  0  0  0.09295  0  1.053054  0  0  0.096181  0  1.051349  0  0  0.104383  0.090525  0  1.05443  0
H  H18  1  0.55368980  0.26928797  0.24524007  1  0  0.086403  0  0.983193  0  0  0.093002  0  1.053039  0  0  0.096232  0  1.051336  0  0  0.104379  0.090579  0  1.054408  0
H  H19  1  0.94631244  0.76928941  0.75475991  1  0  0.086364  0  0.983184  0  0  0.092955  0  1.053048  0  0  0.096186  0  1.051345  0  0  0.104371  0.090531  0  1.054423  0
C  C20  1  0.70789053  0.50428379  0.84581889  1  0  0.644125  0  3.995813  0  0  0.601786  0  4.292817  0  0  0.63535  0  4.282627  0  0  0.171074  0.579023  0  4.298905  0
C  C21  1  0.79210663  0.00427771  0.15418045  1  0  0.644271  0  3.995822  0  0  0.601957  0  4.292796  0  0  0.635521  0  4.282599  0  0  0.171121  0.579191  0  4.29889  0
C  C22  1  0.29210786  0.49572172  0.15418244  1  0  0.64429  0  3.99572  0  0  0.601974  0  4.292708  0  0  0.635539  0  4.28251  0  0  0.171121  0.579208  0  4.298801  0
C  C23  1  0.20789315  0.99572065  0.84581882  1  0  0.644249  0  3.995886  0  0  0.601935  0  4.292863  0  0  0.635498  0  4.282667  0  0  0.171117  0.579168  0  4.298958  0
C  C24  1  0.65076849  0.50363572  0.74277758  1  0  -0.073368  0  3.75152  0  0  -0.050348  0  3.981015  0  0  -0.057133  0  4.002326  0  0  -0.017296  -0.046016  0  3.966636  0
C  C25  1  0.84923153  0.00363354  0.25722252  1  0  -0.073321  0  3.751384  0  0  -0.050355  0  3.980961  0  0  -0.057137  0  4.00227  0  0  -0.017276  -0.046022  0  3.966582  0
C  C26  1  0.34922991  0.49636550  0.25722445  1  0  -0.073257  0  3.751373  0  0  -0.050285  0  3.98094  0  0  -0.057069  0  4.00225  0  0  -0.017282  -0.045952  0  3.966559  0
C  C27  1  0.15077111  0.99636481  0.74277681  1  0  -0.073332  0  3.75137  0  0  -0.050367  0  3.980937  0  0  -0.057149  0  4.002246  0  0  -0.017316  -0.046035  0  3.966559  0
C  C28  1  0.73404709  0.37796676  0.68029128  1  0  -0.066152  0  3.736651  0  0  -0.085232  0  3.97945  0  0  -0.084799  0  3.999187  0  0  -0.078914  -0.085238  0  3.966071  0
C  C29  1  0.76595060  0.87796394  0.31970926  1  0  -0.066141  0  3.736671  0  0  -0.085211  0  3.979489  0  0  -0.08478  0  3.999229  0  0  -0.078925  -0.085217  0  3.966113  0
C  C30  1  0.26595129  0.62203588  0.31970936  1  0  -0.066212  0  3.736648  0  0  -0.085287  0  3.979458  0  0  -0.084855  0  3.999197  0  0  -0.078957  -0.085294  0  3.966081  0
C  C31  1  0.23404920  0.12203441  0.68029140  1  0  -0.066188  0  3.736623  0  0  -0.085252  0  3.979434  0  0  -0.084821  0  3.999171  0  0  -0.078941  -0.085259  0  3.966057  0
C  C32  1  0.67561880  0.37706395  0.58614795  1  0  -0.111603  0  3.718321  0  0  -0.12781  0  3.960844  0  0  -0.131425  0  3.981453  0  0  -0.089444  -0.125335  0  3.94677  0
C  C33  1  0.82438031  0.87706506  0.41385122  1  0  -0.11163  0  3.718332  0  0  -0.12783  0  3.960848  0  0  -0.131446  0  3.981458  0  0  -0.089451  -0.125357  0  3.946776  0
C  C34  1  0.32438101  0.62293440  0.41385271  1  0  -0.111678  0  3.718228  0  0  -0.127848  0  3.960766  0  0  -0.131465  0  3.981377  0  0  -0.089445  -0.125376  0  3.946696  0
C  C35  1  0.17561948  0.12293472  0.58614805  1  0  -0.111602  0  3.718264  0  0  -0.127803  0  3.960789  0  0  -0.131419  0  3.981398  0  0  -0.089434  -0.125329  0  3.946716  0
C  C36  1  0.53182494  0.50156107  0.55009777  1  0  0.045118  0  3.766143  0  0  0.058496  0  4.000368  0  0  0.059771  0  4.022206  0  0  -0.007571  0.057702  0  3.985481  0
C  C37  1  0.96817508  0.00156388  0.44990162  1  0  0.045075  0  3.766183  0  0  0.058473  0  4.000384  0  0  0.059749  0  4.022223  0  0  -0.007585  0.05768  0  3.985498  0
C  C38  1  0.46817487  0.49843728  0.44990289  1  0  0.045127  0  3.766079  0  0  0.058517  0  4.000277  0  0  0.059793  0  4.022116  0  0  -0.007568  0.057725  0  3.98539  0
C  C39  1  0.03182470  0.99843877  0.55009695  1  0  0.045134  0  3.766088  0  0  0.058511  0  4.000307  0  0  0.059786  0  4.022146  0  0  -0.007559  0.057718  0  3.985421  0
C  C40  1  0.45116034  0.62919198  0.61341659  1  0  -0.111058  0  3.729005  0  0  -0.126526  0  3.971859  0  0  -0.130134  0  3.993031  0  0  -0.088315  -0.124074  0  3.957424  0
C  C41  1  0.04883725  0.12919165  0.38658202  1  0  -0.111152  0  3.729046  0  0  -0.126627  0  3.97191  0  0  -0.130236  0  3.993082  0  0  -0.08833  -0.124175  0  3.957474  0
C  C42  1  0.54883945  0.37080351  0.38658268  1  0  -0.11111  0  3.728994  0  0  -0.126554  0  3.971853  0  0  -0.130163  0  3.993025  0  0  -0.08832  -0.124103  0  3.957418  0
C  C43  1  0.95116253  0.87080670  0.61341655  1  0  -0.111041  0  3.72893  0  0  -0.126506  0  3.971783  0  0  -0.130115  0  3.992955  0  0  -0.088291  -0.124054  0  3.957347  0
C  C44  1  0.51004194  0.62998746  0.70732423  1  0  -0.086395  0  3.774759  0  0  -0.107448  0  4.021294  0  0  -0.107711  0  4.042149  0  0  -0.085868  -0.106975  0  4.007143  0
C  C45  1  0.98995633  0.12998487  0.29267437  1  0  -0.086305  0  3.774685  0  0  -0.107344  0  4.021237  0  0  -0.107608  0  4.042092  0  0  -0.085891  -0.106873  0  4.007082  0
C  C46  1  0.48995786  0.37001232  0.29267644  1  0  -0.086449  0  3.774801  0  0  -0.107488  0  4.021341  0  0  -0.107752  0  4.042197  0  0  -0.085877  -0.107015  0  4.007189  0
C  C47  1  0.01004488  0.87001348  0.70732423  1  0  -0.086357  0  3.774655  0  0  -0.107395  0  4.021208  0  0  -0.107658  0  4.042063  0  0  -0.085867  -0.106924  0  4.007054  0
O  O48  1  0.61825343  0.61830976  0.89775662  1  0  -0.772596  0  1.973766  0  0  -0.72704  0  2.219061  0  0  -0.75029  0  2.207768  0  0  -0.521879  -0.710593  0  2.226301  0
O  O49  1  0.88174204  0.11830501  0.10224402  1  0  -0.772679  0  1.973906  0  0  -0.727114  0  2.21915  0  0  -0.750366  0  2.207854  0  0  -0.521868  -0.710664  0  2.226393  0
O  O50  1  0.38174353  0.38169432  0.10224469  1  0  -0.772754  0  1.973832  0  0  -0.727194  0  2.219099  0  0  -0.750444  0  2.207799  0  0  -0.52191  -0.710745  0  2.226343  0
O  O51  1  0.11825919  0.88169477  0.89775667  1  0  -0.77269  0  1.973932  0  0  -0.727129  0  2.219182  0  0  -0.75038  0  2.207887  0  0  -0.521883  -0.710679  0  2.226426  0
O  O52  1  0.84004517  0.39106336  0.87491101  1  0  -0.765106  0  1.961041  0  0  -0.719992  0  2.20414  0  0  -0.743206  0  2.19283  0  0  -0.511046  -0.703569  0  2.211376  0
O  O53  1  0.65995109  0.89105553  0.12509089  1  0  -0.765189  0  1.961094  0  0  -0.720075  0  2.204171  0  0  -0.743291  0  2.192858  0  0  -0.511078  -0.70365  0  2.211409  0
O  O54  1  0.15995324  0.60894358  0.12509172  1  0  -0.765157  0  1.961124  0  0  -0.720041  0  2.204209  0  0  -0.743256  0  2.192897  0  0  -0.511029  -0.703616  0  2.211445  0
O  O55  1  0.34004870  0.10894282  0.87490838  1  0  -0.765151  0  1.961126  0  0  -0.720035  0  2.204198  0  0  -0.743251  0  2.192887  0  0  -0.511041  -0.70361  0  2.211437  0
