# generated using pymatgen
data_ZnH18C29SN2O15
_symmetry_space_group_name_H-M   'P 1'
_cell_length_a   14.46081122
_cell_length_b   15.73476769
_cell_length_c   23.86111719
_cell_angle_alpha   89.88097449
_cell_angle_beta   90.16257841
_cell_angle_gamma   88.42305619
_symmetry_Int_Tables_number   1
_chemical_formula_structural   ZnH18C29SN2O15
_chemical_formula_sum   'Zn2 H36 C58 S2 N4 O30'
_cell_volume   5427.20837042
_cell_formula_units_Z   2
loop_
 _symmetry_equiv_pos_site_id
 _symmetry_equiv_pos_as_xyz
  1  'x, y, z'
loop_
 _atom_site_type_symbol
 _atom_site_label
 _atom_site_symmetry_multiplicity
 _atom_site_fract_x
 _atom_site_fract_y
 _atom_site_fract_z
 _atom_site_occupancy
 _atom_site_pbe_bader_charge
 _atom_site_pbe_bader_spin_density
 _atom_site_pbe_cm5_charge
 _atom_site_pbe_ddec_charge
 _atom_site_pbe_ddec_spin_density
 _atom_site_pbe_ddec_sum_bond_order
 _atom_site_pbe_magmom
Zn  Zn0  1  0.39524715  0.50493186  0.50783568  1  1.318775  0  0.712349  0.908217  0  2.376773  0
Zn  Zn1  1  0.59423245  0.50309613  0.51776949  1  1.331539  0  0.712205  0.906692  0  2.431183  0
H  H2  1  0.41891413  0.70416320  0.07143020  1  0.125911  0  0.122076  0.12782  0  0.972107  0
H  H3  1  0.67821299  0.54282520  0.32332953  1  0.101695  0  0.114847  0.120513  0  0.987027  0
H  H4  1  0.41155922  0.42988219  0.21774241  1  0.088669  0  0.12035  0.134095  0  0.967315  0
H  H5  1  0.41822675  0.09025363  0.41983587  1  0.077473  0  0.118813  0.115653  0  0.943759  0
H  H6  1  0.57205953  0.07225373  0.42205705  1  0.078038  0  0.1174  0.111581  0  0.947214  0
H  H7  1  0.42716097  0.94441645  0.40793370  1  0.049302  0  0.10207  0.108558  0  0.963936  0
H  H8  1  0.60721400  0.92782023  0.42826061  1  0.051359  0  0.10349  0.111071  0  0.965815  0
H  H9  1  0.64109472  0.93262430  0.49945786  1  0.052802  0  0.100202  0.104469  0  0.97449  0
H  H10  1  0.34984365  0.93094256  0.46422569  1  0.068072  0  0.10189  0.110187  0  0.982303  0
H  H11  1  0.40920600  0.92497363  0.56309430  1  0.057749  0  0.096439  0.100312  0  0.980774  0
H  H12  1  0.52923021  0.91112430  0.57677344  1  0.038618  0  0.095617  0.095574  0  0.974606  0
H  H13  1  0.42692322  0.06983998  0.57920109  1  0.055709  0  0.094844  0.100052  0  0.992938  0
H  H14  1  0.54852699  0.05811694  0.58071171  1  0.064412  0  0.097195  0.110531  0  0.998344  0
H  H15  1  0.06846243  0.61953957  0.43754959  1  0.128859  0  0.114104  0.139873  0  0.973965  0
H  H16  1  0.91516145  0.57243561  0.42159191  1  0.081947  0  0.105947  0.126164  0  0.97112  0
H  H17  1  0.40284272  0.71380631  0.96585854  1  0.117607  0  0.120567  0.126119  0  0.973985  0
H  H18  1  0.94160336  0.36197034  0.48711365  1  0.105931  0  0.120315  0.124122  0  0.963447  0
H  H19  1  0.08059974  0.37114504  0.44985802  1  0.11407  0  0.125813  0.137266  0  0.952715  0
H  H20  1  0.92858607  0.42645977  0.57389514  1  0.113855  0  0.124872  0.124921  0  0.932553  0
H  H21  1  0.07558486  0.39940843  0.54599618  1  0.089612  0  0.119523  0.119281  0  0.946217  0
H  H22  1  0.89547060  0.63378753  0.48320707  1  0.087235  0  0.112775  0.132661  0  0.964084  0
H  H23  1  0.05256092  0.62761840  0.51135248  1  0.104579  0  0.106688  0.126149  0  0.982512  0
H  H24  1  0.61658227  0.33051813  0.94050239  1  0.152394  0  0.120652  0.126256  0  0.974586  0
H  H25  1  0.63006031  0.31969338  0.04636487  1  0.118084  0  0.122046  0.128031  0  0.972088  0
H  H26  1  0.39284796  0.42632159  0.79796922  1  0.10478  0  0.11607  0.128134  0  0.973821  0
H  H27  1  0.56708578  0.63167264  0.68363183  1  0.096483  0  0.114249  0.119887  0  0.977178  0
H  H28  1  0.57466441  0.63743561  0.78852708  1  0.055097  0  0.115394  0.123246  0  0.971922  0
H  H29  1  0.67202200  0.55551094  0.21936351  1  0.071026  0  0.118494  0.126505  0  0.967519  0
H  H30  1  0.26564646  0.39046582  0.33086091  1  0.65204  0  0.320317  0.38457  0  0.906641  0
H  H31  1  0.74691989  0.11964160  0.54420945  1  0.617217  0  0.346464  0.381491  0  0.852985  0
H  H32  1  0.22267352  0.07113699  0.53389108  1  0.614122  0  0.343551  0.374519  0  0.862324  0
H  H33  1  0.68596156  0.46522504  0.40077469  1  0.668076  0  0.316055  0.383641  0  0.938862  0
H  H34  1  0.95428685  0.40518503  0.33911660  1  0.647868  0  0.306185  0.376906  0  0.966757  0
H  H35  1  0.93395116  0.57619033  0.67410725  1  0.607802  0  0.3583  0.398174  0  0.82857  0
H  H36  1  0.22199336  0.47783913  0.63760236  1  0.639843  0  0.339126  0.393239  0  0.86131  0
H  H37  1  0.26640556  0.33800177  0.68691025  1  0.61803  0  0.346617  0.385625  0  0.846617  0
C  C38  1  0.49601867  0.65956225  0.48926339  1  1.678316  0  0.226956  0.688058  0  4.214142  0
C  C39  1  0.44477739  0.65310872  0.04438882  1  -0.007577  0  -0.05872  -0.066564  0  3.921685  0
C  C40  1  0.43596094  0.65846521  0.98581382  1  0.016129  0  -0.059384  -0.066048  0  3.924697  0
C  C41  1  0.46930124  0.59281933  0.95188785  1  -0.117429  0  -0.003812  -0.061072  0  3.984312  0
C  C42  1  0.51266083  0.51982872  0.97628460  1  0.034558  0  0.005094  0.031597  0  4.0015  0
C  C43  1  0.54796984  0.45224364  0.94287910  1  -0.118256  0  -0.004747  -0.062054  0  3.996862  0
C  C44  1  0.59011120  0.38113380  0.96767563  1  -0.009298  0  -0.059786  -0.066754  0  3.929845  0
C  C45  1  0.59770665  0.37520639  0.02619347  1  0.040105  0  -0.059176  -0.066621  0  3.925561  0
C  C46  1  0.45848257  0.59918683  0.89017067  1  1.367802  0  0.244566  0.435182  0  4.09729  0
C  C47  1  0.54022796  0.45649670  0.88114548  1  1.361644  0  0.243974  0.433294  0  4.100467  0
C  C48  1  0.42969034  0.47211796  0.77275150  1  -0.011532  0  -0.072966  -0.160888  0  3.923924  0
C  C49  1  0.47499185  0.52313085  0.61931364  1  1.564709  0  0.222689  0.606669  0  4.17853  0
C  C50  1  0.42659716  0.46809929  0.71430549  1  0.040281  0  -0.004844  -0.031221  0  3.947012  0
C  C51  1  0.47621582  0.52608288  0.68211792  1  0.033558  0  0.000443  -0.031355  0  3.91736  0
C  C52  1  0.52862845  0.58731524  0.70910564  1  0.009646  0  -0.072938  -0.075959  0  3.960169  0
C  C53  1  0.53300538  0.59053010  0.76736378  1  0.034984  0  -0.073382  -0.135953  0  3.960898  0
C  C54  1  0.48417118  0.53211171  0.79879269  1  0.307027  0  0.092723  0.19478  0  4.024481  0
C  C55  1  0.61692840  0.52475208  0.24213806  1  0.05726  0  -0.0716  -0.134997  0  3.946034  0
C  C56  1  0.62033210  0.51674293  0.30028427  1  -0.02887  0  -0.070604  -0.071336  0  3.955675  0
C  C57  1  0.54864076  0.47785035  0.32916494  1  0.000346  0  -0.003836  -0.072764  0  3.953002  0
C  C58  1  0.47309533  0.44519771  0.29941289  1  0.026724  0  0.012644  0.008548  0  3.890797  0
C  C59  1  0.46979452  0.45416785  0.24129895  1  0.047099  0  -0.066515  -0.159051  0  3.895053  0
C  C60  1  0.49187184  0.34467967  0.51166028  1  1.602179  0  0.237483  0.694636  0  4.191889  0
C  C61  1  0.54126150  0.49378949  0.21330751  1  0.263728  0  0.098954  0.208925  0  4.020714  0
C  C62  1  0.41512623  0.95971030  0.45224375  1  -0.058257  0  -0.148422  -0.208907  0  3.818429  0
C  C63  1  0.58778385  0.95402564  0.46928252  1  -0.025711  0  -0.146601  -0.208709  0  3.828029  0
C  C64  1  0.58094725  0.05262684  0.46598104  1  -0.000758  0  -0.070033  -0.15648  0  3.777164  0
C  C65  1  0.40983722  0.05773460  0.46017679  1  0.027154  0  -0.069117  -0.154049  0  3.758316  0
C  C66  1  0.49398676  0.25353670  0.50886850  1  0.386641  0  -0.037607  -0.168503  0  3.933915  0
C  C67  1  0.49393135  0.91952475  0.48837335  1  0.124068  0  0.002352  0.173897  0  3.910284  0
C  C68  1  0.49289727  0.08523295  0.49840613  1  0.12023  0  0.015665  0.156777  0  3.835126  0
C  C69  1  0.48665468  0.04238649  0.55681236  1  -0.028898  0  -0.160636  -0.198769  0  3.841802  0
C  C70  1  0.47805269  0.94537615  0.55042772  1  -0.029844  0  -0.152639  -0.1849  0  3.842317  0
C  C71  1  0.49323448  0.17684758  0.50413423  1  -0.566978  0  -0.017116  -0.029772  0  4.007545  0
C  C72  1  0.49452684  0.82769852  0.48455739  1  -0.339542  0  -0.013537  -0.016322  0  4.015898  0
C  C73  1  0.54570919  0.48088597  0.39137518  1  1.542114  0  0.250041  0.616955  0  4.054666  0
C  C74  1  0.49570467  0.75050003  0.48385039  1  0.046628  0  -0.058562  -0.219782  0  3.988937  0
C  C75  1  0.93381649  0.57904929  0.46597263  1  -0.039154  0  -0.150761  -0.19034  0  3.822531  0
C  C76  1  0.03790011  0.58941030  0.47413251  1  -0.053439  0  -0.15406  -0.205353  0  3.82978  0
C  C77  1  0.94036347  0.41870002  0.46016535  1  -0.116355  0  -0.074025  -0.211459  0  3.713465  0
C  C78  1  0.04306180  0.43178817  0.44275413  1  -0.128209  0  -0.068312  -0.211697  0  3.685919  0
C  C79  1  0.90669949  0.49600981  0.49629122  1  0.13317  0  0.020305  0.095986  0  3.852742  0
C  C80  1  0.08291996  0.49969160  0.48322677  1  0.124873  0  0.02412  0.097282  0  3.846659  0
C  C81  1  0.06049485  0.46805452  0.54441864  1  -0.019195  0  -0.063161  -0.166508  0  3.742237  0
C  C82  1  0.95516133  0.48443703  0.55465611  1  -0.014346  0  -0.062218  -0.16583  0  3.756619  0
C  C83  1  0.18274870  0.50320757  0.47914545  1  0.915922  0  0.251045  0.322586  0  3.857377  0
C  C84  1  0.80836803  0.49675126  0.50759327  1  0.941095  0  0.247618  0.322284  0  3.8685  0
C  C85  1  0.57168095  0.43264677  0.12167672  1  1.339717  0  0.246084  0.438947  0  4.102392  0
C  C86  1  0.49457094  0.57719679  0.13128068  1  1.313811  0  0.246275  0.439635  0  4.100243  0
C  C87  1  0.48661286  0.58193709  0.06928991  1  0.052099  0  -0.000224  -0.053753  0  3.97444  0
C  C88  1  0.52106527  0.51412631  0.03568978  1  -0.053092  0  0.005317  0.030194  0  3.997215  0
C  C89  1  0.56361939  0.44064874  0.05993245  1  0.012293  0  -0.000459  -0.053958  0  3.978363  0
C  C90  1  0.39945902  0.39520948  0.32810893  1  1.559129  0  0.22971  0.575811  0  4.148941  0
C  C91  1  0.67271292  0.08973279  0.48270093  1  1.502858  0  0.232196  0.597292  0  4.077506  0
C  C92  1  0.31680914  0.09101148  0.48128611  1  1.487407  0  0.230923  0.593472  0  4.057563  0
C  C93  1  0.93135471  0.55588408  0.59596850  1  1.527928  0  0.233251  0.589001  0  4.092811  0
C  C94  1  0.12289592  0.50928016  0.58773368  1  1.547506  0  0.228977  0.585124  0  4.114989  0
C  C95  1  0.38015794  0.39490225  0.68754288  1  1.495121  0  0.233024  0.574884  0  4.120405  0
S  S96  1  0.84972261  0.38390177  0.40988545  1  3.208256  0  0.510519  1.141851  0  6.147712  0
S  S97  1  0.08318416  0.45378190  0.36912020  1  3.137747  0  0.535325  1.152731  0  5.988366  0
N  N98  1  0.53614204  0.50190946  0.15309304  1  -1.148641  0  -0.230664  -0.231207  0  3.587802  0
N  N99  1  0.49369571  0.52939926  0.85885262  1  -1.208648  0  -0.23027  -0.210908  0  3.559587  0
N  N100  1  0.26240161  0.50637404  0.48278959  1  -1.169737  0  -0.287981  -0.299106  0  3.111048  0
N  N101  1  0.73228686  0.50080661  0.52254516  1  -1.218581  0  -0.30142  -0.316105  0  3.129921  0
O  O102  1  0.41736032  0.62616252  0.49594546  1  -1.126951  0  -0.308582  -0.533811  0  2.299544  0
O  O103  1  0.57446522  0.62044132  0.48814060  1  -1.140462  0  -0.312858  -0.543807  0  2.295977  0
O  O104  1  0.39792456  0.51179346  0.59487781  1  -1.154495  0  -0.312351  -0.554499  0  2.287229  0
O  O105  1  0.55295728  0.53343854  0.59609927  1  -1.16207  0  -0.314979  -0.552799  0  2.326023  0
O  O106  1  0.41269173  0.38135589  0.50637182  1  -1.114274  0  -0.301015  -0.522036  0  2.305107  0
O  O107  1  0.56904166  0.38086125  0.51861431  1  -1.135801  0  -0.306828  -0.539811  0  2.30097  0
O  O108  1  0.47238767  0.49207336  0.41680421  1  -1.139295  0  -0.26137  -0.489837  0  2.254029  0
O  O109  1  0.62482820  0.47586131  0.42049043  1  -1.173333  0  -0.31612  -0.491087  0  2.444062  0
O  O110  1  0.60668246  0.37008039  0.14510250  1  -1.086743  0  -0.269754  -0.422962  0  2.054747  0
O  O111  1  0.46692062  0.63416386  0.16257386  1  -1.08977  0  -0.270416  -0.423136  0  2.055608  0
O  O112  1  0.42094939  0.66050446  0.86662304  1  -1.099469  0  -0.276016  -0.433454  0  2.063769  0
O  O113  1  0.57167487  0.40066538  0.85013889  1  -1.104055  0  -0.273396  -0.429811  0  2.071783  0
O  O114  1  0.41642500  0.33615253  0.36003458  1  -1.106989  0  -0.290747  -0.471143  0  2.064383  0
O  O115  1  0.31453240  0.42204246  0.31136712  1  -1.147534  0  -0.33641  -0.487014  0  2.253627  0
O  O116  1  0.73168481  0.10953745  0.44922155  1  -1.115891  0  -0.2918  -0.475519  0  2.048219  0
O  O117  1  0.68613866  0.09452062  0.53935627  1  -1.131127  0  -0.336706  -0.492315  0  2.234973  0
O  O118  1  0.27466574  0.15261369  0.46229111  1  -1.123612  0  -0.291616  -0.48014  0  2.049484  0
O  O119  1  0.28240325  0.04387525  0.52460801  1  -1.121744  0  -0.33807  -0.48982  0  2.229374  0
O  O120  1  0.90167514  0.34198745  0.36342626  1  -1.295578  0  -0.331121  -0.541415  0  2.166204  0
O  O121  1  0.79599963  0.32717579  0.44344928  1  -1.289621  0  -0.326211  -0.533289  0  2.123619  0
O  O122  1  0.79942110  0.46209711  0.39090689  1  -1.319915  0  -0.335877  -0.59973  0  2.208819  0
O  O123  1  0.12606205  0.53542355  0.36884064  1  -1.289086  0  -0.306544  -0.522867  0  2.147415  0
O  O124  1  0.14016447  0.37921520  0.35585735  1  -1.29464  0  -0.312725  -0.545355  0  2.141527  0
O  O125  1  0.99622680  0.46016369  0.33178408  1  -1.258615  0  -0.344339  -0.519045  0  2.236099  0
O  O126  1  0.89971108  0.62616285  0.58459354  1  -1.115525  0  -0.268377  -0.45576  0  2.089438  0
O  O127  1  0.94689452  0.52784515  0.64918811  1  -1.085208  0  -0.334391  -0.482825  0  2.201322  0
O  O128  1  0.12378307  0.58513697  0.59779093  1  -1.110589  0  -0.27673  -0.463596  0  2.086615  0
O  O129  1  0.17858741  0.44989112  0.61218236  1  -1.128666  0  -0.3301  -0.484523  0  2.254759  0
O  O130  1  0.41659424  0.34382216  0.65583979  1  -1.105927  0  -0.274945  -0.452104  0  2.06805  0
O  O131  1  0.28999305  0.38916545  0.70485147  1  -1.119207  0  -0.341656  -0.499942  0  2.214267  0
