# generated using pymatgen
data_ZnH20C27NO4F
_symmetry_space_group_name_H-M   'P 1'
_cell_length_a   10.36741089
_cell_length_b   11.01227751
_cell_length_c   11.83632718
_cell_angle_alpha   71.09945418
_cell_angle_beta   66.42282788
_cell_angle_gamma   65.27357451
_symmetry_Int_Tables_number   1
_chemical_formula_structural   ZnH20C27NO4F
_chemical_formula_sum   'Zn2 H40 C54 N2 O8 F2'
_cell_volume   1104.89002729
_cell_formula_units_Z   2
loop_
 _symmetry_equiv_pos_site_id
 _symmetry_equiv_pos_as_xyz
  1  'x, y, z'
loop_
 _atom_site_type_symbol
 _atom_site_label
 _atom_site_symmetry_multiplicity
 _atom_site_fract_x
 _atom_site_fract_y
 _atom_site_fract_z
 _atom_site_occupancy
 _atom_site_hle17_bader_spin_density
 _atom_site_hle17_ddec_charge
 _atom_site_hle17_ddec_spin_density
 _atom_site_hle17_ddec_sum_bond_order
 _atom_site_hle17_magmom
 _atom_site_hse06_10hf_bader_spin_density
 _atom_site_hse06_10hf_ddec_charge
 _atom_site_hse06_10hf_ddec_spin_density
 _atom_site_hse06_10hf_ddec_sum_bond_order
 _atom_site_hse06_10hf_magmom
 _atom_site_hse06_bader_spin_density
 _atom_site_hse06_ddec_charge
 _atom_site_hse06_ddec_spin_density
 _atom_site_hse06_ddec_sum_bond_order
 _atom_site_hse06_magmom
 _atom_site_pbe_bader_spin_density
 _atom_site_pbe_cm5_charge
 _atom_site_pbe_ddec_charge
 _atom_site_pbe_ddec_spin_density
 _atom_site_pbe_ddec_sum_bond_order
 _atom_site_pbe_magmom
Zn  Zn0  1  0.09769571  0.05476512  0.38914872  1  0  1.032984  0  1.882867  0  0  0.864555  0  2.349705  0  0  0.917174  0  2.284166  0  0  0.670393  0.828024  0  2.39426  0
Zn  Zn1  1  0.90230757  0.94523429  0.61084572  1  0  1.032986  0  1.882892  0  0  0.864586  0  2.349729  0  0  0.917206  0  2.284186  0  0  0.670397  0.828053  0  2.394274  0
H  H2  1  0.21227090  0.11580261  0.10342413  1  0  0.085363  0  0.935727  0  0  0.095384  0  0.998041  0  0  0.097539  0  0.996189  0  0  0.122374  0.093731  0  0.999458  0
H  H3  1  0.78773276  0.88419575  0.89657556  1  0  0.085404  0  0.935665  0  0  0.095403  0  0.998002  0  0  0.097565  0  0.996148  0  0  0.12237  0.09375  0  0.999414  0
H  H4  1  0.36937845  0.25202258  0.94057250  1  0  0.106929  0  0.945118  0  0  0.119429  0  1.003376  0  0  0.122343  0  1.002635  0  0  0.108819  0.117563  0  1.003466  0
H  H5  1  0.63062379  0.74797681  0.05942654  1  0  0.106943  0  0.945117  0  0  0.11944  0  1.003377  0  0  0.122356  0  1.002633  0  0  0.108827  0.117577  0  1.003469  0
H  H6  1  0.37176606  0.38867469  0.24319428  1  0  0.102623  0  0.982655  0  0  0.112992  0  1.043564  0  0  0.114777  0  1.045447  0  0  0.104657  0.111784  0  1.042248  0
H  H7  1  0.62823543  0.61132672  0.75680526  1  0  0.102658  0  0.982574  0  0  0.113036  0  1.043473  0  0  0.114823  0  1.045353  0  0  0.104669  0.111827  0  1.042157  0
H  H8  1  0.22013205  0.24516883  0.39125903  1  0  0.085741  0  0.94171  0  0  0.093238  0  1.007026  0  0  0.095827  0  1.004454  0  0  0.119915  0.091278  0  1.008936  0
H  H9  1  0.77987229  0.75483054  0.60874012  1  0  0.085728  0  0.941682  0  0  0.093218  0  1.007003  0  0  0.095812  0  1.00443  0  0  0.11992  0.09126  0  1.008912  0
H  H10  1  0.52011085  0.38907072  0.89204119  1  0  0.069125  0  0.958385  0  0  0.079323  0  1.023697  0  0  0.080652  0  1.023429  0  0  0.097757  0.078278  0  1.023842  0
H  H11  1  0.47989096  0.61093271  0.10796017  1  0  0.069136  0  0.958443  0  0  0.079312  0  1.023786  0  0  0.080639  0  1.023512  0  0  0.097792  0.07827  0  1.023929  0
H  H12  1  0.40950529  0.62338086  0.87653895  1  0  0.070819  0  0.944807  0  0  0.07862  0  1.014277  0  0  0.079856  0  1.014305  0  0  0.100822  0.077767  0  1.014175  0
H  H13  1  0.59049126  0.37662258  0.12346425  1  0  0.070802  0  0.944854  0  0  0.078615  0  1.014319  0  0  0.079853  0  1.014344  0  0  0.100819  0.077757  0  1.014221  0
H  H14  1  0.26355304  0.68342418  0.19697354  1  0  0.087317  0  0.987706  0  0  0.094702  0  1.0559  0  0  0.097105  0  1.055171  0  0  0.096106  0.09297  0  1.056406  0
H  H15  1  0.73644703  0.31657823  0.80303126  1  0  0.087386  0  0.987586  0  0  0.094756  0  1.055797  0  0  0.097166  0  1.055058  0  0  0.096126  0.093022  0  1.056302  0
H  H16  1  0.99794168  0.74246907  0.32070564  1  0  0.097084  0  0.94891  0  0  0.107875  0  1.007777  0  0  0.11007  0  1.007631  0  0  0.100203  0.106226  0  1.008075  0
H  H17  1  0.00205765  0.25753538  0.67929882  1  0  0.097125  0  0.948937  0  0  0.107906  0  1.00779  0  0  0.110106  0  1.007639  0  0  0.100203  0.106254  0  1.00809  0
H  H18  1  0.81580197  0.71805572  0.24781797  1  0  0.081135  0  0.97753  0  0  0.09141  0  1.039198  0  0  0.093008  0  1.040192  0  0  0.096769  0.090368  0  1.038296  0
H  H19  1  0.18419810  0.28194669  0.75218600  1  0  0.081188  0  0.977566  0  0  0.091394  0  1.039301  0  0  0.092991  0  1.040297  0  0  0.096798  0.090352  0  1.038399  0
H  H20  1  0.90712563  0.63013416  0.04918905  1  0  0.116689  0  0.970899  0  0  0.120599  0  1.041689  0  0  0.124755  0  1.038508  0  0  0.100852  0.118385  0  1.042554  0
H  H21  1  0.09287797  0.36986724  0.95081398  1  0  0.116807  0  0.970714  0  0  0.120676  0  1.041554  0  0  0.124857  0  1.038346  0  0  0.100906  0.118463  0  1.042421  0
H  H22  1  0.09106055  0.91310737  0.89511875  1  0  0.098237  0  0.949361  0  0  0.107083  0  1.013301  0  0  0.110185  0  1.011794  0  0  0.10249  0.10484  0  1.014502  0
H  H23  1  0.90893877  0.08689715  0.10487218  1  0  0.09825  0  0.949417  0  0  0.107107  0  1.013343  0  0  0.110208  0  1.011836  0  0  0.10245  0.104862  0  1.014549  0
H  H24  1  0.22267624  0.93108930  0.02166948  1  0  0.091593  0  0.950496  0  0  0.104163  0  1.007249  0  0  0.10712  0  1.006146  0  0  0.100764  0.102043  0  1.007993  0
H  H25  1  0.77731794  0.06890912  0.97832591  1  0  0.091668  0  0.950517  0  0  0.104243  0  1.007252  0  0  0.1072  0  1.00615  0  0  0.100808  0.102138  0  1.007978  0
H  H26  1  0.44052689  0.01422143  0.91424628  1  0  0.070961  0  0.974069  0  0  0.0825  0  1.037119  0  0  0.084632  0  1.036714  0  0  0.092596  0.080857  0  1.037703  0
H  H27  1  0.55947057  0.98577083  0.08575824  1  0  0.070999  0  0.974008  0  0  0.082514  0  1.037098  0  0  0.084641  0  1.036695  0  0  0.09261  0.080869  0  1.037678  0
H  H28  1  0.52967492  0.07418872  0.68088427  1  0  0.105202  0  0.95227  0  0  0.11333  0  1.015214  0  0  0.116632  0  1.013789  0  0  0.101133  0.11071  0  1.016727  0
H  H29  1  0.47033159  0.92580758  0.31912011  1  0  0.1052  0  0.95223  0  0  0.113312  0  1.015192  0  0  0.116614  0  1.013769  0  0  0.101123  0.110694  0  1.016712  0
H  H30  1  0.39425285  0.05584730  0.55637289  1  0  0.094538  0  0.969083  0  0  0.103749  0  1.034476  0  0  0.106843  0  1.03232  0  0  0.101299  0.101531  0  1.035983  0
H  H31  1  0.60575781  0.94415209  0.44362152  1  0  0.094569  0  0.969074  0  0  0.103798  0  1.034455  0  0  0.106907  0  1.032263  0  0  0.101326  0.101578  0  1.035964  0
H  H32  1  0.48334095  0.67517226  0.30358810  1  0  0.089629  0  0.953321  0  0  0.099438  0  1.017456  0  0  0.102838  0  1.015012  0  0  0.098703  0.096883  0  1.019441  0
H  H33  1  0.51665644  0.32482308  0.69640961  1  0  0.089668  0  0.953307  0  0  0.09947  0  1.017452  0  0  0.102872  0  1.015007  0  0  0.098736  0.096909  0  1.019437  0
H  H34  1  0.65265488  0.43427462  0.29672605  1  0  0.100904  0  0.953676  0  0  0.108011  0  1.014659  0  0  0.11233  0  1.01185  0  0  0.099471  0.105309  0  1.016273  0
H  H35  1  0.34734462  0.56572070  0.70327515  1  0  0.100934  0  0.953804  0  0  0.108052  0  1.01475  0  0  0.112366  0  1.011946  0  0  0.099488  0.105346  0  1.016365  0
H  H36  1  0.55304232  0.24423013  0.41998821  1  0  0.092722  0  0.949822  0  0  0.104912  0  1.007015  0  0  0.106947  0  1.006991  0  0  0.101109  0.103295  0  1.00735  0
H  H37  1  0.44695539  0.75576719  0.58001893  1  0  0.092687  0  0.949805  0  0  0.104967  0  1.006903  0  0  0.107011  0  1.006881  0  0  0.101121  0.10335  0  1.007247  0
H  H38  1  0.28588097  0.29498352  0.54873910  1  0  0.077855  0  0.982508  0  0  0.089828  0  1.045118  0  0  0.092003  0  1.044918  0  0  0.095871  0.088044  0  1.045741  0
H  H39  1  0.71411426  0.70501487  0.45126184  1  0  0.07787  0  0.982514  0  0  0.08985  0  1.045115  0  0  0.092016  0  1.044925  0  0  0.095902  0.088067  0  1.045737  0
H  H40  1  0.11968914  0.53574966  0.55862662  1  0  0.100876  0  0.947459  0  0  0.11033  0  1.008544  0  0  0.113987  0  1.006222  0  0  0.102628  0.107964  0  1.009618  0
H  H41  1  0.88030435  0.46424775  0.44136677  1  0  0.100895  0  0.947508  0  0  0.110368  0  1.008581  0  0  0.114008  0  1.006278  0  0  0.102625  0.108001  0  1.009657  0
C  C42  1  0.25224721  0.17692212  0.12937590  1  0  0.133288  0  3.698067  0  0  0.101306  0  3.949819  0  0  0.10924  0  3.967775  0  0  0.052163  0.0962  0  3.937394  0
C  C43  1  0.74775608  0.82307726  0.87062447  1  0  0.133208  0  3.698059  0  0  0.101258  0  3.949795  0  0  0.109184  0  3.967756  0  0  0.052158  0.096156  0  3.937364  0
C  C44  1  0.33905353  0.25334840  0.03974854  1  0  -0.172337  0  3.723603  0  0  -0.194225  0  3.982368  0  0  -0.202139  0  4.00258  0  0  -0.080835  -0.188931  0  3.967698  0
C  C45  1  0.66094833  0.74665200  0.96025032  1  0  -0.172384  0  3.723731  0  0  -0.194276  0  3.982481  0  0  -0.202187  0  4.002689  0  0  -0.08086  -0.188993  0  3.967824  0
C  C46  1  0.38757606  0.33057143  0.07755192  1  0  0.138842  0  3.720965  0  0  0.145878  0  3.963115  0  0  0.151885  0  3.984404  0  0  0.012797  0.142532  0  3.947707  0
C  C47  1  0.61242401  0.66943100  0.92244866  1  0  0.138909  0  3.720917  0  0  0.145968  0  3.96306  0  0  0.151974  0  3.984345  0  0  0.012837  0.142624  0  3.947655  0
C  C48  1  0.34133969  0.32935253  0.20643950  1  0  -0.158902  0  3.705167  0  0  -0.1749  0  3.949558  0  0  -0.183646  0  3.973695  0  0  -0.077845  -0.169053  0  3.932934  0
C  C49  1  0.65866143  0.67064990  0.79355987  1  0  -0.158983  0  3.7051  0  0  -0.175005  0  3.949504  0  0  -0.183749  0  3.973639  0  0  -0.07783  -0.16915  0  3.932875  0
C  C50  1  0.25571019  0.25022830  0.29040271  1  0  0.148412  0  3.680911  0  0  0.116904  0  3.929278  0  0  0.124605  0  3.947259  0  0  0.055998  0.111946  0  3.916867  0
C  C51  1  0.74429415  0.74977107  0.70959728  1  0  0.14845  0  3.680943  0  0  0.116974  0  3.929306  0  0  0.124667  0  3.947296  0  0  0.055954  0.112007  0  3.9169  0
C  C52  1  0.47903621  0.41570789  0.98470840  1  0  -0.07479  0  3.540171  0  0  -0.086816  0  3.773195  0  0  -0.08825  0  3.785531  0  0  -0.077947  -0.085626  0  3.764072  0
C  C53  1  0.52096313  0.58429657  0.01529353  1  0  -0.07478  0  3.540147  0  0  -0.086851  0  3.77328  0  0  -0.08827  0  3.785589  0  0  -0.07805  -0.085665  0  3.764166  0
C  C54  1  0.40000883  0.57571428  0.97535132  1  0  -0.029986  0  3.55139  0  0  -0.041631  0  3.784257  0  0  -0.041222  0  3.797367  0  0  -0.07046  -0.041798  0  3.774731  0
C  C55  1  0.59998914  0.42428813  0.02465423  1  0  -0.029957  0  3.55134  0  0  -0.041626  0  3.784237  0  0  -0.041211  0  3.797337  0  0  -0.070428  -0.041793  0  3.774709  0
C  C56  1  0.23931909  0.62309485  0.05235945  1  0  -0.043577  0  3.783028  0  0  -0.034751  0  4.026347  0  0  -0.037299  0  4.049931  0  0  -0.023745  -0.033087  0  4.009765  0
C  C57  1  0.76067993  0.37690756  0.94764572  1  0  -0.043396  0  3.782891  0  0  -0.034565  0  4.026191  0  0  -0.037108  0  4.049764  0  0  -0.023667  -0.032896  0  4.0096  0
C  C58  1  0.18614944  0.67180676  0.16377094  1  0  -0.096537  0  3.754496  0  0  -0.116555  0  4.009037  0  0  -0.118192  0  4.030943  0  0  -0.091145  -0.115282  0  3.994221  0
C  C59  1  0.81385206  0.32819463  0.83623368  1  0  -0.096778  0  3.754458  0  0  -0.116818  0  4.00906  0  0  -0.118463  0  4.030962  0  0  -0.091243  -0.115533  0  3.994218  0
C  C60  1  0.03532714  0.70512997  0.23428491  1  0  -0.077891  0  3.766126  0  0  -0.096955  0  4.023631  0  0  -0.09987  0  4.04671  0  0  -0.0978  -0.095176  0  4.008241  0
C  C61  1  0.96467361  0.29487346  0.76571936  1  0  -0.077882  0  3.766228  0  0  -0.096927  0  4.023692  0  0  -0.099844  0  4.046773  0  0  -0.097743  -0.095145  0  4.008301  0
C  C62  1  0.93377250  0.69092635  0.19417514  1  0  -0.041393  0  3.786572  0  0  -0.054326  0  4.036369  0  0  -0.055547  0  4.059671  0  0  -0.09162  -0.053221  0  4.020349  0
C  C63  1  0.06622652  0.30907606  0.80583004  1  0  -0.04143  0  3.786655  0  0  -0.054295  0  4.036406  0  0  -0.055517  0  4.059716  0  0  -0.091647  -0.053193  0  4.020393  0
C  C64  1  0.98267794  0.64359041  0.08305814  1  0  -0.189183  0  3.779222  0  0  -0.215351  0  4.040113  0  0  -0.218411  0  4.056135  0  0  -0.106988  -0.212951  0  4.027637  0
C  C65  1  0.01732213  0.35641200  0.91694667  1  0  -0.189248  0  3.779069  0  0  -0.21539  0  4.039961  0  0  -0.218471  0  4.05596  0  0  -0.107025  -0.212998  0  4.027492  0
C  C66  1  0.13290371  0.61157450  0.01580965  1  0  0.259058  0  3.756808  0  0  0.240153  0  4.038644  0  0  0.251001  0  4.048804  0  0  0.093193  0.233776  0  4.030759  0
C  C67  1  0.86709953  0.38842790  0.98419490  1  0  0.259051  0  3.756662  0  0  0.24015  0  4.038483  0  0  0.251013  0  4.04863  0  0  0.093132  0.233777  0  4.03059  0
C  C68  1  0.15066591  0.98186070  0.64144338  1  0  0.654089  0  3.898001  0  0  0.603202  0  4.188603  0  0  0.638816  0  4.181268  0  0  0.211929  0.579189  0  4.192883  0
C  C69  1  0.84934090  0.01813769  0.35854928  1  0  0.654024  0  3.898221  0  0  0.603106  0  4.188831  0  0  0.63872  0  4.181506  0  0  0.211923  0.579097  0  4.193105  0
C  C70  1  0.23497031  0.98399193  0.71817481  1  0  -0.079685  0  3.765854  0  0  -0.053547  0  3.996303  0  0  -0.062576  0  4.019955  0  0  -0.021289  -0.047813  0  3.980472  0
C  C71  1  0.76503645  0.01600951  0.28181782  1  0  -0.079528  0  3.765501  0  0  -0.053357  0  3.995918  0  0  -0.062389  0  4.019572  0  0  -0.021323  -0.047616  0  3.980074  0
C  C72  1  0.18720415  0.94789127  0.84935156  1  0  -0.054795  0  3.718754  0  0  -0.079927  0  3.964558  0  0  -0.07884  0  3.98493  0  0  -0.080709  -0.080808  0  3.950903  0
C  C73  1  0.81279838  0.05211019  0.15063915  1  0  -0.055029  0  3.718768  0  0  -0.080189  0  3.964599  0  0  -0.079106  0  3.984978  0  0  -0.080764  -0.081082  0  3.950966  0
C  C74  1  0.26098527  0.95902407  0.91958885  1  0  -0.08443  0  3.764655  0  0  -0.094847  0  4.015301  0  0  -0.098562  0  4.037342  0  0  -0.095866  -0.092067  0  4.000014  0
C  C75  1  0.73901275  0.04097534  0.08040743  1  0  -0.084388  0  3.764767  0  0  -0.09479  0  4.01539  0  0  -0.098505  0  4.03743  0  0  -0.095833  -0.092028  0  4.000099  0
C  C76  1  0.38295025  0.00571625  0.85918834  1  0  -0.066803  0  3.781992  0  0  -0.08358  0  4.033118  0  0  -0.083939  0  4.055434  0  0  -0.092851  -0.083285  0  4.017933  0
C  C77  1  0.61705241  0.99427907  0.14081091  1  0  -0.066842  0  3.781959  0  0  -0.083618  0  4.033104  0  0  -0.083973  0  4.055417  0  0  -0.092865  -0.083316  0  4.017919  0
C  C78  1  0.43321337  0.03958328  0.72823370  1  0  -0.080784  0  3.759688  0  0  -0.091961  0  4.012156  0  0  -0.095418  0  4.033598  0  0  -0.093088  -0.089736  0  3.997667  0
C  C79  1  0.56679282  0.96041101  0.27176632  1  0  -0.080695  0  3.759535  0  0  -0.091851  0  4.011982  0  0  -0.095308  0  4.03342  0  0  -0.093046  -0.089635  0  3.997503  0
C  C80  1  0.35884962  0.02861075  0.65837974  1  0  -0.084387  0  3.744977  0  0  -0.10904  0  3.994516  0  0  -0.108526  0  4.01438  0  0  -0.089674  -0.108863  0  3.980667  0
C  C81  1  0.64115503  0.97139067  0.34161700  1  0  -0.084502  0  3.744852  0  0  -0.109185  0  3.994368  0  0  -0.108667  0  4.014233  0  0  -0.089704  -0.109007  0  3.980521  0
C  C82  1  0.19166740  0.76413136  0.43934317  1  0  0.656425  0  3.886897  0  0  0.607383  0  4.174727  0  0  0.642592  0  4.167999  0  0  0.211063  0.583516  0  4.178673  0
C  C83  1  0.80832189  0.23586599  0.56066269  1  0  0.65655  0  3.886872  0  0  0.607584  0  4.174609  0  0  0.642792  0  4.167883  0  0  0.211192  0.583701  0  4.17857  0
C  C84  1  0.29130439  0.61976305  0.43026147  1  0  -0.07361  0  3.76099  0  0  -0.047069  0  3.988297  0  0  -0.056119  0  4.0127  0  0  -0.020045  -0.04137  0  3.972099  0
C  C85  1  0.70869512  0.38023224  0.56974566  1  0  -0.073558  0  3.760874  0  0  -0.046991  0  3.988097  0  0  -0.056043  0  4.012499  0  0  -0.019885  -0.041283  0  3.97189  0
C  C86  1  0.44127383  0.59072833  0.35573024  1  0  -0.077607  0  3.752275  0  0  -0.101256  0  4.002444  0  0  -0.100556  0  4.02274  0  0  -0.085708  -0.101467  0  3.988781  0
C  C87  1  0.55872035  0.40927005  0.64427191  1  0  -0.077617  0  3.75232  0  0  -0.101281  0  4.00248  0  0  -0.10058  0  4.022778  0  0  -0.085781  -0.101485  0  3.988805  0
C  C88  1  0.53540462  0.45620505  0.35222618  1  0  -0.077124  0  3.761243  0  0  -0.090933  0  4.019906  0  0  -0.09417  0  4.040015  0  0  -0.091826  -0.088783  0  4.005733  0
C  C89  1  0.46458993  0.54379233  0.64777276  1  0  -0.07721  0  3.761433  0  0  -0.091027  0  4.020122  0  0  -0.094266  0  4.040238  0  0  -0.091853  -0.088876  0  4.005946  0
C  C90  1  0.47951265  0.34949062  0.42190467  1  0  -0.057238  0  3.743103  0  0  -0.072885  0  3.99426  0  0  -0.072487  0  4.014444  0  0  -0.087749  -0.072688  0  3.980557  0
C  C91  1  0.52048790  0.65050470  0.57809532  1  0  -0.057208  0  3.74312  0  0  -0.072927  0  3.994285  0  0  -0.072543  0  4.014478  0  0  -0.087773  -0.072734  0  3.98059  0
C  C92  1  0.32948463  0.37814463  0.49471177  1  0  -0.088294  0  3.786776  0  0  -0.099159  0  4.035721  0  0  -0.103042  0  4.058177  0  0  -0.094974  -0.09671  0  4.020607  0
C  C93  1  0.67051197  0.62185578  0.50528978  1  0  -0.08824  0  3.786764  0  0  -0.099121  0  4.035753  0  0  -0.102998  0  4.05821  0  0  -0.094996  -0.096678  0  4.020645  0
C  C94  1  0.23589469  0.51239425  0.49988316  1  0  -0.066424  0  3.729423  0  0  -0.089657  0  3.971954  0  0  -0.089004  0  3.991946  0  0  -0.083076  -0.089718  0  3.957755  0
C  C95  1  0.76410265  0.48760412  0.50011873  1  0  -0.06654  0  3.729395  0  0  -0.089808  0  3.97194  0  0  -0.089137  0  3.991935  0  0  -0.083136  -0.08987  0  3.957745  0
N  N96  1  0.21276238  0.17398180  0.25289988  1  0  -0.311429  0  3.285468  0  0  -0.228734  0  3.553696  0  0  -0.248663  0  3.56805  0  0  -0.329833  -0.215215  0  3.543496  0
N  N97  1  0.78724196  0.82601758  0.74709843  1  0  -0.311387  0  3.285486  0  0  -0.228723  0  3.553744  0  0  -0.248651  0  3.568101  0  0  -0.329815  -0.215202  0  3.543538  0
O  O98  1  0.19926026  0.01954021  0.52294090  1  0  -0.642722  0  2.087095  0  0  -0.57861  0  2.353114  0  0  -0.607787  0  2.340915  0  0  -0.316086  -0.55833  0  2.360792  0
O  O99  1  0.80074971  0.98045819  0.47704812  1  0  -0.642647  0  2.087273  0  0  -0.578542  0  2.353336  0  0  -0.607709  0  2.341112  0  0  -0.316022  -0.558265  0  2.36101  0
O  O100  1  0.03586467  0.94496491  0.70003411  1  0  -0.623385  0  2.052656  0  0  -0.558633  0  2.310761  0  0  -0.586776  0  2.296693  0  0  -0.317802  -0.539163  0  2.31962  0
O  O101  1  0.96414028  0.05503859  0.29995430  1  0  -0.623441  0  2.052611  0  0  -0.558671  0  2.310739  0  0  -0.586805  0  2.296657  0  0  -0.317863  -0.539206  0  2.319602  0
O  O102  1  0.06896903  0.78088687  0.52841406  1  0  -0.646915  0  2.078164  0  0  -0.582556  0  2.33704  0  0  -0.611066  0  2.32363  0  0  -0.318498  -0.56273  0  2.345412  0
O  O103  1  0.93102025  0.21911054  0.47158334  1  0  -0.646988  0  2.077995  0  0  -0.582645  0  2.336825  0  0  -0.611153  0  2.323412  0  0  -0.318594  -0.562819  0  2.34521  0
O  O104  1  0.23637162  0.85927879  0.35843331  1  0  -0.627891  0  2.02084  0  0  -0.565023  0  2.274429  0  0  -0.59338  0  2.2617  0  0  -0.321111  -0.545209  0  2.282405  0
O  O105  1  0.76361729  0.14071962  0.64156477  1  0  -0.627932  0  2.020924  0  0  -0.565131  0  2.274518  0  0  -0.593488  0  2.261789  0  0  -0.321191  -0.545316  0  2.2825  0
F  F106  1  0.18143921  0.56344931  0.90697655  1  0  -0.220385  0  1.20982  0  0  -0.153394  0  1.362784  0  0  -0.169307  0  1.360167  0  0  -0.093297  -0.145934  0  1.368568  0
F  F107  1  0.81856402  0.43655309  0.09302800  1  0  -0.22044  0  1.20974  0  0  -0.153426  0  1.362681  0  0  -0.169392  0  1.360104  0  0  -0.093284  -0.14597  0  1.36846  0
