# generated using pymatgen
data_CuH16C24(N2O3)2
_symmetry_space_group_name_H-M   'P 1'
_cell_length_a   11.03857991
_cell_length_b   11.03839509
_cell_length_c   12.66272733
_cell_angle_alpha   67.84716215
_cell_angle_beta   67.84501654
_cell_angle_gamma   86.65324219
_symmetry_Int_Tables_number   1
_chemical_formula_structural   CuH16C24(N2O3)2
_chemical_formula_sum   'Cu2 H32 C48 N8 O12'
_cell_volume   1317.18963837
_cell_formula_units_Z   2
loop_
 _symmetry_equiv_pos_site_id
 _symmetry_equiv_pos_as_xyz
  1  'x, y, z'
loop_
 _atom_site_type_symbol
 _atom_site_label
 _atom_site_symmetry_multiplicity
 _atom_site_fract_x
 _atom_site_fract_y
 _atom_site_fract_z
 _atom_site_occupancy
 _atom_site_pbe_bader_charge
 _atom_site_pbe_bader_spin_density
 _atom_site_pbe_cm5_charge
 _atom_site_pbe_ddec_charge
 _atom_site_pbe_ddec_spin_density
 _atom_site_pbe_ddec_sum_bond_order
 _atom_site_pbe_magmom
Cu  Cu0  1  0.50000040  0.00000240  0.49999866  1  1.052721  0.547318  0.748657  0.739425  0.715435  2.237058  0.547
Cu  Cu1  1  0.00000256  0.49999874  0.00000135  1  1.052943  0.547277  0.748717  0.739474  0.715379  2.23736  0.547
H  H2  1  0.10734930  0.82034822  0.47528152  1  0.130389  1.7e-05  0.112427  0.127715  -2.1e-05  0.984465  0.0
H  H3  1  0.17967999  0.89262456  0.02475338  1  0.130258  1.7e-05  0.112369  0.127679  -2.1e-05  0.984351  0.0
H  H4  1  0.89264728  0.17964925  0.52472245  1  0.13034  1.7e-05  0.112404  0.127659  -2.1e-05  0.984457  0.0
H  H5  1  0.82032145  0.10738169  0.97524445  1  0.13027  1.7e-05  0.112405  0.127754  -2.1e-05  0.984237  0.0
H  H6  1  0.86219277  0.78735006  0.55679828  1  0.131703  0.000211  0.107321  0.122081  0.000113  1.03447  0.0
H  H7  1  0.21273667  0.13781190  0.94319659  1  0.132182  0.000211  0.107263  0.122306  0.000114  1.034184  0.0
H  H8  1  0.13780469  0.21264643  0.44320652  1  0.131687  0.000211  0.107313  0.122108  0.000113  1.034422  0.0
H  H9  1  0.78725391  0.86219349  0.05680437  1  0.132382  0.000211  0.107247  0.12221  0.000114  1.034269  0.0
H  H10  1  0.72959535  0.84199348  0.74482232  1  0.120594  -3.4e-05  0.120109  0.106811  -5.9e-05  1.019063  0.0
H  H11  1  0.15810446  0.27043606  0.75514656  1  0.120029  -3.4e-05  0.120112  0.10698  -5.9e-05  1.018943  0.0
H  H12  1  0.27040308  0.15800299  0.25518215  1  0.120643  -3.4e-05  0.120037  0.106715  -5.9e-05  1.019139  0.0
H  H13  1  0.84188600  0.72956834  0.24485398  1  0.120008  -3.4e-05  0.120107  0.106931  -5.9e-05  1.018836  0.0
H  H14  1  0.34979365  0.23320888  0.47801963  1  0.093309  0.001989  0.124802  0.101895  0.000861  0.991995  0.002
H  H15  1  0.76677459  0.65021468  0.02197162  1  0.093447  0.001989  0.124735  0.10179  0.000861  0.991865  0.002
H  H16  1  0.65020403  0.76679932  0.52197327  1  0.093084  0.00199  0.124788  0.101871  0.000861  0.991993  0.002
H  H17  1  0.23323123  0.34978664  0.97803034  1  0.093401  0.001989  0.124738  0.101814  0.000861  0.991878  0.002
H  H18  1  0.33433487  0.43078994  0.30437777  1  0.057351  0.001213  0.116103  0.125063  0.000634  0.97574  0.001
H  H19  1  0.56921065  0.66564641  0.19562216  1  0.05699  0.001213  0.116154  0.12515  0.000634  0.975563  0.001
H  H20  1  0.66567342  0.56921712  0.69560880  1  0.057604  0.001213  0.116087  0.125095  0.000634  0.975672  0.001
H  H21  1  0.43079156  0.33434901  0.80437903  1  0.056898  0.001214  0.116135  0.125103  0.000634  0.975651  0.001
H  H22  1  0.61901847  0.27679268  0.05254359  1  0.138486  0.000936  0.114821  0.131783  0.000512  1.000142  0.001
H  H23  1  0.72321226  0.38095791  0.44745744  1  0.138293  0.000936  0.114788  0.131595  0.000512  1.000313  0.001
H  H24  1  0.38098894  0.72320562  0.94745411  1  0.138566  0.000936  0.114799  0.131712  0.000512  1.000216  0.001
H  H25  1  0.27678559  0.61903360  0.55254415  1  0.138294  0.000936  0.114781  0.131614  0.000512  1.000248  0.001
H  H26  1  0.62297487  0.08988354  0.23500282  1  0.164505  0.001753  0.12047  0.094731  0.000716  1.021002  0.001
H  H27  1  0.91012236  0.37699968  0.26501486  1  0.164084  0.001753  0.120363  0.094735  0.000717  1.020953  0.001
H  H28  1  0.37702594  0.91011684  0.76499876  1  0.164468  0.001753  0.12047  0.094701  0.000716  1.021013  0.001
H  H29  1  0.08987715  0.62299776  0.73498814  1  0.164122  0.001754  0.120381  0.094712  0.000717  1.020949  0.001
H  H30  1  0.38831855  0.54886754  0.08763366  1  0.069603  0.000129  0.112536  0.116195  0.000111  0.986409  0.0
H  H31  1  0.45116931  0.61169541  0.41233958  1  0.069209  0.000129  0.112547  0.11626  0.000111  0.986374  0.0
H  H32  1  0.61169007  0.45113362  0.91235477  1  0.069424  0.000129  0.112533  0.116196  0.000111  0.98641  0.0
H  H33  1  0.54882974  0.38829806  0.58766175  1  0.069515  0.000129  0.112587  0.11633  0.000111  0.986373  0.0
C  C34  1  0.25490561  0.91313681  0.55803546  1  1.56095  -0.001919  0.194382  0.56681  -0.002494  4.213317  -0.004
C  C35  1  0.08687428  0.74509101  0.94199095  1  1.561212  -0.00192  0.194285  0.566822  -0.002494  4.213702  -0.004
C  C36  1  0.74509300  0.08686160  0.44196515  1  1.560592  -0.001919  0.194384  0.566805  -0.002494  4.21331  -0.004
C  C37  1  0.91313079  0.25491230  0.05801138  1  1.561102  -0.001918  0.194351  0.566968  -0.002494  4.213758  -0.004
C  C38  1  0.10696805  0.89051845  0.61260528  1  0.059276  0.009846  -0.007823  -0.083709  0.006963  3.956762  0.008
C  C39  1  0.10946119  0.89303549  0.88742684  1  0.059246  0.009857  -0.007942  -0.083822  0.006971  3.956873  0.008
C  C40  1  0.89303179  0.10948194  0.38739663  1  0.059317  0.009847  -0.007824  -0.083679  0.006963  3.95683  0.008
C  C41  1  0.89054101  0.10696878  0.11257060  1  0.059871  0.009856  -0.007933  -0.083864  0.006971  3.956858  0.008
C  C42  1  0.04689766  0.84018238  0.55637258  1  -0.026455  0.000484  -0.081681  -0.088935  0.000149  3.967744  0.0
C  C43  1  0.15983644  0.95309473  0.94365190  1  -0.025825  0.000486  -0.08153  -0.088733  0.000151  3.967259  0.0
C  C44  1  0.95310034  0.15981902  0.44363039  1  -0.02626  0.000484  -0.081652  -0.088835  0.000149  3.967645  0.0
C  C45  1  0.84016012  0.04691159  0.05634832  1  -0.026534  0.000486  -0.081611  -0.088889  0.00015  3.967167  0.0
C  C46  1  0.91036225  0.82117575  0.60280404  1  0.050543  0.003184  -0.085503  -0.103843  0.002111  4.035623  0.002
C  C47  1  0.17888997  0.08964461  0.89718898  1  0.063718  0.003187  -0.085417  -0.10399  0.002113  4.035092  0.002
C  C48  1  0.08963607  0.17881973  0.39720002  1  0.050058  0.003185  -0.085514  -0.103923  0.002111  4.035622  0.002
C  C49  1  0.82110354  0.91036074  0.10281101  1  0.063609  0.003187  -0.085384  -0.103811  0.002114  4.034978  0.002
C  C50  1  0.83628735  0.85145687  0.70335933  1  0.330082  -0.000863  0.025444  -0.051849  -0.000985  3.858462  -0.001
C  C51  1  0.14861519  0.16373025  0.79662508  1  0.316497  -0.000863  0.025434  -0.052216  -0.000987  3.858646  -0.001
C  C52  1  0.16371031  0.14854157  0.29664317  1  0.330462  -0.000863  0.025524  -0.051719  -0.000986  3.858513  -0.001
C  C53  1  0.85137528  0.83627416  0.20337624  1  0.316509  -0.000863  0.025461  -0.052088  -0.000987  3.858386  -0.001
C  C54  1  0.02973012  0.91918773  0.71526226  1  0.332256  -0.000521  0.116504  0.068978  -0.000474  3.858069  -0.001
C  C55  1  0.08082594  0.97026643  0.78474135  1  0.371303  -0.00052  0.116608  0.068948  -0.000474  3.858112  -0.001
C  C56  1  0.97026775  0.08081267  0.28473951  1  0.332416  -0.000521  0.116472  0.068878  -0.000474  3.858155  -0.001
C  C57  1  0.91917008  0.02973497  0.21525991  1  0.371368  -0.00052  0.116589  0.069021  -0.000474  3.858099  -0.001
C  C58  1  0.40852529  0.24885101  0.38199374  1  0.499639  -0.001279  0.051755  0.095603  -0.001549  3.937323  -0.001
C  C59  1  0.75114796  0.59145389  0.11800132  1  0.499365  -0.001279  0.052011  0.095916  -0.001551  3.936729  -0.001
C  C60  1  0.59147524  0.75115621  0.61800090  1  0.499804  -0.001279  0.051819  0.095705  -0.00155  3.93739  -0.001
C  C61  1  0.24885655  0.40854448  0.88200049  1  0.499615  -0.001279  0.051997  0.095867  -0.001551  3.936813  -0.001
C  C62  1  0.39994896  0.35751392  0.28466825  1  -0.023506  0.005116  -0.077946  -0.179298  0.003519  3.942195  0.004
C  C63  1  0.64248815  0.60002785  0.21534207  1  -0.023109  0.005116  -0.078144  -0.17948  0.003519  3.941672  0.004
C  C64  1  0.60005414  0.64249027  0.71532259  1  -0.023831  0.005115  -0.077929  -0.179362  0.003519  3.941943  0.004
C  C65  1  0.35751287  0.39996562  0.78466018  1  -0.023163  0.005116  -0.078099  -0.179367  0.003519  3.941623  0.004
C  C66  1  0.47417538  0.37175890  0.16190364  1  0.016733  -0.003365  0.00836  0.140061  -0.003689  4.033425  -0.002
C  C67  1  0.62823496  0.52580466  0.33811361  1  0.015869  -0.003366  0.008298  0.139876  -0.00369  4.033377  -0.002
C  C68  1  0.52583263  0.62824526  0.83808795  1  0.016748  -0.003365  0.008348  0.140068  -0.003689  4.033004  -0.002
C  C69  1  0.37176399  0.47418784  0.66188887  1  0.015944  -0.003366  0.008321  0.13988  -0.00369  4.0333  -0.002
C  C70  1  0.55597380  0.27260391  0.14405263  1  -0.028441  0.005017  -0.072834  -0.153532  0.003467  3.887835  0.004
C  C71  1  0.72738956  0.44400371  0.35595291  1  -0.027596  0.005016  -0.072597  -0.153013  0.003467  3.887566  0.004
C  C72  1  0.44402684  0.72739542  0.85594304  1  -0.028338  0.005017  -0.072777  -0.153424  0.003467  3.887754  0.004
C  C73  1  0.27260743  0.55598881  0.64405021  1  -0.027534  0.005016  -0.072646  -0.153079  0.003467  3.887502  0.004
C  C74  1  0.55979555  0.16739077  0.24556508  1  0.396871  -0.001237  0.050272  0.101301  -0.001636  3.923462  -0.001
C  C75  1  0.83260749  0.44018468  0.25443443  1  0.397295  -0.001237  0.05035  0.101129  -0.001636  3.923213  -0.001
C  C76  1  0.44020545  0.83261154  0.75443342  1  0.397051  -0.001236  0.050253  0.101334  -0.001635  3.923484  -0.001
C  C77  1  0.16739290  0.55981178  0.74556940  1  0.397315  -0.001237  0.050404  0.101227  -0.001636  3.923079  -0.001
C  C78  1  0.46320506  0.48512012  0.06054776  1  -0.0567  -0.001063  -0.072991  -0.114373  -0.001203  3.944452  0.0
C  C79  1  0.51488287  0.53679780  0.43945467  1  -0.056047  -0.001064  -0.073034  -0.114425  -0.001204  3.944631  0.0
C  C80  1  0.53679923  0.51487715  0.93944343  1  0.030073  -0.00105  -0.073109  -0.114538  -0.001203  3.944477  0.0
C  C81  1  0.48511399  0.46319373  0.56054725  1  0.029909  -0.00105  -0.073137  -0.114579  -0.001204  3.944748  0.0
N  N82  1  0.89423576  0.89986230  0.75968270  1  -0.546182  0.002064  -0.097288  0.310806  0.001355  3.988854  0.002
N  N83  1  0.10018403  0.10576325  0.74032035  1  -0.546123  0.002067  -0.097424  0.310808  0.001357  3.989174  0.002
N  N84  1  0.10576179  0.10013515  0.24032017  1  -0.546462  0.002065  -0.097299  0.31081  0.001356  3.988871  0.002
N  N85  1  0.89981004  0.89423817  0.25968157  1  -0.546016  0.002068  -0.097393  0.310653  0.001358  3.989264  0.002
N  N86  1  0.48741091  0.15532068  0.36245811  1  -1.193656  0.082285  -0.351839  -0.220321  0.055875  3.628686  0.072
N  N87  1  0.84468096  0.51255973  0.13753271  1  -1.193763  0.082267  -0.352025  -0.220512  0.055864  3.628756  0.072
N  N88  1  0.51258529  0.84468265  0.63753929  1  -1.193952  0.082285  -0.351915  -0.220432  0.055875  3.628834  0.072
N  N89  1  0.15532355  0.48743864  0.86246910  1  -1.194013  0.082269  -0.35207  -0.22056  0.055865  3.628816  0.072
O  O90  1  0.30636316  0.98720581  0.59228694  1  -1.112445  0.118635  -0.322237  -0.543421  0.076734  2.347289  0.108
O  O91  1  0.01279679  0.69365097  0.90773686  1  -1.112488  0.118673  -0.322116  -0.543309  0.07676  2.347421  0.108
O  O92  1  0.69363608  0.01279846  0.40770913  1  -1.11241  0.118623  -0.322227  -0.543459  0.076727  2.347327  0.107
O  O93  1  0.98720852  0.30634547  0.09226928  1  -1.112329  0.118665  -0.322173  -0.543447  0.076754  2.347503  0.108
O  O94  1  0.32053329  0.86303942  0.48290607  1  -1.172374  0.000899  -0.334587  -0.571053  -0.000482  2.103778  0.002
O  O95  1  0.13696972  0.67947164  0.01711546  1  -1.172775  0.000902  -0.334646  -0.571181  -0.00048  2.103918  0.002
O  O96  1  0.67946315  0.13695703  0.51709513  1  -1.172081  0.000899  -0.334593  -0.571037  -0.000482  2.103768  0.002
O  O97  1  0.86304154  0.32053455  0.98288383  1  -1.17288  0.000902  -0.334655  -0.571194  -0.00048  2.103974  0.002
O  O98  1  0.82223141  0.92566223  0.85465219  1  -0.581411  0.002827  -0.244819  -0.469077  0.001756  1.880547  0.002
O  O99  1  0.07439359  0.17778274  0.64535459  1  -0.581628  0.002832  -0.244779  -0.469034  0.001759  1.880626  0.002
O  O100  1  0.17776744  0.07433816  0.14534925  1  -0.581326  0.002828  -0.244799  -0.469058  0.001756  1.880549  0.002
O  O101  1  0.92560026  0.82221672  0.35464805  1  -0.581765  0.002833  -0.244794  -0.468997  0.001759  1.880785  0.002
