# generated using pymatgen
data_CdH7C13NO5
_symmetry_space_group_name_H-M   'P 1'
_cell_length_a   7.79087651
_cell_length_b   12.99739898
_cell_length_c   12.90860000
_cell_angle_alpha   67.08204028
_cell_angle_beta   86.72269001
_cell_angle_gamma   86.71691274
_symmetry_Int_Tables_number   1
_chemical_formula_structural   CdH7C13NO5
_chemical_formula_sum   'Cd4 H28 C52 N4 O20'
_cell_volume   1201.11790451
_cell_formula_units_Z   4
loop_
 _symmetry_equiv_pos_site_id
 _symmetry_equiv_pos_as_xyz
  1  'x, y, z'
loop_
 _atom_site_type_symbol
 _atom_site_label
 _atom_site_symmetry_multiplicity
 _atom_site_fract_x
 _atom_site_fract_y
 _atom_site_fract_z
 _atom_site_occupancy
 _atom_site_hle17_bader_spin_density
 _atom_site_hle17_ddec_charge
 _atom_site_hle17_ddec_spin_density
 _atom_site_hle17_ddec_sum_bond_order
 _atom_site_hle17_magmom
 _atom_site_hse06_10hf_bader_spin_density
 _atom_site_hse06_10hf_ddec_charge
 _atom_site_hse06_10hf_ddec_spin_density
 _atom_site_hse06_10hf_ddec_sum_bond_order
 _atom_site_hse06_10hf_magmom
 _atom_site_hse06_bader_spin_density
 _atom_site_hse06_ddec_charge
 _atom_site_hse06_ddec_spin_density
 _atom_site_hse06_ddec_sum_bond_order
 _atom_site_hse06_magmom
 _atom_site_pbe_bader_charge
 _atom_site_pbe_bader_spin_density
 _atom_site_pbe_cm5_charge
 _atom_site_pbe_ddec_charge
 _atom_site_pbe_ddec_spin_density
 _atom_site_pbe_ddec_sum_bond_order
 _atom_site_pbe_magmom
Cd  Cd0  1  0.71388297  0.02282418  0.15990189  1  0  1.207922  0  1.542686  0  0  1.021918  0  1.973153  0  0  1.083625  0  1.917743  0  1.299667  0  0.791324  0.977819  0  2.011083  0
Cd  Cd1  1  0.78560881  0.83934462  0.97533319  1  0  1.204388  0  1.552415  0  0  1.018153  0  1.983947  0  0  1.079726  0  1.928515  0  1.299453  0  0.790313  0.974198  0  2.021872  0
Cd  Cd2  1  0.28611681  0.97717581  0.84009843  1  0  1.207941  0  1.542631  0  0  1.021965  0  1.973084  0  0  1.083668  0  1.917678  0  1.299639  0  0.791345  0.977868  0  2.011011  0
Cd  Cd3  1  0.21439353  0.16065537  0.02466782  1  0  1.204366  0  1.552389  0  0  1.018144  0  1.983915  0  0  1.079715  0  1.928485  0  1.299471  0  0.790318  0.97419  0  2.02184  0
H  H4  1  0.38574544  0.14622139  0.23880462  1  0  0.088429  0  0.962194  0  0  0.091953  0  1.03608  0  0  0.09481  0  1.032944  0  0.13767  0  0.114269  0.089836  0  1.038384  0
H  H5  1  0.11275129  0.76065285  0.85215976  1  0  0.089383  0  0.95801  0  0  0.093486  0  1.03095  0  0  0.096441  0  1.027833  0  0.117279  0  0.11486  0.091299  0  1.033271  0
H  H6  1  0.61425690  0.85377859  0.76119484  1  0  0.088444  0  0.962246  0  0  0.091969  0  1.036133  0  0  0.094827  0  1.032997  0  0.137665  0  0.11428  0.089853  0  1.038437  0
H  H7  1  0.88724853  0.23934630  0.14784089  1  0  0.08938  0  0.957992  0  0  0.093461  0  1.030959  0  0  0.096414  0  1.027845  0  0.117264  0  0.114863  0.091279  0  1.033264  0
H  H8  1  0.28506536  0.20283881  0.39798235  1  0  0.105314  0  0.931422  0  0  0.120462  0  0.97937  0  0  0.123204  0  0.979426  0  0.087465  0  0.110695  0.118446  0  0.979574  0
H  H9  1  0.21509029  0.60164677  0.79683498  1  0  0.105593  0  0.931652  0  0  0.120799  0  0.97947  0  0  0.123527  0  0.979523  0  0.090818  0  0.110809  0.118807  0  0.97965  0
H  H10  1  0.71493307  0.79716201  0.60201537  1  0  0.105248  0  0.9314  0  0  0.120412  0  0.979338  0  0  0.123155  0  0.979391  0  0.087499  0  0.110673  0.118383  0  0.979556  0
H  H11  1  0.78491086  0.39835155  0.20316440  1  0  0.105612  0  0.931665  0  0  0.120817  0  0.97948  0  0  0.123545  0  0.979533  0  0.090835  0  0.110812  0.118824  0  0.979661  0
H  H12  1  0.48875706  0.17325782  0.55398043  1  0  0.143892  0  0.961768  0  0  0.1532  0  1.019958  0  0  0.157465  0  1.016515  0  0.17342  0  0.115635  0.149987  0  1.022639  0
H  H13  1  0.01234865  0.44601617  0.82737517  1  0  0.143638  0  0.959012  0  0  0.152296  0  1.018394  0  0  0.156645  0  1.014855  0  0.171491  0  0.115642  0.149078  0  1.02104  0
H  H14  1  0.51124014  0.82674217  0.44601921  1  0  0.143938  0  0.961717  0  0  0.153242  0  1.019911  0  0  0.157506  0  1.016469  0  0.1734  0  0.115642  0.150013  0  1.022613  0
H  H15  1  0.98764865  0.55398215  0.17262589  1  0  0.143662  0  0.958996  0  0  0.152316  0  1.018384  0  0  0.156666  0  1.014843  0  0.171498  0  0.115649  0.149097  0  1.02103  0
H  H16  1  0.86311825  0.03725732  0.37647382  1  0  0.11183  0  0.947526  0  0  0.115125  0  1.016494  0  0  0.119125  0  1.012714  0  0.148084  0  0.118653  0.112176  0  1.019266  0
H  H17  1  0.63585136  0.62311424  0.96202494  1  0  0.11151  0  0.947193  0  0  0.115223  0  1.015639  0  0  0.119226  0  1.011875  0  0.142636  0  0.118634  0.112266  0  1.018428  0
H  H18  1  0.13688148  0.96274351  0.62352695  1  0  0.111815  0  0.947506  0  0  0.11511  0  1.016472  0  0  0.119109  0  1.012696  0  0.148255  0  0.11864  0.112162  0  1.019242  0
H  H19  1  0.36414970  0.37688575  0.03797612  1  0  0.111508  0  0.947209  0  0  0.115234  0  1.015635  0  0  0.119238  0  1.011874  0  0.142655  0  0.118635  0.112276  0  1.018424  0
H  H20  1  0.84844797  0.28756598  0.40988440  1  0  0.09863  0  0.978955  0  0  0.10616  0  1.045162  0  0  0.108998  0  1.044866  0  0.078561  0  0.098853  0.104163  0  1.045443  0
H  H21  1  0.65036266  0.58881695  0.71204411  1  0  0.098432  0  0.977124  0  0  0.106343  0  1.042811  0  0  0.109158  0  1.042524  0  0.073782  0  0.098776  0.104329  0  1.043099  0
H  H22  1  0.15155175  0.71243484  0.59011715  1  0  0.098638  0  0.9789  0  0  0.106177  0  1.045102  0  0  0.109016  0  1.044803  0  0.078549  0  0.098858  0.104179  0  1.045384  0
H  H23  1  0.34963449  0.41118388  0.28795753  1  0  0.098469  0  0.977095  0  0  0.106379  0  1.042783  0  0  0.109193  0  1.042496  0  0.073803  0  0.0988  0.104367  0  1.043071  0
H  H24  1  0.97740883  0.43658523  0.45262046  1  0  0.086088  0  0.971928  0  0  0.099053  0  1.029572  0  0  0.101355  0  1.028716  0  0.062089  0  0.098972  0.097408  0  1.030291  0
H  H25  1  0.51966710  0.54646381  0.56268284  1  0  0.085743  0  0.974872  0  0  0.098296  0  1.033141  0  0  0.100632  0  1.032243  0  0.066468  0  0.099059  0.096614  0  1.033911  0
H  H26  1  0.02259357  0.56341392  0.54738088  1  0  0.086071  0  0.971965  0  0  0.099052  0  1.029584  0  0  0.101356  0  1.028725  0  0.062078  0  0.098981  0.097407  0  1.030303  0
H  H27  1  0.48033643  0.45353785  0.43731670  1  0  0.085813  0  0.974822  0  0  0.098335  0  1.033128  0  0  0.100652  0  1.032255  0  0.066449  0  0.099062  0.096652  0  1.033897  0
H  H28  1  0.06861798  0.39493427  0.64915921  1  0  0.094446  0  0.967339  0  0  0.103452  0  1.032855  0  0  0.10697  0  1.03033  0  0.078281  0  0.101128  0.100935  0  1.034701  0
H  H29  1  0.42960877  0.35117092  0.60420070  1  0  0.094494  0  0.966081  0  0  0.103668  0  1.031364  0  0  0.107229  0  1.028794  0  0.072499  0  0.101199  0.101146  0  1.033222  0
H  H30  1  0.93138580  0.60506321  0.35084118  1  0  0.094424  0  0.967378  0  0  0.103434  0  1.032874  0  0  0.106959  0  1.03035  0  0.078268  0  0.10114  0.100917  0  1.034719  0
H  H31  1  0.57039481  0.64882990  0.39579684  1  0  0.094493  0  0.966019  0  0  0.103656  0  1.031322  0  0  0.107214  0  1.028759  0  0.072512  0  0.101184  0.101135  0  1.033179  0
C  C32  1  0.46910989  0.13588681  0.30713480  1  0  0.124682  0  3.699064  0  0  0.086132  0  3.960237  0  0  0.094063  0  3.977726  0  0.536233  0  0.041821  0.080898  0  3.948397  0
C  C33  1  0.02982737  0.69244278  0.86287192  1  0  0.124201  0  3.695329  0  0  0.085267  0  3.956699  0  0  0.093096  0  3.974108  0  0.491497  0  0.042311  0.080103  0  3.944907  0
C  C34  1  0.53089107  0.86411485  0.69286405  1  0  0.124623  0  3.699115  0  0  0.086046  0  3.960308  0  0  0.093977  0  3.977799  0  0.536233  0  0.041766  0.080814  0  3.948463  0
C  C35  1  0.97017250  0.30755553  0.13712983  1  0  0.124198  0  3.69534  0  0  0.085293  0  3.956683  0  0  0.093123  0  3.974091  0  0.491498  0  0.042313  0.080131  0  3.944895  0
C  C36  1  0.41533714  0.16814528  0.39536734  1  0  -0.103856  0  3.747858  0  0  -0.11206  0  3.998419  0  0  -0.11874  0  4.020151  0  -0.093259  0  -0.083513  -0.10783  0  3.983831  0
C  C37  1  0.08452644  0.60433094  0.83131717  1  0  -0.10407  0  3.748001  0  0  -0.112172  0  3.998718  0  0  -0.118793  0  4.02046  0  -0.034296  0  -0.082601  -0.107991  0  3.984099  0
C  C38  1  0.58466134  0.83185471  0.60463070  1  0  -0.10377  0  3.747826  0  0  -0.111964  0  3.99838  0  0  -0.118644  0  4.020116  0  -0.093229  0  -0.083469  -0.107722  0  3.983788  0
C  C39  1  0.91547457  0.39566989  0.16868278  1  0  -0.104051  0  3.748016  0  0  -0.112154  0  3.998708  0  0  -0.118775  0  4.02045  0  -0.034306  0  -0.082576  -0.107975  0  3.984091  0
C  C40  1  0.52702757  0.15264717  0.48122291  1  0  -0.117913  0  3.678236  0  0  -0.14516  0  3.925326  0  0  -0.144848  0  3.943502  0  -0.036979  0  -0.073607  -0.14489  0  3.913045  0
C  C41  1  0.97344324  0.51859313  0.84745998  1  0  -0.116186  0  3.676363  0  0  -0.142972  0  3.923984  0  0  -0.142759  0  3.942091  0  -0.030992  0  -0.07312  -0.142671  0  3.911714  0
C  C42  1  0.47297101  0.84735114  0.51877579  1  0  -0.117942  0  3.678261  0  0  -0.145197  0  3.925359  0  0  -0.144885  0  3.943536  0  -0.037021  0  -0.073612  -0.144914  0  3.913079  0
C  C43  1  0.02655653  0.48140686  0.15253957  1  0  -0.116279  0  3.676428  0  0  -0.143058  0  3.924068  0  0  -0.142844  0  3.942167  0  -0.031022  0  -0.073139  -0.142757  0  3.911797  0
C  C44  1  0.68945853  0.10400201  0.47435807  1  0  0.215704  0  3.811833  0  0  0.212029  0  4.074451  0  0  0.215799  0  4.09314  0  0.446121  0  0.085779  0.208945  0  4.061934  0
C  C45  1  0.81070974  0.52529226  0.89613945  1  0  0.213852  0  3.811084  0  0  0.210087  0  4.074455  0  0  0.213926  0  4.093128  0  0.478831  0  0.085559  0.206976  0  4.061922  0
C  C46  1  0.31053867  0.89599798  0.52564234  1  0  0.215721  0  3.811851  0  0  0.212033  0  4.074475  0  0  0.215803  0  4.093163  0  0.445872  0  0.085795  0.208965  0  4.061953  0
C  C47  1  0.18928884  0.47470606  0.10386157  1  0  0.214062  0  3.811006  0  0  0.210234  0  4.074427  0  0  0.214079  0  4.093094  0  0.479081  0  0.08563  0.207125  0  4.061891  0
C  C48  1  0.73594233  0.07399135  0.38388744  1  0  0.017371  0  3.690226  0  0  -0.0228  0  3.947318  0  0  -0.017693  0  3.963826  0  0.489904  0  0.036347  -0.026019  0  3.936163  0
C  C49  1  0.76324821  0.61567615  0.92534822  1  0  0.019744  0  3.684375  0  0  -0.020465  0  3.941319  0  0  -0.015396  0  3.957867  0  0.479562  0  0.037692  -0.0237  0  3.930179  0
C  C50  1  0.26405868  0.92600948  0.61611173  1  0  0.017323  0  3.690274  0  0  -0.022831  0  3.947353  0  0  -0.017726  0  3.963862  0  0.490004  0  0.036343  -0.026048  0  3.936193  0
C  C51  1  0.23675161  0.38432300  0.07465397  1  0  0.019691  0  3.68441  0  0  -0.020511  0  3.941369  0  0  -0.015442  0  3.957913  0  0.479291  0  0.037692  -0.023745  0  3.930228  0
C  C52  1  0.86595490  0.16600447  0.58044031  1  0  0.255515  0  3.764846  0  0  0.238361  0  4.029282  0  0  0.248027  0  4.044443  0  0.385619  0  0.086385  0.231565  0  4.01912  0
C  C53  1  0.63439361  0.41926981  0.83429441  1  0  0.255458  0  3.763685  0  0  0.238401  0  4.028265  0  0  0.248136  0  4.043352  0  0.422208  0  0.085739  0.231552  0  4.018153  0
C  C54  1  0.13404358  0.83399552  0.41956005  1  0  0.255499  0  3.764876  0  0  0.238343  0  4.029307  0  0  0.248008  0  4.04447  0  0.385613  0  0.086375  0.231561  0  4.019145  0
C  C55  1  0.36560858  0.58073268  0.16570330  1  0  0.255472  0  3.763555  0  0  0.238412  0  4.028125  0  0  0.248152  0  4.043207  0  0.422036  0  0.08577  0.231565  0  4.018013  0
C  C56  1  0.88646227  0.27141585  0.49490060  1  0  -0.186949  0  3.785315  0  0  -0.208605  0  4.038709  0  0  -0.21212  0  4.057606  0  -0.025498  0  -0.106434  -0.206084  0  4.025873  0
C  C57  1  0.61271927  0.50428622  0.72837321  1  0  -0.185511  0  3.78469  0  0  -0.207273  0  4.037564  0  0  -0.210723  0  4.056425  0  0.030508  0  -0.10529  -0.204755  0  4.024752  0
C  C58  1  0.11353617  0.72858497  0.50509944  1  0  -0.186953  0  3.785316  0  0  -0.208616  0  4.038706  0  0  -0.212131  0  4.057605  0  -0.025439  0  -0.10645  -0.206093  0  4.025867  0
C  C59  1  0.38728040  0.49571544  0.27162646  1  0  -0.185526  0  3.784664  0  0  -0.207284  0  4.03752  0  0  -0.210736  0  4.056382  0  0.030538  0  -0.105307  -0.204769  0  4.024709  0
C  C60  1  0.95828432  0.35481390  0.51944036  1  0  -0.057216  0  3.808163  0  0  -0.067796  0  4.056378  0  0  -0.068815  0  4.07728  0  0.029865  0  -0.094765  -0.067081  0  4.042116  0
C  C61  1  0.53985412  0.47994148  0.64472286  1  0  -0.058175  0  3.808865  0  0  -0.068432  0  4.056923  0  0  -0.069513  0  4.077797  0  -0.127528  0  -0.09578  -0.067676  0  4.042702  0
C  C62  1  0.04171416  0.64518609  0.48056078  1  0  -0.057259  0  3.808221  0  0  -0.067853  0  4.056447  0  0  -0.068874  0  4.077352  0  0.029902  0  -0.094808  -0.067139  0  4.042186  0
C  C63  1  0.46014936  0.52006102  0.35527403  1  0  -0.058326  0  3.808901  0  0  -0.068559  0  4.056971  0  0  -0.069628  0  4.077848  0  -0.127471  0  -0.09584  -0.067802  0  4.042749  0
C  C64  1  0.00856305  0.33247706  0.62795521  1  0  -0.080768  0  3.748783  0  0  -0.111921  0  4.007139  0  0  -0.113025  0  4.027443  0  -0.061486  0  -0.091464  -0.111037  0  3.993477  0
C  C65  1  0.49024042  0.37207916  0.66699536  1  0  -0.079984  0  3.74823  0  0  -0.110946  0  4.006611  0  0  -0.112072  0  4.026852  0  0.030068  0  -0.091461  -0.110097  0  3.992953  0
C  C66  1  0.99143810  0.66752126  0.37204572  1  0  -0.080681  0  3.748809  0  0  -0.111827  0  4.007172  0  0  -0.11294  0  4.027468  0  -0.061561  0  -0.091416  -0.110944  0  3.993511  0
C  C67  1  0.50976188  0.62792167  0.33300300  1  0  -0.079909  0  3.748048  0  0  -0.110869  0  4.006449  0  0  -0.111994  0  4.026684  0  0.030049  0  -0.091422  -0.110021  0  3.992792  0
C  C68  1  0.98869559  0.22649056  0.71348190  1  0  -0.041275  0  3.727405  0  0  -0.026563  0  3.963534  0  0  -0.031648  0  3.984827  0  0.022436  0  -0.009476  -0.023443  0  3.9495  0
C  C69  1  0.51131465  0.28696997  0.77344309  1  0  -0.043572  0  3.728222  0  0  -0.029445  0  3.965185  0  0  -0.03448  0  3.986382  0  0.027172  0  -0.009926  -0.026272  0  3.951105  0
C  C70  1  0.01130685  0.77350775  0.28651899  1  0  -0.041296  0  3.727551  0  0  -0.026603  0  3.963682  0  0  -0.031688  0  3.984975  0  0.022446  0  -0.009483  -0.023479  0  3.949641  0
C  C71  1  0.48868250  0.71303086  0.22655622  1  0  -0.043587  0  3.728177  0  0  -0.029462  0  3.965157  0  0  -0.034497  0  3.986355  0  0.027084  0  -0.00995  -0.02629  0  3.951077  0
C  C72  1  0.91600381  0.14161125  0.69030437  1  0  -0.139363  0  3.666867  0  0  -0.134595  0  3.911184  0  0  -0.139815  0  3.927774  0  0.003418  0  -0.009757  -0.1312  0  3.900329  0
C  C73  1  0.58461131  0.31011598  0.85866643  1  0  -0.138771  0  3.669844  0  0  -0.13276  0  3.91349  0  0  -0.138005  0  3.930101  0  -0.012031  0  -0.009087  -0.129405  0  3.902633  0
C  C74  1  0.08399730  0.85838790  0.30969546  1  0  -0.139377  0  3.667014  0  0  -0.134614  0  3.911347  0  0  -0.139838  0  3.927933  0  0.003078  0  -0.009772  -0.131219  0  3.900486  0
C  C75  1  0.41538579  0.68988568  0.14133410  1  0  -0.138796  0  3.669805  0  0  -0.132794  0  3.913451  0  0  -0.138038  0  3.930061  0  -0.012216  0  -0.009053  -0.129438  0  3.902593  0
C  C76  1  0.05610629  0.20453825  0.82650020  1  0  0.640587  0  3.9155  0  0  0.585165  0  4.208346  0  0  0.620228  0  4.202649  0  1.55113  0  0.196359  0.561368  0  4.211354  0
C  C77  1  0.44414250  0.17450419  0.79566913  1  0  0.639137  0  3.915888  0  0  0.58369  0  4.209252  0  0  0.618733  0  4.203609  0  1.549299  0  0.195662  0.559882  0  4.212211  0
C  C78  1  0.94389353  0.79546090  0.17350045  1  0  0.640665  0  3.915438  0  0  0.585258  0  4.208251  0  0  0.62033  0  4.202552  0  1.551146  0  0.19639  0.56146  0  4.21126  0
C  C79  1  0.55585589  0.82549747  0.20433059  1  0  0.639091  0  3.915988  0  0  0.583628  0  4.209361  0  0  0.618673  0  4.203718  0  1.549462  0  0.195636  0.55982  0  4.21232  0
C  C80  1  0.89009570  0.02570646  0.77820501  1  0  0.699881  0  3.892172  0  0  0.637541  0  4.200886  0  0  0.675876  0  4.188992  0  1.622058  0  0.210701  0.611274  0  4.208263  0
C  C81  1  0.61009129  0.22235523  0.97505081  1  0  0.699404  0  3.897995  0  0  0.635876  0  4.208587  0  0  0.674218  0  4.196693  0  1.626598  0  0.21007  0.60961  0  4.215974  0
C  C82  1  0.10990545  0.97429185  0.22179592  1  0  0.699978  0  3.892158  0  0  0.637619  0  4.200898  0  0  0.67597  0  4.188975  0  1.623138  0  0.210752  0.611354  0  4.208274  0
C  C83  1  0.38990710  0.77764644  0.02494890  1  0  0.699609  0  3.89779  0  0  0.636115  0  4.208322  0  0  0.674456  0  4.196424  0  1.626649  0  0.21017  0.609848  0  4.21571  0
N  N84  1  0.62667308  0.09001108  0.30159551  1  0  -0.318948  0  3.274835  0  0  -0.23972  0  3.540988  0  0  -0.260004  0  3.560442  0  -1.223563  0  -0.322351  -0.225861  0  3.527472  0
N  N85  1  0.87189488  0.69791811  0.90858451  1  0  -0.318818  0  3.273144  0  0  -0.239479  0  3.539676  0  0  -0.259766  0  3.559208  0  -1.239113  0  -0.322612  -0.225615  0  3.526102  0
N  N86  1  0.37332793  0.90998975  0.69840289  1  0  -0.318886  0  3.274834  0  0  -0.239655  0  3.540976  0  0  -0.259939  0  3.560433  0  -1.223552  0  -0.32232  -0.225797  0  3.52746  0
N  N87  1  0.12810365  0.30208104  0.09141618  1  0  -0.31884  0  3.273203  0  0  -0.239523  0  3.539735  0  0  -0.259811  0  3.559269  0  -1.239126  0  -0.322666  -0.225661  0  3.526162  0
O  O88  1  0.80465474  0.07799712  0.55948443  1  0  -0.294555  0  2.34851  0  0  -0.227791  0  2.574238  0  0  -0.244515  0  2.576918  0  -1.094846  0  -0.154371  -0.215818  0  2.572146  0
O  O89  1  0.69641424  0.44012622  0.92276758  1  0  -0.295096  0  2.345492  0  0  -0.229129  0  2.571975  0  0  -0.245952  0  2.574706  0  -1.102523  0  -0.154943  -0.217057  0  2.569795  0
O  O90  1  0.19534370  0.92200371  0.44051561  1  0  -0.294558  0  2.348467  0  0  -0.22778  0  2.574185  0  0  -0.244504  0  2.576864  0  -1.094872  0  -0.154386  -0.215845  0  2.572117  0
O  O91  1  0.30358425  0.55987377  0.07723201  1  0  -0.295202  0  2.345458  0  0  -0.229183  0  2.571929  0  0  -0.246011  0  2.574658  0  -1.102311  0  -0.154997  -0.217114  0  2.569749  0
O  O92  1  0.10506569  0.28609057  0.84720723  1  0  -0.632202  0  1.973635  0  0  -0.57236  0  2.214487  0  0  -0.601804  0  2.207008  0  -1.156377  0  -0.319404  -0.551664  0  2.218871  0
O  O93  1  0.39433557  0.15410921  0.71364395  1  0  -0.631253  0  1.975794  0  0  -0.571157  0  2.216318  0  0  -0.60062  0  2.208876  0  -1.160239  0  -0.318369  -0.55043  0  2.220686  0
O  O94  1  0.89493285  0.71390858  0.15279191  1  0  -0.632202  0  1.973725  0  0  -0.572374  0  2.214573  0  0  -0.601818  0  2.20709  0  -1.156404  0  -0.3194  -0.551675  0  2.218952  0
O  O95  1  0.60566554  0.84588994  0.28635588  1  0  -0.63126  0  1.975831  0  0  -0.571169  0  2.216396  0  0  -0.600633  0  2.208955  0  -1.160243  0  -0.3184  -0.550439  0  2.220762  0
O  O96  1  0.07225416  0.10338509  0.89762175  1  0  -0.642443  0  2.051274  0  0  -0.56327  0  2.296633  0  0  -0.59538  0  2.287589  0  -1.148787  0  -0.314478  -0.540751  0  2.30201  0
O  O97  1  0.42888685  0.10361079  0.89745020  1  0  -0.641743  0  2.051143  0  0  -0.562773  0  2.296457  0  0  -0.594969  0  2.28759  0  -1.139573  0  -0.313683  -0.540218  0  2.301758  0
O  O98  1  0.92774824  0.89661406  0.10238036  1  0  -0.642554  0  2.051186  0  0  -0.563331  0  2.296486  0  0  -0.595457  0  2.287437  0  -1.148742  0  -0.314503  -0.540814  0  2.301863  0
O  O99  1  0.57111283  0.89639087  0.10254947  1  0  -0.641689  0  2.051246  0  0  -0.56271  0  2.296564  0  0  -0.594906  0  2.287695  0  -1.139585  0  -0.313632  -0.540155  0  2.301865  0
O  O100  1  0.74504109  0.00653863  0.82976302  1  0  -0.586  0  1.976928  0  0  -0.515667  0  2.221336  0  0  -0.546823  0  2.2111  0  -1.133178  0  -0.29897  -0.493869  0  2.227638  0
O  O101  1  0.75432203  0.17003197  0.99397052  1  0  -0.584965  0  1.979021  0  0  -0.51535  0  2.225669  0  0  -0.546527  0  2.215435  0  -1.136382  0  -0.299032  -0.493488  0  2.231916  0
O  O102  1  0.25496002  0.99346052  0.17023759  1  0  -0.586031  0  1.97697  0  0  -0.515695  0  2.221386  0  0  -0.546862  0  2.211146  0  -1.133444  0  -0.298978  -0.493893  0  2.227679  0
O  O103  1  0.24567517  0.82996802  0.00602912  1  0  -0.585036  0  1.978939  0  0  -0.515433  0  2.225574  0  0  -0.546612  0  2.21534  0  -1.13641  0  -0.299069  -0.493569  0  2.23182  0
O  O104  1  0.01098456  0.95134061  0.79352276  1  0  -0.687958  0  2.053882  0  0  -0.620952  0  2.32207  0  0  -0.653057  0  2.308714  0  -1.178918  0  -0.329424  -0.598054  0  2.330294  0
O  O105  1  0.48913336  0.20766964  0.04971366  1  0  -0.687651  0  2.05774  0  0  -0.620538  0  2.326961  0  0  -0.652374  0  2.313305  0  -1.186635  0  -0.329345  -0.597721  0  2.335136  0
O  O106  1  0.98901788  0.04865771  0.20647890  1  0  -0.68801  0  2.053863  0  0  -0.620959  0  2.321991  0  0  -0.653067  0  2.308623  0  -1.179392  0  -0.329448  -0.598063  0  2.330216  0
O  O107  1  0.51086632  0.79233202  0.95028756  1  0  -0.68776  0  2.05768  0  0  -0.620665  0  2.326904  0  0  -0.652499  0  2.313242  0  -1.186597  0  -0.329406  -0.59785  0  2.335085  0
