# generated using pymatgen
data_ZnH4(CO3)2
_symmetry_space_group_name_H-M   'P 1'
_cell_length_a   5.51807779
_cell_length_b   6.49688777
_cell_length_c   8.16659071
_cell_angle_alpha   80.60312063
_cell_angle_beta   70.30465683
_cell_angle_gamma   64.84336524
_symmetry_Int_Tables_number   1
_chemical_formula_structural   ZnH4(CO3)2
_chemical_formula_sum   'Zn2 H8 C4 O12'
_cell_volume   249.43289311
_cell_formula_units_Z   2
loop_
 _symmetry_equiv_pos_site_id
 _symmetry_equiv_pos_as_xyz
  1  'x, y, z'
loop_
 _atom_site_type_symbol
 _atom_site_label
 _atom_site_symmetry_multiplicity
 _atom_site_fract_x
 _atom_site_fract_y
 _atom_site_fract_z
 _atom_site_occupancy
 _atom_site_hle17_bader_spin_density
 _atom_site_hle17_ddec_charge
 _atom_site_hle17_ddec_spin_density
 _atom_site_hle17_ddec_sum_bond_order
 _atom_site_hle17_magmom
 _atom_site_hse06_10hf_bader_spin_density
 _atom_site_hse06_10hf_ddec_charge
 _atom_site_hse06_10hf_ddec_spin_density
 _atom_site_hse06_10hf_ddec_sum_bond_order
 _atom_site_hse06_10hf_magmom
 _atom_site_hse06_bader_spin_density
 _atom_site_hse06_ddec_charge
 _atom_site_hse06_ddec_spin_density
 _atom_site_hse06_ddec_sum_bond_order
 _atom_site_hse06_magmom
 _atom_site_pbe_bader_spin_density
 _atom_site_pbe_cm5_charge
 _atom_site_pbe_ddec_charge
 _atom_site_pbe_ddec_spin_density
 _atom_site_pbe_ddec_sum_bond_order
 _atom_site_pbe_magmom
Zn  Zn0  1  0.42672852  0.75002122  0.75012022  1  0  1.163619  0  1.698972  0  0  1.00329  0  2.13557  0  0  1.049346  0  2.080258  0  0  0.675875  0.970793  0  2.173709  0
Zn  Zn1  1  0.57327078  0.24997992  0.24988141  1  0  1.163676  0  1.698912  0  0  1.003309  0  2.135508  0  0  1.04938  0  2.080195  0  0  0.67587  0.970812  0  2.173637  0
H  H2  1  0.18908342  0.17606249  0.64245038  1  0  0.429249  0  0.867466  0  0  0.396715  0  0.93317  0  0  0.407797  0  0.917066  0  0  0.293061  0.388829  0  0.944636  0
H  H3  1  0.50760143  0.32394378  0.85740668  1  0  0.432945  0  0.862754  0  0  0.400475  0  0.928606  0  0  0.411586  0  0.912394  0  0  0.294612  0.392593  0  0.94011  0
H  H4  1  0.81091618  0.82393866  0.35754506  1  0  0.429287  0  0.867422  0  0  0.396748  0  0.933133  0  0  0.407829  0  0.917031  0  0  0.293098  0.388862  0  0.9446  0
H  H5  1  0.49239215  0.67605736  0.14259491  1  0  0.43298  0  0.862726  0  0  0.400516  0  0.92857  0  0  0.411624  0  0.912361  0  0  0.294642  0.392635  0  0.940071  0
H  H6  1  0.12239235  0.17554707  0.85125519  1  0  0.429345  0  0.868185  0  0  0.396605  0  0.93479  0  0  0.4078  0  0.918394  0  0  0.293469  0.388641  0  0.946461  0
H  H7  1  0.64967883  0.32454087  0.64870761  1  0  0.429333  0  0.867908  0  0  0.396783  0  0.934224  0  0  0.407972  0  0.917831  0  0  0.293133  0.388817  0  0.945889  0
H  H8  1  0.87760287  0.82445748  0.14874101  1  0  0.429308  0  0.868226  0  0  0.396568  0  0.934824  0  0  0.40776  0  0.918432  0  0  0.293452  0.388607  0  0.946491  0
H  H9  1  0.35031663  0.67546197  0.35129314  1  0  0.429316  0  0.867898  0  0  0.396784  0  0.934191  0  0  0.407973  0  0.917797  0  0  0.293142  0.388817  0  0.945857  0
C  C10  1  0.97652577  0.74880090  0.64870139  1  0  0.555494  0  3.863208  0  0  0.501829  0  4.161062  0  0  0.53229  0  4.154103  0  0  0.221598  0.481126  0  4.165201  0
C  C11  1  0.87423892  0.75112599  0.85148928  1  0  0.55565  0  3.863292  0  0  0.501673  0  4.161512  0  0  0.532102  0  4.154578  0  0  0.221467  0.481054  0  4.16563  0
C  C12  1  0.02349905  0.25119173  0.35130012  1  0  0.555697  0  3.863402  0  0  0.501984  0  4.161313  0  0  0.532459  0  4.154327  0  0  0.221677  0.481289  0  4.165448  0
C  C13  1  0.12578285  0.24887344  0.14851377  1  0  0.555867  0  3.863423  0  0  0.501789  0  4.161823  0  0  0.532231  0  4.154871  0  0  0.221422  0.481163  0  4.165957  0
O  O14  1  0.81077389  0.74785454  0.57345716  1  0  -0.570778  0  2.113103  0  0  -0.497408  0  2.353671  0  0  -0.524692  0  2.344043  0  0  -0.281672  -0.4785  0  2.359905  0
O  O15  1  0.63255299  0.75203002  0.92673882  1  0  -0.570767  0  2.112454  0  0  -0.498414  0  2.354762  0  0  -0.525824  0  2.345369  0  0  -0.281955  -0.479564  0  2.360946  0
O  O16  1  0.18922111  0.25213641  0.42654045  1  0  -0.570804  0  2.113639  0  0  -0.497375  0  2.354171  0  0  -0.524663  0  2.344537  0  0  -0.281689  -0.478475  0  2.360401  0
O  O17  1  0.36743005  0.24796261  0.07326817  1  0  -0.570893  0  2.113251  0  0  -0.498466  0  2.355576  0  0  -0.5259  0  2.346189  0  0  -0.281935  -0.479619  0  2.361768  0
O  O18  1  0.21895601  0.74782246  0.57276082  1  0  -0.586056  0  2.09861  0  0  -0.517153  0  2.342279  0  0  -0.543796  0  2.331135  0  0  -0.285548  -0.498696  0  2.349593  0
O  O19  1  0.04009760  0.75213612  0.92733264  1  0  -0.586679  0  2.100653  0  0  -0.516828  0  2.34385  0  0  -0.543404  0  2.33265  0  0  -0.285557  -0.498415  0  2.351141  0
O  O20  1  0.78104423  0.25217187  0.42724338  1  0  -0.586334  0  2.09851  0  0  -0.517313  0  2.342083  0  0  -0.543964  0  2.330931  0  0  -0.285577  -0.498842  0  2.349354  0
O  O21  1  0.95989691  0.24787353  0.07266555  1  0  -0.586788  0  2.100167  0  0  -0.516967  0  2.343502  0  0  -0.543549  0  2.332276  0  0  -0.285563  -0.49854  0  2.350771  0
O  O22  1  0.26616506  0.10710333  0.74122054  1  0  -0.838797  0  1.92672  0  0  -0.78195  0  2.139518  0  0  -0.803775  0  2.104344  0  0  -0.578746  -0.7665  0  2.163971  0
O  O23  1  0.61460646  0.39288867  0.75891747  1  0  -0.84251  0  1.923642  0  0  -0.785612  0  2.135283  0  0  -0.807388  0  2.10013  0  0  -0.579744  -0.770181  0  2.15971  0
O  O24  1  0.73383370  0.89289951  0.25878272  1  0  -0.838797  0  1.926739  0  0  -0.781918  0  2.139529  0  0  -0.803754  0  2.104383  0  0  -0.578747  -0.766468  0  2.16398  0
O  O25  1  0.38539140  0.60711418  0.24108082  1  0  -0.842562  0  1.923567  0  0  -0.785665  0  2.135184  0  0  -0.80744  0  2.100038  0  0  -0.579785  -0.770237  0  2.159615  0
