# generated using pymatgen
data_CuH7C9N2
_symmetry_space_group_name_H-M   'P 1'
_cell_length_a   33.04142403
_cell_length_b   33.40237712
_cell_length_c   35.36334182
_cell_angle_alpha   90.64325133
_cell_angle_beta   90.99069382
_cell_angle_gamma   90.58751917
_symmetry_Int_Tables_number   1
_chemical_formula_structural   CuH7C9N2
_chemical_formula_sum   'Cu12 H84 C108 N24'
_cell_volume   39018.75605376
_cell_formula_units_Z   12
loop_
 _symmetry_equiv_pos_site_id
 _symmetry_equiv_pos_as_xyz
  1  'x, y, z'
loop_
 _atom_site_type_symbol
 _atom_site_label
 _atom_site_symmetry_multiplicity
 _atom_site_fract_x
 _atom_site_fract_y
 _atom_site_fract_z
 _atom_site_occupancy
 _atom_site_pbe_bader_charge
 _atom_site_pbe_bader_spin_density
 _atom_site_pbe_cm5_charge
 _atom_site_pbe_ddec_charge
 _atom_site_pbe_ddec_spin_density
 _atom_site_pbe_ddec_sum_bond_order
 _atom_site_pbe_magmom
Cu  Cu0  1  0.66282257  0.37157270  0.59459697  1  0.543606  0  0.485507  0.20482  0  2.117888  0
Cu  Cu1  1  0.58782189  0.33014630  0.63374232  1  0.545144  0  0.483351  0.204943  0  2.105584  0
Cu  Cu2  1  0.62813574  0.40940382  0.66992280  1  0.541465  0  0.485821  0.204761  0  2.11484  0
Cu  Cu3  1  0.15399147  0.61709423  0.91748801  1  0.542909  0  0.487262  0.204889  0  2.125345  0
Cu  Cu4  1  0.09146365  0.66771911  0.86966895  1  0.541945  0  0.484616  0.204415  0  2.11359  0
Cu  Cu5  1  0.12255274  0.58388763  0.83800923  1  0.543754  0  0.486088  0.204005  0  2.119467  0
Cu  Cu6  1  0.83578740  0.87083283  0.40275718  1  0.542136  0  0.485112  0.204538  0  2.11655  0
Cu  Cu7  1  0.91474470  0.83293684  0.36771804  1  0.543614  0  0.483078  0.203831  0  2.109959  0
Cu  Cu8  1  0.87487058  0.91035656  0.33088007  1  0.543644  0  0.487046  0.206167  0  2.11587  0
Cu  Cu9  1  0.34784291  0.12242717  0.08333039  1  0.544753  0  0.487757  0.204964  0  2.128856  0
Cu  Cu10  1  0.41223270  0.17442717  0.12946360  1  0.540893  0  0.48479  0.203757  0  2.116644  0
Cu  Cu11  1  0.37236625  0.09743635  0.16684706  1  0.543784  0  0.484743  0.204241  0  2.114473  0
H  H12  1  0.67539793  0.31284213  0.52531265  1  0.054907  0  0.120226  0.109864  0  0.991917  0
H  H13  1  0.57207441  0.25600559  0.57718313  1  0.096084  0  0.120435  0.112888  0  0.986509  0
H  H14  1  0.68855455  0.48288706  0.68269677  1  0.094813  0  0.120309  0.110411  0  0.991153  0
H  H15  1  0.73477158  0.43272061  0.57864488  1  0.095384  0  0.120389  0.112514  0  0.987772  0
H  H16  1  0.51836309  0.31400044  0.69223362  1  0.084764  0  0.120213  0.110042  0  0.990879  0
H  H17  1  0.57155018  0.42250357  0.74062772  1  0.092462  0  0.120708  0.113208  0  0.987352  0
H  H18  1  0.16472792  0.67277744  0.99056311  1  0.115185  0  0.120731  0.112862  0  0.986299  0
H  H19  1  0.08783259  0.74685893  0.92040907  1  0.074214  0  0.120691  0.110899  0  0.990311  0
H  H20  1  0.18269455  0.51045318  0.82654643  1  0.0887  0  0.120517  0.1129  0  0.987179  0
H  H21  1  0.22057266  0.55370584  0.93778022  1  0.070017  0  0.120422  0.110063  0  0.992083  0
H  H22  1  0.02329532  0.68684824  0.80812407  1  0.100242  0  0.120537  0.113202  0  0.987494  0
H  H23  1  0.06392654  0.57146497  0.76732179  1  0.091493  0  0.120569  0.110224  0  0.991696  0
H  H24  1  0.82073445  0.81226230  0.47068129  1  0.065022  0  0.120316  0.109843  0  0.991504  0
H  H25  1  0.92998634  0.76131787  0.42515677  1  0.110269  0  0.120468  0.112807  0  0.9885  0
H  H26  1  0.81522255  0.98300403  0.31740024  1  0.101514  0  0.120359  0.109689  0  0.992327  0
H  H27  1  0.76228787  0.92968352  0.41645793  1  0.081776  0  0.120523  0.112611  0  0.986136  0
H  H28  1  0.98823027  0.81969771  0.31218311  1  0.131204  0  0.120524  0.113006  0  0.987989  0
H  H29  1  0.93457015  0.92573035  0.26373009  1  0.108838  0  0.12046  0.110442  0  0.991677  0
H  H30  1  0.33899468  0.17379119  0.00857390  1  0.091581  0  0.120655  0.112732  0  0.987211  0
H  H31  1  0.41892076  0.25051430  0.07630096  1  0.110096  0  0.120777  0.111107  0  0.990822  0
H  H32  1  0.30968558  0.02529054  0.17895332  1  0.098968  0  0.120527  0.112684  0  0.986872  0
H  H33  1  0.28221981  0.05647607  0.06270453  1  0.082416  0  0.120412  0.110136  0  0.99189  0
H  H34  1  0.48319533  0.19307880  0.18901374  1  0.102308  0  0.120544  0.113564  0  0.987272  0
H  H35  1  0.42441517  0.09263393  0.24269109  1  0.102036  0  0.120121  0.110691  0  0.990383  0
H  H36  1  0.07117471  0.81875405  0.12179954  1  0.043428  0  0.097029  0.099152  0  1.005328  0
H  H37  1  0.12127835  0.92821070  0.16929295  1  0.062662  0  0.097075  0.097432  0  1.016701  0
H  H38  1  0.16823139  0.87948458  0.06584494  1  0.059873  0  0.097602  0.097579  0  1.025508  0
H  H39  1  0.67637934  0.12690663  0.42797282  1  0.069402  0  0.097238  0.097935  0  1.015232  0
H  H40  1  0.62747172  0.08222973  0.32176649  1  0.040715  0  0.09783  0.099202  0  1.01388  0
H  H41  1  0.56633322  0.17601158  0.38166620  1  0.047357  0  0.097036  0.098936  0  1.012147  0
H  H42  1  0.42960462  0.31872428  0.87329001  1  0.058694  0  0.097714  0.099088  0  1.015943  0
H  H43  1  0.37547035  0.42509914  0.82775412  1  0.05015  0  0.097049  0.099109  0  1.005597  0
H  H44  1  0.33368714  0.37659920  0.93271569  1  0.050335  0  0.097233  0.097066  0  1.024309  0
H  H45  1  0.93335233  0.68356774  0.61718770  1  0.061791  0  0.097233  0.099229  0  1.006781  0
H  H46  1  0.87755823  0.58291486  0.67160550  1  0.038156  0  0.096943  0.095989  0  1.029034  0
H  H47  1  0.82383136  0.63055079  0.57020357  1  0.032547  0  0.0972  0.097972  0  1.015847  0
H  H48  1  0.11360791  0.80424243  0.96407754  1  0.022838  0  0.095197  0.093222  0  0.995192  0
H  H49  1  0.12960043  0.85445805  0.01402622  1  0.040613  0  0.096296  0.092399  0  0.997581  0
H  H50  1  0.14269823  0.74501531  0.02438447  1  0.0827  0  0.099001  0.098866  0  0.997033  0
H  H51  1  0.10491207  0.78672458  0.06719349  1  0.050304  0  0.096337  0.094808  0  1.004597  0
H  H52  1  0.68215431  0.24873826  0.48961852  1  0.056166  0  0.095003  0.092057  0  0.996485  0
H  H53  1  0.68355488  0.19085616  0.44764167  1  0.042285  0  0.096506  0.091774  0  1.000685  0
H  H54  1  0.59672779  0.21935672  0.50945945  1  0.038921  0  0.099008  0.098704  0  0.994971  0
H  H55  1  0.59107625  0.19887734  0.44389515  1  0.064505  0  0.096696  0.096384  0  1.002452  0
H  H56  1  0.39338903  0.30607649  0.03229652  1  0.069494  0  0.095453  0.093277  0  0.995287  0
H  H57  1  0.37537255  0.35450848  0.98280913  1  0.037576  0  0.096236  0.092146  0  0.997218  0
H  H58  1  0.36179820  0.24459368  0.97329515  1  0.023824  0  0.098988  0.098734  0  0.99642  0
H  H59  1  0.39833845  0.28621621  0.92869540  1  0.043643  0  0.096438  0.095895  0  1.003376  0
H  H60  1  0.81597613  0.75009366  0.50834006  1  0.06585  0  0.095021  0.091734  0  0.996886  0
H  H61  1  0.81540359  0.69276684  0.55013288  1  0.037217  0  0.096566  0.09257  0  1.000486  0
H  H62  1  0.90295830  0.72466694  0.49110367  1  0.052121  0  0.099356  0.099462  0  0.996061  0
H  H63  1  0.90725042  0.70696039  0.55678701  1  0.051763  0  0.096157  0.094755  0  1.003859  0
H  H64  1  0.23697973  0.99781827  0.06076271  1  0.051417  0  0.09482  0.091955  0  0.997686  0
H  H65  1  0.19252647  0.93940897  0.05931791  1  0.042651  0  0.096334  0.091525  0  1.002042  0
H  H66  1  0.24724559  0.98000882  0.14551234  1  0.054583  0  0.099855  0.099171  0  0.995797  0
H  H67  1  0.18024324  0.95812276  0.14360043  1  0.051806  0  0.095935  0.094126  0  1.006621  0
H  H68  1  0.75187683  0.52567511  0.68408466  1  0.05327  0  0.095144  0.093041  0  0.99596  0
H  H69  1  0.81282886  0.56743976  0.68238182  1  0.061245  0  0.097103  0.093585  0  0.998451  0
H  H70  1  0.77532996  0.50108804  0.60339842  1  0.054765  0  0.098879  0.098281  0  0.996539  0
H  H71  1  0.79665259  0.56888340  0.59659540  1  0.046091  0  0.09639  0.095575  0  1.003939  0
H  H72  1  0.75139249  0.02298586  0.31308114  1  0.03179  0  0.095108  0.092553  0  0.996675  0
H  H73  1  0.69099276  0.06464486  0.31351501  1  0.052695  0  0.09632  0.091564  0  1.000388  0
H  H74  1  0.72447666  0.99937767  0.39266001  1  0.055381  0  0.09932  0.098938  0  0.99546  0
H  H75  1  0.70558908  0.06788392  0.39952883  1  0.044071  0  0.096422  0.095532  0  1.003909  0
H  H76  1  0.26483861  0.49438045  0.94065140  1  0.035881  0  0.09517  0.092201  0  0.996939  0
H  H77  1  0.30964969  0.43659169  0.94081801  1  0.052537  0  0.096356  0.09186  0  1.001273  0
H  H78  1  0.24840329  0.47010468  0.85760485  1  0.041781  0  0.099284  0.098599  0  0.9974  0
H  H79  1  0.31669353  0.45322706  0.85589897  1  0.034879  0  0.095655  0.093124  0  1.007781  0
H  H80  1  0.99841887  0.93219611  0.22807838  1  0.017939  0  0.094917  0.091759  0  0.997098  0
H  H81  1  0.05659863  0.93447063  0.18728309  1  0.067651  0  0.096566  0.091908  0  1.000952  0
H  H82  1  0.02599476  0.84695199  0.24684207  1  0.058129  0  0.099368  0.099634  0  0.994028  0
H  H83  1  0.04737456  0.84295226  0.18272963  1  0.02138  0  0.096636  0.095579  0  1.003541  0
H  H84  1  0.48192419  0.30827730  0.75400759  1  0.035305  0  0.09491  0.09245  0  0.996709  0
H  H85  1  0.44347265  0.30812211  0.81264428  1  0.046381  0  0.096586  0.092123  0  0.999321  0
H  H86  1  0.50382703  0.39454151  0.77837582  1  0.062521  0  0.099249  0.099294  0  0.996359  0
H  H87  1  0.43535856  0.39828023  0.79844422  1  0.018607  0  0.096155  0.094301  0  1.004697  0
H  H88  1  0.00102738  0.57018252  0.72802022  1  0.028372  0  0.095036  0.09206  0  0.996333  0
H  H89  1  0.94095497  0.57127792  0.68744828  1  0.060538  0  0.097151  0.093464  0  0.999428  0
H  H90  1  0.98246285  0.65888938  0.74313437  1  0.0552  0  0.09924  0.098596  0  0.995888  0
H  H91  1  0.96016400  0.66081960  0.67845553  1  0.003064  0  0.096536  0.095495  0  1.003339  0
H  H92  1  0.46033625  0.12247671  0.30358071  1  0.042981  0  0.095444  0.093432  0  0.994736  0
H  H93  1  0.51151301  0.13836535  0.35440407  1  0.045098  0  0.096689  0.093525  0  0.996842  0
H  H94  1  0.52447541  0.16218848  0.25408030  1  0.064937  0  0.098603  0.098419  0  0.997269  0
H  H95  1  0.57041458  0.11792563  0.29100589  1  0.055182  0  0.096541  0.095671  0  1.003333  0
C  C96  1  0.65043288  0.30356399  0.54285190  1  0.439089  0  0.00904  -0.049276  0  3.937848  0
C  C97  1  0.62387618  0.27046567  0.53868766  1  0.029978  0  -0.039601  0.0113  0  4.134727  0
C  C98  1  0.59743010  0.27486793  0.56922172  1  0.396617  0  0.006737  -0.057943  0  3.949346  0
C  C99  1  0.69516519  0.46556698  0.65744081  1  0.388815  0  0.008806  -0.051058  0  3.933746  0
C  C100  1  0.72556390  0.47129053  0.63048478  1  0.018193  0  -0.039452  0.012693  0  4.132927  0
C  C101  1  0.71847720  0.43993092  0.60420118  1  0.383992  0  0.006466  -0.058535  0  3.953654  0
C  C102  1  0.53625295  0.34049856  0.69950045  1  0.400487  0  0.008591  -0.050308  0  3.936284  0
C  C103  1  0.53228238  0.36777292  0.72987058  1  0.027528  0  -0.039498  0.013837  0  4.13529  0
C  C104  1  0.56329250  0.39609067  0.72393264  1  0.406623  0  0.006489  -0.059212  0  3.9542  0
C  C105  1  0.14554618  0.68576460  0.96879321  1  0.40091  0  0.00661  -0.056907  0  3.952696  0
C  C106  1  0.12761706  0.72377246  0.96790340  1  -0.000245  0  -0.039523  0.012599  0  4.135618  0
C  C107  1  0.10673850  0.72392831  0.93282308  1  0.425231  0  0.00886  -0.050375  0  3.936996  0
C  C108  1  0.18694333  0.52592087  0.85352063  1  0.381668  0  0.006821  -0.059444  0  3.952004  0
C  C109  1  0.21497404  0.51833273  0.88295963  1  0.071261  0  -0.039305  0.014614  0  4.13476  0
C  C110  1  0.20628020  0.54776356  0.91040823  1  0.453793  0  0.008869  -0.050651  0  3.937716  0
C  C111  1  0.03811669  0.65848231  0.80299761  1  0.351367  0  0.006644  -0.058681  0  3.953054  0
C  C112  1  0.03002390  0.62948204  0.77461325  1  0.06854  0  -0.039409  0.012264  0  4.13852  0
C  C113  1  0.05853829  0.59942218  0.78223958  1  0.397024  0  0.008354  -0.050574  0  3.937134  0
C  C114  1  0.84724782  0.80429540  0.45467646  1  0.455607  0  0.008128  -0.050438  0  3.936676  0
C  C115  1  0.87514050  0.77325590  0.46058287  1  0.055704  0  -0.03899  0.013394  0  4.133406  0
C  C116  1  0.90322119  0.77858165  0.43151654  1  0.333227  0  0.006508  -0.05862  0  3.953468  0
C  C117  1  0.80693224  0.96491864  0.34142919  1  0.380502  0  0.009459  -0.048159  0  3.933191  0
C  C118  1  0.77490745  0.96960629  0.36686460  1  0.028725  0  -0.039322  0.011515  0  4.135824  0
C  C119  1  0.78017990  0.93777509  0.39217768  1  0.401264  0  0.006928  -0.05669  0  3.950516  0
C  C120  1  0.97012637  0.84555698  0.30494577  1  0.348134  0  0.006364  -0.058931  0  3.954084  0
C  C121  1  0.97535000  0.87321163  0.27563027  1  0.003521  0  -0.039435  0.012802  0  4.135938  0
C  C122  1  0.94301656  0.89989065  0.28031665  1  0.406842  0  0.007801  -0.051961  0  3.938151  0
C  C123  1  0.35884267  0.18763966  0.02984457  1  0.378198  0  0.006718  -0.056898  0  3.954559  0
C  C124  1  0.37783838  0.22553305  0.02973386  1  0.019676  0  -0.039561  0.012449  0  4.13431  0
C  C125  1  0.39924312  0.22714796  0.06453859  1  0.413315  0  0.008397  -0.051031  0  3.939352  0
C  C126  1  0.30790650  0.03796134  0.15082849  1  0.412097  0  0.007152  -0.057036  0  3.949856  0
C  C127  1  0.28246225  0.02695684  0.12000657  1  0.003084  0  -0.039683  0.010993  0  4.137762  0
C  C128  1  0.29388570  0.05363162  0.09141116  1  0.408398  0  0.008232  -0.050499  0  3.936501  0
C  C129  1  0.46403739  0.16813241  0.19715943  1  0.343281  0  0.00633  -0.059284  0  3.954177  0
C  C130  1  0.46627810  0.14436527  0.22971192  1  0.056323  0  -0.040224  0.014182  0  4.132331  0
C  C131  1  0.43360980  0.11729078  0.22492579  1  0.394425  0  0.008025  -0.053371  0  3.940714  0
C  C132  1  0.11862258  0.84654375  0.08959896  1  -0.048543  0  -0.017014  0.115434  0  4.093472  0
C  C133  1  0.09251892  0.84388320  0.12049755  1  -0.041563  0  -0.092129  -0.187164  0  3.911144  0
C  C134  1  0.09171642  0.87397391  0.14855648  1  -0.041183  0  -0.017404  0.116224  0  4.091805  0
C  C135  1  0.12003122  0.90562853  0.14672069  1  -0.026827  0  -0.092619  -0.187064  0  3.905737  0
C  C136  1  0.14740262  0.90855252  0.11686941  1  0.025201  0  -0.017607  0.11485  0  4.092455  0
C  C137  1  0.14614549  0.87874810  0.08838737  1  -0.091599  0  -0.09308  -0.18445  0  3.898523  0
C  C138  1  0.62170842  0.15558576  0.40812095  1  -0.059988  0  -0.017426  0.115597  0  4.090441  0
C  C139  1  0.65346272  0.12797543  0.40540155  1  -0.04632  0  -0.09202  -0.186122  0  3.905589  0
C  C140  1  0.65652139  0.10182489  0.37421962  1  -0.033785  0  -0.017463  0.115112  0  4.091356  0
C  C141  1  0.62631034  0.10307222  0.34570188  1  -0.044153  0  -0.092002  -0.183742  0  3.902783  0
C  C142  1  0.59307883  0.12866405  0.34857785  1  0.013982  0  -0.0172  0.115323  0  4.090869  0
C  C143  1  0.59115526  0.15476773  0.37997327  1  -0.019226  0  -0.092219  -0.187371  0  3.906541  0
C  C144  1  0.38276600  0.34505664  0.90684554  1  -0.012934  0  -0.016722  0.114617  0  4.09127  0
C  C145  1  0.40735416  0.34257239  0.87490645  1  -0.065275  0  -0.09207  -0.184281  0  3.904175  0
C  C146  1  0.40533052  0.37131086  0.84620161  1  -0.005593  0  -0.017963  0.11579  0  4.092527  0
C  C147  1  0.37744430  0.40257364  0.84987904  1  -0.057761  0  -0.092859  -0.189254  0  3.91253  0
C  C148  1  0.35155791  0.40533732  0.88094882  1  -0.03283  0  -0.018139  0.114277  0  4.094746  0
C  C149  1  0.35455848  0.37613300  0.90916949  1  -0.004284  0  -0.092206  -0.182951  0  3.897791  0
C  C150  1  0.87801770  0.66137072  0.59063004  1  -0.034618  0  -0.018396  0.114036  0  4.092084  0
C  C151  1  0.90900142  0.66125007  0.61838566  1  -0.080275  0  -0.092862  -0.188743  0  3.913778  0
C  C152  1  0.90963965  0.63283037  0.64743876  1  0.032264  0  -0.017156  0.115883  0  4.092938  0
C  C153  1  0.87775664  0.60478629  0.64895425  1  -0.031489  0  -0.092615  -0.183473  0  3.901166  0
C  C154  1  0.84634415  0.60395600  0.62162913  1  -0.029217  0  -0.017629  0.114051  0  4.092659  0
C  C155  1  0.84744714  0.63181652  0.59216962  1  -0.03457  0  -0.091683  -0.184451  0  3.90298  0
C  C156  1  0.13087224  0.75452029  0.99684345  1  -0.101493  0  -0.095352  -0.121625  0  4.042169  0
C  C157  1  0.12181385  0.79373887  0.99239798  1  -0.003489  0  -0.10731  -0.105398  0  4.068374  0
C  C158  1  0.12337113  0.82356212  0.02241832  1  -0.066944  0  -0.101031  -0.090378  0  4.067244  0
C  C159  1  0.11595032  0.81645274  0.05935815  1  -0.002235  0  -0.096601  -0.141964  0  3.992866  0
C  C160  1  0.62354817  0.23886039  0.51044924  1  -0.055663  0  -0.094713  -0.119108  0  4.032955  0
C  C161  1  0.65411129  0.23119507  0.48631289  1  -0.052193  0  -0.106955  -0.104795  0  4.070723  0
C  C162  1  0.65381615  0.20096724  0.45673693  1  -0.017151  0  -0.101182  -0.088238  0  4.066177  0
C  C163  1  0.62066337  0.18590452  0.43812633  1  -0.104119  0  -0.097203  -0.143953  0  3.987134  0
C  C164  1  0.37454217  0.25515760  0.00043201  1  -0.000774  0  -0.095628  -0.121614  0  4.040589  0
C  C165  1  0.38418628  0.29459608  0.00428312  1  -0.072946  0  -0.106853  -0.104806  0  4.068394  0
C  C166  1  0.38150885  0.32357950  0.97422848  1  -0.086425  0  -0.100719  -0.088783  0  4.065801  0
C  C167  1  0.38743860  0.31582487  0.93701762  1  -0.01236  0  -0.09704  -0.144378  0  3.991326  0
C  C168  1  0.87553612  0.74269111  0.48914906  1  -0.052423  0  -0.094834  -0.120328  0  4.037601  0
C  C169  1  0.84449927  0.73420139  0.51251903  1  -0.088551  0  -0.10754  -0.104235  0  4.071793  0
C  C170  1  0.84498220  0.70471732  0.54213402  1  0.029146  0  -0.101898  -0.091197  0  4.068273  0
C  C171  1  0.87813618  0.69207533  0.56159589  1  -0.09324  0  -0.097014  -0.142206  0  3.99001  0
C  C172  1  0.25206412  0.99565993  0.11892336  1  -0.056644  0  -0.094359  -0.117277  0  4.034952  0
C  C173  1  0.23006242  0.98398566  0.08784331  1  -0.014464  0  -0.10757  -0.106379  0  4.07141  0
C  C174  1  0.19883938  0.95337897  0.08696497  1  -0.070373  0  -0.101634  -0.088061  0  4.067778  0
C  C175  1  0.17672800  0.94145602  0.11689044  1  -0.034735  0  -0.097709  -0.143263  0  3.992973  0
C  C176  1  0.75741828  0.50112663  0.62915000  1  -0.058335  0  -0.094671  -0.118722  0  4.037904  0
C  C177  1  0.76768506  0.52761350  0.65719155  1  -0.02217  0  -0.107088  -0.106165  0  4.069228  0
C  C178  1  0.79944310  0.55763905  0.65524110  1  -0.113679  0  -0.101657  -0.089867  0  4.065609  0
C  C179  1  0.81283692  0.57520455  0.62331187  1  0.001957  0  -0.097669  -0.144309  0  3.990873  0
C  C180  1  0.74339069  0.99921020  0.36755280  1  -0.062731  0  -0.09518  -0.11959  0  4.036242  0
C  C181  1  0.73475698  0.02540081  0.33950819  1  0.01047  0  -0.107171  -0.105837  0  4.069505  0
C  C182  1  0.70368530  0.05553900  0.34085753  1  -0.056347  0  -0.101297  -0.088564  0  4.068559  0
C  C183  1  0.69001030  0.07373101  0.37260088  1  -0.045968  0  -0.097454  -0.144286  0  3.993591  0
C  C184  1  0.24544884  0.48773002  0.88366306  1  -0.126142  0  -0.094601  -0.119758  0  4.039747  0
C  C185  1  0.26981904  0.47892596  0.91369219  1  0.059158  0  -0.107396  -0.105147  0  4.070204  0
C  C186  1  0.30150223  0.44942571  0.91341343  1  -0.123481  0  -0.101321  -0.088357  0  4.065658  0
C  C187  1  0.32200919  0.43738684  0.88243413  1  0.000344  0  -0.097659  -0.142794  0  3.994886  0
C  C188  1  0.00702821  0.87359212  0.24801009  1  -0.050587  0  -0.095136  -0.121009  0  4.033847  0
C  C189  1  0.01542899  0.90447636  0.22466339  1  0.017048  0  -0.107436  -0.104248  0  4.070147  0
C  C190  1  0.04597534  0.90484739  0.19588912  1  -0.057657  0  -0.101642  -0.088907  0  4.066129  0
C  C191  1  0.06089719  0.87240912  0.17757162  1  -0.045102  0  -0.097278  -0.144029  0  3.989122  0
C  C192  1  0.50403426  0.36754487  0.76055593  1  -0.078706  0  -0.095057  -0.121636  0  4.038932  0
C  C193  1  0.47929563  0.33655015  0.76968992  1  -0.011521  0  -0.107198  -0.104405  0  4.069731  0
C  C194  1  0.45062973  0.33712057  0.80011736  1  -0.021046  0  -0.10179  -0.090247  0  4.067091  0
C  C195  1  0.43162517  0.37004321  0.81349899  1  -0.038802  0  -0.097654  -0.143789  0  3.993617  0
C  C196  1  0.99864632  0.63060563  0.74575607  1  -0.050332  0  -0.095089  -0.118708  0  4.038019  0
C  C197  1  0.98686851  0.59923520  0.72328678  1  -0.024757  0  -0.107173  -0.105172  0  4.071961  0
C  C198  1  0.95542415  0.60012367  0.69440387  1  -0.076401  0  -0.101209  -0.089363  0  4.069491  0
C  C199  1  0.94318923  0.63267881  0.67483080  1  0.000877  0  -0.097663  -0.143966  0  3.990368  0
C  C200  1  0.49579320  0.14718656  0.26032884  1  -0.06462  0  -0.095584  -0.122601  0  4.040027  0
C  C201  1  0.49035678  0.13361616  0.29590503  1  -0.002949  0  -0.106423  -0.104454  0  4.068448  0
C  C202  1  0.52144624  0.13388675  0.32528614  1  -0.049789  0  -0.100839  -0.090389  0  4.066331  0
C  C203  1  0.56122335  0.12714126  0.31937654  1  -0.051858  0  -0.096174  -0.142841  0  3.993888  0
N  N204  1  0.60770113  0.30766322  0.58996975  1  -0.779971  0  -0.337993  -0.142188  0  3.767047  0
N  N205  1  0.64060377  0.32549474  0.57344912  1  -0.768583  0  -0.337079  -0.138609  0  3.775554  0
N  N206  1  0.68670381  0.41733424  0.61478353  1  -0.763546  0  -0.339456  -0.141794  0  3.772491  0
N  N207  1  0.67223018  0.43334120  0.64786623  1  -0.772976  0  -0.336223  -0.137275  0  3.771386  0
N  N208  1  0.58412794  0.38627108  0.69279733  1  -0.779923  0  -0.338813  -0.140858  0  3.773546  0
N  N209  1  0.56722321  0.35172928  0.67759223  1  -0.767389  0  -0.335554  -0.138835  0  3.771305  0
N  N210  1  0.11210796  0.68888057  0.91447419  1  -0.78172  0  -0.336843  -0.138892  0  3.772885  0
N  N211  1  0.13634147  0.66517704  0.93675966  1  -0.778264  0  -0.340411  -0.142914  0  3.776583  0
N  N212  1  0.17561434  0.57072835  0.89816877  1  -0.787188  0  -0.33776  -0.137507  0  3.776376  0
N  N213  1  0.16353824  0.55722965  0.86279487  1  -0.79125  0  -0.338947  -0.140903  0  3.772939  0
N  N214  1  0.08136861  0.60976766  0.81276726  1  -0.771014  0  -0.336693  -0.137738  0  3.775976  0
N  N215  1  0.06869438  0.64647280  0.82576928  1  -0.764085  0  -0.338486  -0.141372  0  3.770011  0
N  N216  1  0.89269642  0.81002292  0.41001648  1  -0.759354  0  -0.3392  -0.143374  0  3.77194  0
N  N217  1  0.85793080  0.82599935  0.42452238  1  -0.782644  0  -0.336094  -0.137054  0  3.773144  0
N  N218  1  0.81248150  0.91587325  0.38242272  1  -0.78077  0  -0.339187  -0.142611  0  3.77312  0
N  N219  1  0.82910660  0.93282952  0.35090152  1  -0.768381  0  -0.336752  -0.139062  0  3.772044  0
N  N220  1  0.92072262  0.88896441  0.31006485  1  -0.775923  0  -0.335788  -0.136589  0  3.772588  0
N  N221  1  0.93756336  0.85521159  0.32548128  1  -0.758826  0  -0.338588  -0.14183  0  3.770618  0
N  N222  1  0.39313796  0.19303787  0.08367750  1  -0.782798  0  -0.336147  -0.138134  0  3.774263  0
N  N223  1  0.36790169  0.16851351  0.06219289  1  -0.78071  0  -0.341096  -0.142854  0  3.777809  0
N  N224  1  0.32362988  0.07825305  0.10433169  1  -0.798639  0  -0.337968  -0.138324  0  3.780121  0
N  N225  1  0.33238790  0.06862004  0.14129169  1  -0.775127  0  -0.338481  -0.141491  0  3.770494  0
N  N226  1  0.41358816  0.12459462  0.19226329  1  -0.769681  0  -0.337466  -0.139194  0  3.772006  0
N  N227  1  0.43235363  0.15635939  0.17506701  1  -0.778642  0  -0.33893  -0.140872  0  3.773774  0
