# generated using pymatgen
data_Co3H24C40S2(NO2)6
_symmetry_space_group_name_H-M   'P 1'
_cell_length_a   9.05370977
_cell_length_b   11.74906151
_cell_length_c   11.43857562
_cell_angle_alpha   115.23470363
_cell_angle_beta   99.17531715
_cell_angle_gamma   105.24742102
_symmetry_Int_Tables_number   1
_chemical_formula_structural   Co3H24C40S2(NO2)6
_chemical_formula_sum   'Co3 H24 C40 S2 N6 O12'
_cell_volume   1009.17023564
_cell_formula_units_Z   1
loop_
 _symmetry_equiv_pos_site_id
 _symmetry_equiv_pos_as_xyz
  1  'x, y, z'
loop_
 _atom_site_type_symbol
 _atom_site_label
 _atom_site_symmetry_multiplicity
 _atom_site_fract_x
 _atom_site_fract_y
 _atom_site_fract_z
 _atom_site_occupancy
 _atom_site_hle17_ddec_charge
 _atom_site_hle17_ddec_spin_density
 _atom_site_hle17_ddec_sum_bond_order
 _atom_site_hle17_magmom
 _atom_site_hse06_10hf_ddec_charge
 _atom_site_hse06_10hf_ddec_spin_density
 _atom_site_hse06_10hf_ddec_sum_bond_order
 _atom_site_hse06_10hf_magmom
 _atom_site_hse06_ddec_charge
 _atom_site_hse06_ddec_spin_density
 _atom_site_hse06_ddec_sum_bond_order
 _atom_site_hse06_magmom
 _atom_site_pbe_cm5_charge
 _atom_site_pbe_ddec_charge
 _atom_site_pbe_ddec_spin_density
 _atom_site_pbe_ddec_sum_bond_order
 _atom_site_pbe_magmom
Co  Co0  1  0.49999396  0.00000062  0.49999966  1  1.044569  2.875674  2.058517  2.619  1.017337  2.900685  2.47056  2.683  1.084634  2.918305  2.400831  2.745  0.706157  0.962759  2.883584  2.523442  2.623
Co  Co1  1  0.87865840  0.99955968  0.61203643  1  0.931839  2.791405  2.079043  2.535  0.866536  2.787307  2.544672  2.58  0.955893  2.841972  2.456241  2.671  0.713981  0.796901  2.736354  2.611918  2.495
Co  Co2  1  0.12133597  0.00044315  0.38796577  1  0.931722  2.791401  2.079135  2.535  0.866423  2.78731  2.544737  2.58  0.955772  2.841974  2.456312  2.671  0.713944  0.796785  2.73635  2.611983  2.495
H  H3  1  0.00297254  0.29496136  0.00245570  1  0.104533  9.7e-05  0.947063  0.0  0.114457  2e-05  1.00598  0.0  0.117879  -3.3e-05  1.004235  0.0  0.107459  0.112038  5.9e-05  1.007191  0.0
H  H4  1  0.99703101  0.70503959  0.99753630  1  0.104567  9.7e-05  0.947067  0.0  0.114478  2e-05  1.005985  0.0  0.117904  -3.3e-05  1.004235  0.0  0.107478  0.11206  5.9e-05  1.007196  0.0
H  H5  1  0.02309387  0.45883432  0.23999672  1  0.107953  4.2e-05  0.932571  0.0  0.120509  3.3e-05  0.986189  0.0  0.123727  2.1e-05  0.98478  0.0  0.110753  0.118265  4.2e-05  0.987163  0.0
H  H6  1  0.97692311  0.54117170  0.76000181  1  0.107946  4.2e-05  0.932599  0.0  0.120499  3.3e-05  0.986226  0.0  0.123716  2.1e-05  0.984825  0.0  0.110787  0.118254  4.2e-05  0.987199  0.0
H  H7  1  0.64546037  0.55982773  0.07736390  1  0.106889  7.9e-05  0.9467  0.0  0.117338  5.4e-05  1.00503  0.0  0.120381  3.1e-05  1.003822  0.0  0.109567  0.115252  4.9e-05  1.005818  0.0
H  H8  1  0.35454520  0.44017507  0.92264578  1  0.106789  7.7e-05  0.946735  0.0  0.117253  5.4e-05  1.005068  0.0  0.120297  3.1e-05  1.00386  0.0  0.109521  0.115168  4.9e-05  1.005857  0.0
H  H9  1  0.61998774  0.38854887  0.83952579  1  0.10679  5.3e-05  0.944919  0.0  0.116854  1.3e-05  1.004449  0.0  0.120527  -1.2e-05  1.001737  0.0  0.108185  0.114183  3.8e-05  1.00644  0.0
H  H10  1  0.38000999  0.61145390  0.16048379  1  0.106773  5.3e-05  0.944943  0.0  0.1168  1.3e-05  1.004511  0.0  0.120465  -1.2e-05  1.001818  0.0  0.108181  0.114145  3.8e-05  1.006484  0.0
H  H11  1  0.69006222  0.25408785  0.45622762  1  0.12799  -9.8e-05  0.937675  0.0  0.133732  -0.000141  0.999989  0.0  0.137426  -0.000182  0.997905  0.0  0.114616  0.130977  -8.2e-05  1.001706  0.0
H  H12  1  0.30993016  0.74590790  0.54377116  1  0.128013  -9.9e-05  0.937698  0.0  0.133756  -0.000141  0.999993  0.0  0.137454  -0.000182  0.997909  0.0  0.11463  0.131002  -8.2e-05  1.001711  0.0
H  H13  1  0.88133223  0.43298002  0.43478717  1  0.105944  -2e-06  0.967194  0.0  0.113804  2.6e-05  1.031756  0.0  0.117266  1.7e-05  1.029415  0.0  0.106963  0.111255  4.3e-05  1.033621  0.0
H  H14  1  0.11866333  0.56700768  0.56520578  1  0.105949  -2e-06  0.967208  0.0  0.113888  2.6e-05  1.03168  0.0  0.117352  1.7e-05  1.029339  0.0  0.106974  0.111335  4.3e-05  1.033553  0.0
H  H15  1  0.48849368  0.53204957  0.29115747  1  0.107103  -2.3e-05  0.947587  0.0  0.117441  -0.0  1.006018  0.0  0.120845  -8e-06  1.004067  0.0  0.109219  0.114927  1.5e-05  1.007571  0.0
H  H16  1  0.51151392  0.46795034  0.70883805  1  0.107111  -2.3e-05  0.947551  0.0  0.117482  -0.0  1.005952  0.0  0.120887  -8e-06  1.003999  0.0  0.109236  0.114969  1.5e-05  1.007502  0.0
H  H17  1  0.29478782  0.34816589  0.31021039  1  0.106458  0.000211  0.93151  0.0  0.118711  0.00013  0.985855  0.0  0.122324  6.4e-05  0.983847  0.0  0.110358  0.115949  0.000198  0.987489  0.0
H  H18  1  0.70521394  0.65183604  0.68978445  1  0.106472  0.000209  0.931497  0.0  0.118748  0.00013  0.985807  0.0  0.12236  6.4e-05  0.983799  0.0  0.110389  0.115986  0.000198  0.987441  0.0
H  H19  1  0.39713162  0.92039084  0.15586857  1  0.109352  -0.000155  0.958979  0.0  0.120607  -9.4e-05  1.016644  0.0  0.123319  -0.000132  1.015749  0.0  0.105908  0.11845  -4.7e-05  1.017574  0.0
H  H20  1  0.60285985  0.07960804  0.84412276  1  0.109376  -0.000156  0.958969  0.0  0.120623  -9.4e-05  1.016646  0.0  0.123333  -0.000132  1.015756  0.0  0.105904  0.118471  -4.7e-05  1.017557  0.0
H  H21  1  0.44033792  0.85874912  0.93129858  1  0.089442  -4e-06  0.952923  0.0  0.101873  3.4e-05  1.009013  0.0  0.104046  2.3e-05  1.009557  0.0  0.098618  0.100367  3.3e-05  1.008654  0.0
H  H22  1  0.55966210  0.14124368  0.06869458  1  0.089393  -4e-06  0.952943  0.0  0.101822  3.4e-05  1.009037  0.0  0.103996  2.4e-05  1.009579  0.0  0.098559  0.100318  3.3e-05  1.008677  0.0
H  H23  1  0.70720156  0.86929137  0.90226341  1  0.085001  -0.000245  0.974012  0.0  0.096201  -0.000106  1.03489  0.0  0.098744  -9.7e-05  1.034206  0.0  0.094542  0.094208  -4.7e-05  1.035669  0.0
H  H24  1  0.29280179  0.13070646  0.09773503  1  0.084985  -0.000245  0.973971  0.0  0.096184  -0.000106  1.034857  0.0  0.098726  -9.7e-05  1.034172  0.0  0.094527  0.09419  -4.7e-05  1.035635  0.0
H  H25  1  0.94124556  0.93103451  0.09642213  1  0.111698  0.0001  0.944213  0.0  0.122762  0.000133  1.001508  0.0  0.126315  5.7e-05  0.999246  0.0  0.107934  0.120063  0.000225  1.003368  0.0
H  H26  1  0.05875506  0.06897237  0.90358440  1  0.111785  0.000101  0.944155  0.0  0.122811  0.000133  1.001505  0.0  0.12636  5.7e-05  0.999242  0.0  0.107965  0.12011  0.000225  1.003369  0.0
C  C27  1  0.78434003  0.22140521  0.76855703  1  0.647947  -0.00852  3.878334  -0.007  0.606353  0.003919  4.178689  0.005  0.645177  0.003012  4.171618  0.004  0.218049  0.577816  0.003789  4.182416  0.004
C  C28  1  0.21565435  0.77859258  0.23144204  1  0.648009  -0.008519  3.87855  -0.007  0.606389  0.003918  4.178902  0.005  0.645219  0.003013  4.17182  0.004  0.218087  0.577855  0.003791  4.182632  0.004
C  C29  1  0.80928660  0.33204106  0.90836977  1  -0.050466  0.007743  3.730955  0.012  -0.027999  0.003914  3.958871  0.006  -0.034707  0.002621  3.980418  0.004  -0.008295  -0.02378  0.005339  3.945566  0.008
C  C30  1  0.19071225  0.66796181  0.09163125  1  -0.050514  0.007751  3.731329  0.012  -0.027968  0.003913  3.959102  0.006  -0.03468  0.002619  3.980656  0.004  -0.008381  -0.023752  0.005338  3.945807  0.008
C  C31  1  0.92454091  0.35256861  0.02034400  1  -0.056371  -0.002746  3.712346  -0.002  -0.077736  0.000318  3.956828  0.001  -0.077929  0.000308  3.976524  0.0  -0.075897  -0.077845  0.000167  3.943863  0.001
C  C32  1  0.07546642  0.64743840  0.97965379  1  -0.056441  -0.002769  3.712438  -0.002  -0.077798  0.000318  3.956863  0.001  -0.077994  0.000309  3.976552  0.0  -0.07589  -0.077906  0.000167  3.943899  0.001
C  C33  1  0.93564669  0.44310751  0.15182247  1  -0.07222  0.000693  3.750806  0.001  -0.094277  -0.000104  3.999669  0.0  -0.095949  -0.000183  4.020807  0.0  -0.079915  -0.09297  -8.5e-05  3.985266  0.0
C  C34  1  0.06436244  0.55689847  0.84817684  1  -0.072219  0.000704  3.750743  0.001  -0.094268  -0.000105  3.999624  0.0  -0.095944  -0.000179  4.020772  0.0  -0.080015  -0.092968  -8.5e-05  3.985212  0.0
C  C35  1  0.83203569  0.51435066  0.16977164  1  -0.095081  -0.003211  3.746556  -0.002  -0.074511  -4.1e-05  3.998064  0.0  -0.07986  8.9e-05  4.021677  0.0  -0.017314  -0.07093  -0.000517  3.982134  0.0
C  C36  1  0.16797436  0.48565228  0.83022729  1  -0.094995  -0.003234  3.746419  -0.002  -0.074471  -3.9e-05  3.998009  0.0  -0.079827  8.8e-05  4.021632  0.0  -0.017231  -0.070866  -0.000517  3.982037  0.0
C  C37  1  0.72113353  0.49966723  0.05913551  1  -0.067611  0.000925  3.736477  0.001  -0.08976  -2.2e-05  3.986  0.0  -0.090959  -0.000134  4.006768  0.0  -0.079067  -0.088773  4.6e-05  3.971639  0.0
C  C38  1  0.27886799  0.50033664  0.94086803  1  -0.067549  0.000939  3.736412  0.001  -0.08972  -2.2e-05  3.985978  0.0  -0.090917  -0.000135  4.006749  0.0  -0.079078  -0.088743  4.6e-05  3.971617  0.0
C  C39  1  0.70931040  0.40717886  0.92822603  1  -0.058082  -0.002531  3.709989  -0.001  -0.081673  0.000479  3.958368  0.001  -0.082612  0.000437  3.978427  0.001  -0.075255  -0.08104  0.000289  3.94496  0.001
C  C40  1  0.29068709  0.59282598  0.07177920  1  -0.058007  -0.002553  3.710045  -0.001  -0.081577  0.000478  3.958403  0.001  -0.082517  0.000438  3.978462  0.001  -0.075174  -0.080956  0.000289  3.944991  0.001
C  C41  1  0.36636796  0.17686492  0.38800609  1  0.649346  -0.014778  3.859673  -0.008  0.608273  0.000293  4.14885  0.004  0.648872  0.000866  4.14217  0.004  0.217566  0.577819  -0.002048  4.152898  0.002
C  C42  1  0.63363313  0.82313793  0.61199781  1  0.649503  -0.014772  3.85964  -0.008  0.608518  0.000296  4.148731  0.004  0.649116  0.000866  4.142042  0.004  0.217673  0.578065  -0.002047  4.152788  0.002
C  C43  1  0.48058868  0.28870668  0.38108539  1  -0.057675  0.004888  3.74355  0.008  -0.033496  0.002123  3.971008  0.003  -0.040844  0.001438  3.991008  0.002  -0.008817  -0.029236  0.002918  3.959099  0.005
C  C44  1  0.51940949  0.71129719  0.61891687  1  -0.057597  0.004877  3.743532  0.008  -0.03356  0.002122  3.97115  0.003  -0.040903  0.001433  3.991144  0.002  -0.008806  -0.029303  0.002919  3.959246  0.005
C  C45  1  0.64601252  0.31356220  0.41825028  1  -0.043458  -0.005183  3.659994  -0.003  -0.066524  -0.00084  3.904523  0.0  -0.065624  -0.000591  3.922445  0.0  -0.070294  -0.067438  -0.001693  3.892859  -0.001
C  C46  1  0.35398680  0.68643660  0.58175072  1  -0.043503  -0.005161  3.660003  -0.003  -0.066537  -0.000839  3.904582  0.0  -0.065642  -0.000584  3.922502  0.0  -0.070308  -0.06745  -0.001693  3.892918  -0.001
C  C47  1  0.75336482  0.41481801  0.40723105  1  -0.070067  0.0015  3.735316  0.002  -0.092266  0.000149  3.983442  0.0  -0.093977  0.000145  4.003299  0.0  -0.078514  -0.09084  0.000106  3.970103  0.001
C  C48  1  0.24663610  0.58517173  0.59276347  1  -0.070121  0.00149  3.735244  0.002  -0.092361  0.00015  3.983327  0.0  -0.094072  0.000147  4.003188  0.0  -0.078516  -0.090922  0.000106  3.969998  0.001
C  C49  1  0.69429423  0.49109688  0.35996102  1  -0.096966  -0.006153  3.740531  -0.004  -0.07503  -0.001591  3.989412  -0.001  -0.079395  -0.000839  4.012595  0.0  -0.016296  -0.072463  -0.003273  3.974306  -0.002
C  C50  1  0.30570826  0.50889384  0.64003588  1  -0.096739  -0.006122  3.740518  -0.004  -0.074832  -0.001593  3.989455  -0.001  -0.079204  -0.000859  4.01264  0.0  -0.016274  -0.072302  -0.003273  3.974401  -0.002
C  C51  1  0.53013908  0.46886354  0.32474168  1  -0.071006  0.00159  3.748232  0.003  -0.093131  0.000205  3.998691  0.001  -0.095582  0.000159  4.020538  0.0  -0.079407  -0.091607  0.000367  3.984352  0.001
C  C52  1  0.46986471  0.53113535  0.67525379  1  -0.071154  0.001576  3.748192  0.003  -0.093312  0.000206  3.998675  0.001  -0.095761  0.000162  4.020522  0.0  -0.07949  -0.091777  0.000367  3.984343  0.001
C  C53  1  0.42326893  0.36738734  0.33573800  1  -0.058122  -0.005253  3.723588  -0.003  -0.081794  -0.000592  3.973549  0.0  -0.08169  -0.000198  3.993277  0.0  -0.073753  -0.08198  -0.001498  3.960853  0.0
C  C54  1  0.57673238  0.63261356  0.66425807  1  -0.058129  -0.005221  3.723476  -0.003  -0.081781  -0.000591  3.973479  0.0  -0.081678  -0.000193  3.993206  0.0  -0.073774  -0.081967  -0.001498  3.960784  0.0
C  C55  1  0.64306078  0.95004679  0.25128150  1  0.142107  0.00513  3.777076  0.008  0.146321  0.004796  4.018533  0.007  0.148842  0.003537  4.038939  0.005  0.102038  0.144148  0.006114  4.00537  0.009
C  C56  1  0.35692957  0.04995202  0.74871492  1  0.142349  0.005131  3.776838  0.008  0.14652  0.004796  4.018268  0.007  0.149045  0.003537  4.038674  0.005  0.102098  0.144341  0.006114  4.005117  0.009
C  C57  1  0.51305646  0.91904921  0.14288122  1  -0.129653  0.00129  3.722101  0.002  -0.152196  0.000329  3.973758  0.001  -0.154466  -0.00021  3.993528  0.0  -0.089502  -0.150583  0.001249  3.960825  0.002
C  C58  1  0.48693792  0.08094859  0.85711611  1  -0.129781  0.001291  3.721986  0.002  -0.152318  0.000329  3.973637  0.001  -0.154592  -0.000209  3.993411  0.0  -0.089537  -0.150699  0.001249  3.96071  0.002
C  C59  1  0.53925143  0.88666631  0.01847992  1  -0.068438  6.9e-05  3.782808  0.0  -0.083674  0.001266  4.038802  0.001  -0.085675  0.001121  4.060928  0.001  -0.093753  -0.082478  0.001249  4.023781  0.001
C  C60  1  0.46074340  0.11333251  0.98151792  1  -0.068373  6.7e-05  3.782814  0.0  -0.083598  0.001267  4.038771  0.001  -0.0856  0.001121  4.0609  0.001  -0.09367  -0.082403  0.001249  4.023751  0.001
C  C61  1  0.69230832  0.89198897  0.00144368  1  -0.075798  0.00247  3.789785  0.003  -0.093084  0.001542  4.044077  0.002  -0.094751  0.000929  4.065949  0.001  -0.098228  -0.09166  0.002455  4.02912  0.003
C  C62  1  0.30768899  0.10800783  0.99855443  1  -0.075757  0.002471  3.789801  0.003  -0.093045  0.001542  4.044086  0.002  -0.094711  0.00093  4.065956  0.001  -0.098236  -0.091619  0.002455  4.029128  0.003
C  C63  1  0.82285028  0.92603066  0.10785391  1  -0.138625  -0.000607  3.743267  0.0  -0.156426  0.000725  3.988725  0.001  -0.159059  0.000671  4.007521  0.001  -0.090051  -0.154816  0.000389  3.976166  0.0
C  C64  1  0.17714812  0.07397117  0.89214921  1  -0.138715  -0.000609  3.74339  0.0  -0.156505  0.000725  3.98886  0.001  -0.159134  0.000672  4.00765  0.001  -0.090114  -0.154894  0.000389  3.976304  0.0
C  C65  1  0.79478413  0.95236671  0.23247627  1  0.147922  0.00605  3.804287  0.009  0.148737  0.005374  4.041985  0.008  0.152409  0.003628  4.064548  0.005  0.101799  0.146202  0.007319  4.027012  0.01
C  C66  1  0.20520752  0.04764017  0.76752654  1  0.147786  0.00605  3.804302  0.009  0.148655  0.005374  4.041949  0.008  0.152325  0.00363  4.06451  0.005  0.101747  0.146122  0.00732  4.026978  0.01
S  S67  1  0.82942021  0.61533096  0.33703642  1  1.057921  -0.000747  5.247104  0.0  0.98588  -0.00015  5.744002  0.0  1.025696  -5.8e-05  5.731184  0.0  0.474995  0.957611  -0.000442  5.75388  0.0
S  S68  1  0.17058494  0.38466587  0.66296092  1  1.057471  -0.000748  5.247215  0.0  0.985347  -0.00015  5.744271  0.0  1.025184  -5.6e-05  5.731429  0.0  0.474761  0.957079  -0.000442  5.754143  0.0
N  N69  1  0.65730102  0.97751855  0.38243862  1  -0.257133  0.03481  3.160383  0.063  -0.239783  0.029626  3.467787  0.048  -0.252714  0.023161  3.478172  0.039  -0.218676  -0.229931  0.036415  3.461327  0.058
N  N70  1  0.34268753  0.02248127  0.61755803  1  -0.257234  0.034812  3.160699  0.063  -0.239792  0.029629  3.46801  0.048  -0.252726  0.023159  3.478398  0.039  -0.21865  -0.229937  0.036416  3.46155  0.058
N  N71  1  0.80738717  0.99359382  0.43840592  1  -0.066643  0.028095  3.333171  0.043  -0.04457  0.025713  3.682642  0.031  -0.055423  0.019743  3.69486  0.023  -0.131379  -0.03682  0.030266  3.675336  0.037
N  N72  1  0.19260227  0.00640801  0.56159348  1  -0.066616  0.028094  3.333301  0.043  -0.044565  0.025713  3.682774  0.031  -0.055415  0.019741  3.694989  0.023  -0.131373  -0.036814  0.030265  3.675466  0.037
N  N73  1  0.89371382  0.98081440  0.35247401  1  -0.27413  0.041414  3.263568  0.067  -0.248872  0.034371  3.592375  0.046  -0.271616  0.027872  3.605605  0.037  -0.246794  -0.232372  0.040059  3.583654  0.054
N  N74  1  0.10627674  0.01918743  0.64752640  1  -0.274077  0.041419  3.263513  0.067  -0.248888  0.034374  3.59239  0.046  -0.271632  0.027876  3.605617  0.037  -0.24676  -0.232388  0.040063  3.583671  0.054
O  O75  1  0.66859762  0.19359731  0.67098320  1  -0.600285  0.025049  2.057764  0.048  -0.575504  0.020937  2.322775  0.036  -0.607011  0.015105  2.311137  0.027  -0.296424  -0.550356  0.027862  2.329303  0.047
O  O76  1  0.33139318  0.80640247  0.32901807  1  -0.600311  0.02505  2.057947  0.048  -0.575533  0.020939  2.32296  0.036  -0.607041  0.015105  2.311323  0.027  -0.296436  -0.550383  0.027862  2.32949  0.047
O  O77  1  0.88361419  0.15939322  0.76351467  1  -0.61198  0.057591  2.125777  0.099  -0.579065  0.043826  2.421062  0.069  -0.623516  0.032784  2.407888  0.051  -0.319388  -0.543349  0.055219  2.428445  0.087
O  O78  1  0.11637863  0.84060353  0.23648549  1  -0.612011  0.05759  2.12577  0.099  -0.579106  0.043825  2.421044  0.069  -0.623553  0.032784  2.407871  0.051  -0.319408  -0.543387  0.055218  2.428426  0.087
O  O79  1  0.21563495  0.15697006  0.36016947  1  -0.581709  0.051803  2.013115  0.087  -0.548251  0.037811  2.278275  0.058  -0.590203  0.02759  2.267001  0.042  -0.308872  -0.5144  0.048158  2.284298  0.074
O  O80  1  0.78435806  0.84303477  0.63983521  1  -0.581794  0.051792  2.013244  0.087  -0.548334  0.037806  2.278357  0.058  -0.59028  0.027588  2.267076  0.042  -0.308899  -0.514488  0.048151  2.284388  0.074
O  O81  1  0.41861961  0.09925041  0.41781795  1  -0.636947  0.049094  2.23263  0.086  -0.60275  0.046743  2.525167  0.074  -0.645405  0.035331  2.514133  0.056  -0.300652  -0.567807  0.059561  2.530784  0.094
O  O82  1  0.58137519  0.90075346  0.58218302  1  -0.637045  0.049101  2.232463  0.086  -0.602866  0.046747  2.524952  0.074  -0.645524  0.035333  2.513912  0.056  -0.300696  -0.567918  0.059568  2.530569  0.094
O  O83  1  0.75210623  0.70770612  0.33309236  1  -0.566709  0.00026  1.970616  0.0  -0.530312  0.001052  2.224942  0.001  -0.551071  0.000799  2.216515  0.001  -0.301583  -0.515696  0.001414  2.230898  0.002
O  O84  1  0.24792555  0.29229766  0.66693060  1  -0.566788  0.00026  1.970017  0.0  -0.530263  0.001051  2.224232  0.001  -0.551029  0.0008  2.215803  0.001  -0.301601  -0.515652  0.001414  2.230189  0.002
O  O85  1  0.98807084  0.66451346  0.43176717  1  -0.563267  -3.6e-05  1.924837  0.0  -0.522318  7.5e-05  2.164972  0.0  -0.541909  -1e-05  2.155393  0.0  -0.307479  -0.508588  0.000131  2.171583  0.0
O  O86  1  0.01194919  0.33546607  0.56823736  1  -0.562895  -3.6e-05  1.925358  0.0  -0.521921  7.5e-05  2.165507  0.0  -0.541507  -7e-06  2.155912  0.0  -0.307244  -0.508194  0.000131  2.172109  0.0
