# generated using pymatgen
data_NaH2CN5O3
_symmetry_space_group_name_H-M   'P 1'
_cell_length_a   6.46547117
_cell_length_b   6.46526227
_cell_length_c   15.06082304
_cell_angle_alpha   90.00110444
_cell_angle_beta   90.00173138
_cell_angle_gamma   95.07271889
_symmetry_Int_Tables_number   1
_chemical_formula_structural   NaH2CN5O3
_chemical_formula_sum   'Na4 H8 C4 N20 O12'
_cell_volume   627.09116456
_cell_formula_units_Z   4
loop_
 _symmetry_equiv_pos_site_id
 _symmetry_equiv_pos_as_xyz
  1  'x, y, z'
loop_
 _atom_site_type_symbol
 _atom_site_label
 _atom_site_symmetry_multiplicity
 _atom_site_fract_x
 _atom_site_fract_y
 _atom_site_fract_z
 _atom_site_occupancy
 _atom_site_hle17_bader_spin_density
 _atom_site_hle17_ddec_charge
 _atom_site_hle17_ddec_spin_density
 _atom_site_hle17_ddec_sum_bond_order
 _atom_site_hle17_magmom
 _atom_site_hse06_10hf_bader_spin_density
 _atom_site_hse06_10hf_ddec_charge
 _atom_site_hse06_10hf_ddec_spin_density
 _atom_site_hse06_10hf_ddec_sum_bond_order
 _atom_site_hse06_10hf_magmom
 _atom_site_hse06_bader_spin_density
 _atom_site_hse06_ddec_charge
 _atom_site_hse06_ddec_spin_density
 _atom_site_hse06_ddec_sum_bond_order
 _atom_site_hse06_magmom
 _atom_site_pbe_bader_spin_density
 _atom_site_pbe_cm5_charge
 _atom_site_pbe_ddec_charge
 _atom_site_pbe_ddec_spin_density
 _atom_site_pbe_ddec_sum_bond_order
 _atom_site_pbe_magmom
Na  Na0  1  0.58711034  0.26743354  0.53767312  1  0  0.858604  0  0.434772  0  0  0.778671  0  0.634316  0  0  0.791814  0  0.61026  0  0  0.687537  0.769218  0  0.651344  0
Na  Na1  1  0.26725833  0.58727792  0.46234906  1  0  0.858519  0  0.435083  0  0  0.778756  0  0.634349  0  0  0.791895  0  0.610287  0  0  0.687621  0.769297  0  0.651381  0
Na  Na2  1  0.26745230  0.58712024  0.03766908  1  0  0.858534  0  0.43486  0  0  0.778632  0  0.634392  0  0  0.791767  0  0.61044  0  0  0.687513  0.769215  0  0.651373  0
Na  Na3  1  0.58727563  0.26723907  0.96234579  1  0  0.858419  0  0.43526  0  0  0.778791  0  0.634304  0  0  0.791924  0  0.610347  0  0  0.687633  0.769318  0  0.651365  0
H  H4  1  0.61840838  0.39600255  0.36016568  1  0  0.416598  0  0.87061  0  0  0.388908  0  0.930759  0  0  0.398414  0  0.916348  0  0  0.298608  0.382123  0  0.941049  0
H  H5  1  0.39580767  0.61864990  0.63984770  1  0  0.416526  0  0.870782  0  0  0.388886  0  0.93074  0  0  0.398372  0  0.916371  0  0  0.298471  0.3821  0  0.941031  0
H  H6  1  0.39602247  0.61841130  0.86016567  1  0  0.416486  0  0.870714  0  0  0.388866  0  0.930752  0  0  0.398361  0  0.916364  0  0  0.29861  0.382084  0  0.941038  0
H  H7  1  0.61864177  0.39579981  0.13984970  1  0  0.416516  0  0.870873  0  0  0.388896  0  0.930751  0  0  0.398384  0  0.916382  0  0  0.298461  0.382108  0  0.941043  0
H  H8  1  0.43993401  0.21664599  0.35450060  1  0  0.391547  0  0.924959  0  0  0.348571  0  1.009232  0  0  0.359564  0  0.993088  0  0  0.283307  0.34081  0  1.020617  0
H  H9  1  0.21649711  0.44013858  0.64552131  1  0  0.391424  0  0.925212  0  0  0.348386  0  1.009566  0  0  0.359381  0  0.993419  0  0  0.283041  0.340625  0  1.020951  0
H  H10  1  0.21666378  0.43993424  0.85449926  1  0  0.391546  0  0.924991  0  0  0.348572  0  1.009253  0  0  0.359562  0  0.99312  0  0  0.28331  0.34081  0  1.020641  0
H  H11  1  0.44013888  0.21648101  0.14551933  1  0  0.391392  0  0.925235  0  0  0.348346  0  1.009597  0  0  0.359343  0  0.993455  0  0  0.283033  0.340586  0  1.020979  0
C  C12  1  0.91599145  0.91620076  0.49999443  1  0  0.267709  0  3.82804  0  0  0.214299  0  4.125638  0  0  0.216961  0  4.143829  0  0  0.300633  0.212372  0  4.113455  0
C  C13  1  0.91621211  0.91599373  0.99998836  1  0  0.268494  0  3.827023  0  0  0.214277  0  4.12507  0  0  0.222567  0  4.145867  0  0  0.300712  0.21235  0  4.112893  0
C  C14  1  0.72615909  0.14818120  0.74999596  1  0  0.274  0  3.789115  0  0  0.232587  0  4.079194  0  0  0.236172  0  4.097608  0  0  0.304087  0.225829  0  4.065013  0
C  C15  1  0.14814011  0.72617110  0.24999790  1  0  0.273563  0  3.789324  0  0  0.232274  0  4.079195  0  0  0.235847  0  4.097617  0  0  0.304051  0.22546  0  4.064967  0
N  N16  1  0.07941895  0.07964196  0.50000147  1  0  0.453985  0  3.965523  0  0  0.520256  0  4.207776  0  0  0.541926  0  4.213795  0  0  0.064946  0.505734  0  4.203697  0
N  N17  1  0.07965269  0.07940998  0.99999473  1  0  0.452538  0  3.966516  0  0  0.520565  0  4.207606  0  0  0.522378  0  4.245238  0  0  0.065118  0.506039  0  4.203525  0
N  N18  1  0.71788639  0.94648389  0.48276305  1  0  -0.312477  0  3.036302  0  0  -0.295727  0  3.338447  0  0  -0.301315  0  3.349147  0  0  -0.269048  -0.291748  0  3.331207  0
N  N19  1  0.94630586  0.71808963  0.51722324  1  0  -0.313144  0  3.036445  0  0  -0.296423  0  3.338601  0  0  -0.302009  0  3.349296  0  0  -0.269535  -0.292441  0  3.331364  0
N  N20  1  0.94648874  0.71787117  0.98275025  1  0  -0.312665  0  3.035606  0  0  -0.295709  0  3.337843  0  0  -0.301029  0  3.347268  0  0  -0.26911  -0.291731  0  3.330603  0
N  N21  1  0.71810057  0.94629246  0.01722474  1  0  -0.313501  0  3.036355  0  0  -0.296591  0  3.338625  0  0  -0.301907  0  3.348041  0  0  -0.269647  -0.292601  0  3.331388  0
N  N22  1  0.62039614  0.75778262  0.48967284  1  0  -0.109986  0  2.99437  0  0  -0.092225  0  3.297883  0  0  -0.095174  0  3.309797  0  0  -0.154803  -0.08997  0  3.289656  0
N  N23  1  0.75762128  0.62057019  0.51031283  1  0  -0.109271  0  2.994506  0  0  -0.091419  0  3.297948  0  0  -0.094367  0  3.309868  0  0  -0.15428  -0.089167  0  3.289719  0
N  N24  1  0.75779295  0.62037544  0.98966246  1  0  -0.109931  0  2.994481  0  0  -0.092117  0  3.29779  0  0  -0.09506  0  3.309885  0  0  -0.154801  -0.089856  0  3.289565  0
N  N25  1  0.62058739  0.75759878  0.01031059  1  0  -0.10936  0  2.995079  0  0  -0.091466  0  3.298385  0  0  -0.094413  0  3.310489  0  0  -0.15426  -0.089218  0  3.290148  0
N  N26  1  0.81942766  0.22212081  0.67550300  1  0  -0.307124  0  2.989556  0  0  -0.292856  0  3.282166  0  0  -0.299763  0  3.295954  0  0  -0.239563  -0.288213  0  3.273807  0
N  N27  1  0.22196234  0.81953302  0.32449675  1  0  -0.307105  0  2.989483  0  0  -0.292953  0  3.282112  0  0  -0.299853  0  3.29589  0  0  -0.23955  -0.288314  0  3.273762  0
N  N28  1  0.22209454  0.81942905  0.17550489  1  0  -0.306855  0  2.989522  0  0  -0.292593  0  3.282044  0  0  -0.29948  0  3.295778  0  0  -0.239523  -0.287962  0  3.273693  0
N  N29  1  0.81954387  0.22199151  0.82449618  1  0  -0.307213  0  2.989316  0  0  -0.293036  0  3.281976  0  0  -0.299931  0  3.295703  0  0  -0.239523  -0.288388  0  3.273619  0
N  N30  1  0.55365181  0.99202616  0.74999783  1  0  0.442701  0  3.966922  0  0  0.490092  0  4.240539  0  0  0.510004  0  4.249284  0  0  0.073207  0.491488  0  4.211569  0
N  N31  1  0.99197681  0.55366801  0.24999706  1  0  0.442469  0  3.966749  0  0  0.489887  0  4.240407  0  0  0.50979  0  4.249182  0  0  0.073283  0.491509  0  4.211097  0
N  N32  1  0.97958383  0.34594806  0.70536891  1  0  -0.057927  0  2.970934  0  0  -0.033071  0  3.251816  0  0  -0.036837  0  3.264159  0  0  -0.064034  -0.03029  0  3.243291  0
N  N33  1  0.34585110  0.97964033  0.29463409  1  0  -0.057786  0  2.970714  0  0  -0.032864  0  3.251531  0  0  -0.036624  0  3.263873  0  0  -0.064203  -0.030089  0  3.243006  0
N  N34  1  0.34592894  0.97957859  0.20537270  1  0  -0.057879  0  2.970971  0  0  -0.032998  0  3.251817  0  0  -0.036766  0  3.264181  0  0  -0.063982  -0.030217  0  3.243292  0
N  N35  1  0.97965385  0.34587358  0.79462963  1  0  -0.05765  0  2.970613  0  0  -0.032718  0  3.251422  0  0  -0.036478  0  3.263786  0  0  -0.064134  -0.029942  0  3.242899  0
O  O36  1  0.25626381  0.03450389  0.52061626  1  0  -0.358041  0  1.811774  0  0  -0.352787  0  2.023367  0  0  -0.36402  0  2.016687  0  0  -0.136325  -0.345258  0  2.028064  0
O  O37  1  0.03434089  0.25646901  0.47939882  1  0  -0.357028  0  1.812969  0  0  -0.351808  0  2.024562  0  0  -0.363038  0  2.017902  0  0  -0.135903  -0.344285  0  2.029258  0
O  O38  1  0.03451187  0.25627648  0.02061446  1  0  -0.357368  0  1.811403  0  0  -0.352995  0  2.022844  0  0  -0.357406  0  2.025955  0  0  -0.136443  -0.345477  0  2.027569  0
O  O39  1  0.25645230  0.03433028  0.97939331  1  0  -0.356231  0  1.813497  0  0  -0.351785  0  2.024768  0  0  -0.356171  0  2.027899  0  0  -0.135893  -0.344276  0  2.029507  0
O  O40  1  0.48064102  0.35218300  0.38377678  1  0  -0.907204  0  1.846965  0  0  -0.860052  0  2.032795  0  0  -0.875711  0  1.999859  0  0  -0.674221  -0.848948  0  2.055879  0
O  O41  1  0.35200464  0.48086322  0.61623320  1  0  -0.907021  0  1.847349  0  0  -0.859907  0  2.033416  0  0  -0.875555  0  2.000477  0  0  -0.673904  -0.848801  0  2.056515  0
O  O42  1  0.35220172  0.48063366  0.88377369  1  0  -0.90711  0  1.847306  0  0  -0.859991  0  2.033119  0  0  -0.875635  0  2.000226  0  0  -0.674223  -0.848882  0  2.056206  0
O  O43  1  0.48086683  0.35199781  0.11623164  1  0  -0.907083  0  1.847467  0  0  -0.859962  0  2.033443  0  0  -0.875606  0  2.000519  0  0  -0.673916  -0.848855  0  2.056539  0
O  O44  1  0.48605359  0.92771088  0.67674145  1  0  -0.333769  0  1.78907  0  0  -0.318659  0  1.987327  0  0  -0.330111  0  1.982302  0  0  -0.10302  -0.316041  0  1.983916  0
O  O45  1  0.92744366  0.48628291  0.32323799  1  0  -0.333621  0  1.789888  0  0  -0.318607  0  1.988237  0  0  -0.330059  0  1.983216  0  0  -0.103116  -0.316062  0  1.984717  0
O  O46  1  0.92762553  0.48611494  0.17673604  1  0  -0.333437  0  1.788656  0  0  -0.318438  0  1.986972  0  0  -0.329889  0  1.981977  0  0  -0.103054  -0.315904  0  1.983461  0
O  O47  1  0.48629381  0.92747187  0.82324141  1  0  -0.333783  0  1.789751  0  0  -0.318762  0  1.988093  0  0  -0.330217  0  1.983093  0  0  -0.103166  -0.316138  0  1.984685  0
