# generated using pymatgen
data_HoH14C14N3O9F4
_symmetry_space_group_name_H-M   'P 1'
_cell_length_a   11.31010772
_cell_length_b   12.33038085
_cell_length_c   20.10774464
_cell_angle_alpha   73.73269757
_cell_angle_beta   73.66450587
_cell_angle_gamma   62.70791981
_symmetry_Int_Tables_number   1
_chemical_formula_structural   HoH14C14N3O9F4
_chemical_formula_sum   'Ho4 H56 C56 N12 O36 F16'
_cell_volume   2353.56175405
_cell_formula_units_Z   4
loop_
 _symmetry_equiv_pos_site_id
 _symmetry_equiv_pos_as_xyz
  1  'x, y, z'
loop_
 _atom_site_type_symbol
 _atom_site_label
 _atom_site_symmetry_multiplicity
 _atom_site_fract_x
 _atom_site_fract_y
 _atom_site_fract_z
 _atom_site_occupancy
 _atom_site_pbe_bader_charge
 _atom_site_pbe_bader_spin_density
 _atom_site_pbe_cm5_charge
 _atom_site_pbe_ddec_charge
 _atom_site_pbe_ddec_spin_density
 _atom_site_pbe_ddec_sum_bond_order
 _atom_site_pbe_magmom
Ho  Ho0  1  0.13622701  0.10900262  0.69582213  1  2.182657  0  1.532728  2.033594  0  2.164635  0
Ho  Ho1  1  0.94112064  0.39105001  0.80414024  1  2.184672  0  1.533453  2.035179  0  2.162268  0
Ho  Ho2  1  0.86377846  0.89099364  0.30417655  1  2.182669  0  1.532656  2.033631  0  2.164522  0
Ho  Ho3  1  0.05887731  0.60895274  0.19585899  1  2.184593  0  1.53342  2.035199  0  2.162284  0
H  H4  1  0.95803858  0.02627802  0.61381652  1  0.106178  0  0.129042  0.051737  0  0.98154  0
H  H5  1  0.59849367  0.47378653  0.88612857  1  0.093637  0  0.128408  0.050844  0  0.982912  0
H  H6  1  0.04196122  0.97372473  0.38618242  1  0.10615  0  0.129062  0.051766  0  0.981578  0
H  H7  1  0.40149589  0.52621438  0.11387380  1  0.093004  0  0.128346  0.050778  0  0.982946  0
H  H8  1  0.24412543  0.74279884  0.65722828  1  0.093398  0  0.115716  0.135714  0  1.009922  0
H  H9  1  0.64427223  0.75744216  0.84274254  1  0.109  0  0.115169  0.135616  0  1.009017  0
H  H10  1  0.75586814  0.25719929  0.34277543  1  0.09331  0  0.115721  0.135713  0  1.009979  0
H  H11  1  0.35572578  0.24255226  0.15725912  1  0.109135  0  0.115148  0.135596  0  1.008995  0
H  H12  1  0.25468897  0.68895803  0.58073217  1  0.056263  0  0.109014  0.127276  0  0.975379  0
H  H13  1  0.52447565  0.81116467  0.91923735  1  0.090249  0  0.109184  0.127739  0  0.975134  0
H  H14  1  0.74530996  0.31103637  0.41926835  1  0.056639  0  0.109013  0.127327  0  0.975315  0
H  H15  1  0.47552345  0.18883345  0.08076350  1  0.090255  0  0.1092  0.127771  0  0.975063  0
H  H16  1  0.14853455  0.65786118  0.66061814  1  0.071543  0  0.105762  0.12617  0  0.997125  0
H  H17  1  0.46713308  0.84225761  0.83935651  1  0.04724  0  0.106502  0.126508  0  0.997457  0
H  H18  1  0.85145911  0.34213880  0.33938375  1  0.071611  0  0.105718  0.12608  0  0.99718  0
H  H19  1  0.53286552  0.15773958  0.16064507  1  0.047216  0  0.106508  0.126515  0  0.997446  0
H  H20  1  0.92091855  0.93451374  0.54794847  1  0.069641  0  0.10986  0.121392  0  0.995716  0
H  H21  1  0.40395186  0.56526082  0.95206960  1  0.069508  0  0.110129  0.121571  0  0.996545  0
H  H22  1  0.07907788  0.06548623  0.45205248  1  0.069669  0  0.109883  0.121437  0  0.995684  0
H  H23  1  0.59603603  0.43474380  0.04793338  1  0.068955  0  0.110121  0.121594  0  0.996567  0
H  H24  1  0.96518067  0.77245804  0.57695954  1  0.092261  0  0.106608  0.125942  0  1.013797  0
H  H25  1  0.31492496  0.72727125  0.92311368  1  0.07651  0  0.10634  0.125957  0  1.013839  0
H  H26  1  0.03481778  0.22754564  0.42304046  1  0.092269  0  0.106618  0.125989  0  1.013677  0
H  H27  1  0.68506846  0.27273337  0.07688793  1  0.076594  0  0.106374  0.126016  0  1.013847  0
H  H28  1  0.07395814  0.82400079  0.50693658  1  0.077955  0  0.10394  0.118757  0  0.995539  0
H  H29  1  0.40529763  0.67588313  0.99308035  1  0.061588  0  0.103815  0.118981  0  0.995613  0
H  H30  1  0.92603871  0.17599825  0.49306396  1  0.077885  0  0.103952  0.118788  0  0.995553  0
H  H31  1  0.59469302  0.32412149  0.00692120  1  0.061634  0  0.103791  0.118996  0  0.995635  0
H  H32  1  0.47764303  0.00978340  0.68311807  1  0.114396  0  0.12412  0.048972  0  1.019858  0
H  H33  1  0.17035858  0.49016101  0.81701872  1  0.117343  0  0.12395  0.048085  0  1.021093  0
H  H34  1  0.52235724  0.99021008  0.31688290  1  0.114527  0  0.124127  0.04893  0  1.019849  0
H  H35  1  0.82963894  0.50984268  0.18298341  1  0.117401  0  0.123934  0.048111  0  1.021108  0
H  H36  1  0.69092190  0.90960181  0.68559480  1  0.046485  0  0.102921  0.110989  0  1.004408  0
H  H37  1  0.28594009  0.59026857  0.81446425  1  0.047698  0  0.10275  0.110515  0  1.004818  0
H  H38  1  0.30907896  0.09039445  0.31440460  1  0.046995  0  0.102925  0.110966  0  1.004554  0
H  H39  1  0.71405702  0.40973604  0.18553729  1  0.047953  0  0.102742  0.11049  0  1.004822  0
H  H40  1  0.76892107  0.79578992  0.62940213  1  0.091709  0  0.1032  0.126224  0  1.034663  0
H  H41  1  0.19408782  0.70407121  0.87065205  1  0.081197  0  0.102873  0.125528  0  1.035315  0
H  H42  1  0.23107796  0.20420634  0.37059756  1  0.091733  0  0.103171  0.126235  0  1.034723  0
H  H43  1  0.80590610  0.29593433  0.12934933  1  0.081226  0  0.102854  0.125534  0  1.035298  0
H  H44  1  0.75142000  0.74688254  0.72237432  1  0.088672  0  0.111064  0.134321  0  1.007794  0
H  H45  1  0.22068626  0.75295509  0.77768823  1  0.082203  0  0.111625  0.134625  0  1.007529  0
H  H46  1  0.24858013  0.25311742  0.27762357  1  0.08867  0  0.111066  0.134318  0  1.007804  0
H  H47  1  0.77930950  0.24705046  0.22231335  1  0.082186  0  0.111608  0.134611  0  1.007597  0
H  H48  1  0.46476532  0.71400689  0.70111095  1  0.05774  0  0.106224  0.122087  0  1.011469  0
H  H49  1  0.87986132  0.78598223  0.79888912  1  0.065489  0  0.106904  0.123535  0  1.010287  0
H  H50  1  0.53523329  0.28599029  0.29888865  1  0.057757  0  0.106237  0.122127  0  1.011504  0
H  H51  1  0.12013696  0.21401774  0.20110955  1  0.065533  0  0.106907  0.123561  0  1.010295  0
H  H52  1  0.63929741  0.63049695  0.71080723  1  0.090636  0  0.108723  0.130617  0  1.021589  0
H  H53  1  0.98068678  0.86949169  0.78910211  1  0.119549  0  0.109235  0.131421  0  1.022462  0
H  H54  1  0.36070161  0.36949932  0.28919346  1  0.09085  0  0.108752  0.130677  0  1.021522  0
H  H55  1  0.01930933  0.13051105  0.21089592  1  0.119566  0  0.109238  0.131424  0  1.022491  0
H  H56  1  0.59607985  0.69214107  0.62507977  1  0.069008  0  0.106366  0.129185  0  0.979289  0
H  H57  1  0.91327391  0.80802519  0.87484139  1  0.070067  0  0.106806  0.129861  0  0.978928  0
H  H58  1  0.40391792  0.30785798  0.37492063  1  0.069034  0  0.106389  0.129233  0  0.97922  0
H  H59  1  0.08672129  0.19197756  0.12515629  1  0.070008  0  0.1068  0.129869  0  0.978981  0
C  C60  1  0.27620724  0.24986214  0.75009707  1  1.672028  0  0.242247  0.698021  0  4.117828  0
C  C61  1  0.72378586  0.75014525  0.24990262  1  1.671791  0  0.242277  0.698199  0  4.117698  0
C  C62  1  0.40977923  0.24989494  0.75013271  1  0.0882  0  -0.023264  -0.206484  0  3.994328  0
C  C63  1  0.59021829  0.75010875  0.24986892  1  0.088342  0  -0.023238  -0.206512  0  3.994436  0
C  C64  1  0.51272857  0.14500901  0.77931651  1  0.522558  0  0.090463  0.147835  0  4.101087  0
C  C65  1  0.43679779  0.35490710  0.72097304  1  0.524543  0  0.089652  0.148932  0  4.101219  0
C  C66  1  0.48727030  0.85499375  0.22068358  1  0.5225  0  0.090442  0.147802  0  4.101025  0
C  C67  1  0.56320199  0.64509566  0.27902789  1  0.524425  0  0.089613  0.148933  0  4.101185  0
C  C68  1  0.63630468  0.14476539  0.77869648  1  0.520753  0  0.090144  0.150374  0  4.100864  0
C  C69  1  0.55944074  0.35538222  0.72151607  1  0.515334  0  0.09032  0.150044  0  4.102296  0
C  C70  1  0.36370358  0.85523084  0.22129828  1  0.521146  0  0.090215  0.150535  0  4.100889  0
C  C71  1  0.44056172  0.64461869  0.27848477  1  0.51544  0  0.090319  0.150093  0  4.102186  0
C  C72  1  0.66269983  0.25013259  0.75008831  1  0.119643  0  -0.023751  -0.202052  0  3.991049  0
C  C73  1  0.33730348  0.74986644  0.24990973  1  0.119288  0  -0.023819  -0.202266  0  3.991145  0
C  C74  1  0.79675205  0.25019376  0.75003155  1  1.674244  0  0.235933  0.692741  0  4.136063  0
C  C75  1  0.20325144  0.74980899  0.24996632  1  1.674188  0  0.235977  0.692907  0  4.135631  0
C  C76  1  0.98194998  0.43743243  0.65259586  1  1.65353  0  0.225716  0.668542  0  4.162544  0
C  C77  1  0.07156026  0.06260380  0.84735936  1  1.644941  0  0.226464  0.669401  0  4.159887  0
C  C78  1  0.01805517  0.56256661  0.34740288  1  1.653276  0  0.225737  0.668601  0  4.162401  0
C  C79  1  0.92845235  0.93740730  0.15263961  1  1.645099  0  0.226519  0.669553  0  4.159734  0
C  C80  1  0.99132164  0.46961228  0.57391693  1  0.090589  0  -0.019037  -0.199398  0  4.000156  0
C  C81  1  0.03459521  0.03044731  0.92605330  1  0.052894  0  -0.020484  -0.200122  0  3.997502  0
C  C82  1  0.00867314  0.53039139  0.42608065  1  0.090763  0  -0.019074  -0.199424  0  4.000189  0
C  C83  1  0.96543229  0.96955730  0.07394644  1  0.061601  0  -0.020583  -0.200116  0  3.997357  0
C  C84  1  0.90674309  0.45462429  0.54181179  1  0.547485  0  0.096401  0.165816  0  4.083671  0
C  C85  1  0.90301320  0.04534954  0.95829530  1  0.58584  0  0.096816  0.165206  0  4.080563  0
C  C86  1  0.09325603  0.54537381  0.45818508  1  0.547268  0  0.096405  0.165852  0  4.083946  0
C  C87  1  0.09701962  0.95464117  0.04170699  1  0.587606  0  0.096647  0.165171  0  4.080512  0
C  C88  1  0.08482935  0.51508795  0.53092013  1  0.525635  0  0.092868  0.156684  0  4.084847  0
C  C89  1  0.13073558  0.98497148  0.96895577  1  0.55073  0  0.094692  0.15987  0  4.08197  0
C  C90  1  0.91516309  0.48491479  0.46907649  1  0.525567  0  0.092959  0.156799  0  4.084771  0
C  C91  1  0.86928931  0.01502665  0.03104550  1  0.542476  0  0.094839  0.16003  0  4.081828  0
C  C92  1  0.04361245  0.94321419  0.63331345  1  1.367779  0  0.187283  0.32896  0  4.091278  0
C  C93  1  0.62040242  0.55691932  0.86656933  1  1.398052  0  0.188385  0.328762  0  4.092431  0
C  C94  1  0.95639394  0.05678207  0.36668657  1  1.367535  0  0.187256  0.328981  0  4.091122  0
C  C95  1  0.37959289  0.44307697  0.13343641  1  1.398888  0  0.188553  0.328868  0  4.09226  0
C  C96  1  0.18783194  0.72601193  0.62794078  1  0.279981  0  -0.131437  -0.274741  0  3.883322  0
C  C97  1  0.54192608  0.77413632  0.87201727  1  0.260284  0  -0.131942  -0.275885  0  3.883134  0
C  C98  1  0.81216380  0.27398342  0.37206208  1  0.279584  0  -0.131435  -0.274677  0  3.883227  0
C  C99  1  0.45807117  0.22586180  0.12798486  1  0.260103  0  -0.131939  -0.275883  0  3.883042  0
C  C100  1  0.00519769  0.84373942  0.55718516  1  0.245517  0  -0.131085  -0.286338  0  3.938087  0
C  C101  1  0.40653079  0.65611145  0.94283401  1  0.276046  0  -0.13124  -0.287574  0  3.939934  0
C  C102  1  0.99480008  0.15625964  0.44281624  1  0.245509  0  -0.131116  -0.286367  0  3.937959  0
C  C103  1  0.59346029  0.34389224  0.05716714  1  0.276433  0  -0.131225  -0.287683  0  3.939968  0
C  C104  1  0.46179992  0.92857766  0.68231343  1  1.386157  0  0.181337  0.323405  0  4.086827  0
C  C105  1  0.07250910  0.57136952  0.81778591  1  1.374922  0  0.183071  0.325797  0  4.084026  0
C  C106  1  0.53820003  0.07141859  0.31768562  1  1.385914  0  0.181337  0.323491  0  4.086571  0
C  C107  1  0.92748743  0.42863230  0.18221222  1  1.374952  0  0.183008  0.325635  0  4.084102  0
C  C108  1  0.70372451  0.81876276  0.67983083  1  0.250088  0  -0.133145  -0.286739  0  3.892807  0
C  C109  1  0.20220784  0.68111240  0.82023161  1  0.27266  0  -0.133025  -0.286  0  3.894898  0
C  C110  1  0.29627501  0.18123443  0.32016862  1  0.249538  0  -0.133139  -0.286741  0  3.892911  0
C  C111  1  0.79778784  0.31889129  0.17976981  1  0.272337  0  -0.132976  -0.285999  0  3.895026  0
C  C112  1  0.56761119  0.70763389  0.67969413  1  0.287104  0  -0.134641  -0.273981  0  3.872009  0
C  C113  1  0.95495664  0.79239977  0.82025948  1  0.256018  0  -0.136329  -0.27734  0  3.872775  0
C  C114  1  0.43239009  0.29236145  0.32030586  1  0.286958  0  -0.134775  -0.274246  0  3.871949  0
C  C115  1  0.04504215  0.20760113  0.17973896  1  0.256031  0  -0.136325  -0.277406  0  3.872869  0
N  N116  1  0.07659405  0.84250706  0.60741271  1  -1.205206  0  -0.276014  0.038455  0  3.709512  0
N  N117  1  0.52680907  0.65754314  0.89254414  1  -1.218048  0  -0.27664  0.039897  0  3.709356  0
N  N118  1  0.92340539  0.15748828  0.39258758  1  -1.20509  0  -0.275967  0.038333  0  3.709476  0
N  N119  1  0.47318551  0.34245684  0.10745859  1  -1.217977  0  -0.276672  0.039884  0  3.709369  0
N  N120  1  0.57213368  0.82264459  0.68209216  1  -1.222479  0  -0.273329  0.048484  0  3.705166  0
N  N121  1  0.07675929  0.67730782  0.81795838  1  -1.220742  0  -0.273182  0.049562  0  3.703642  0
N  N122  1  0.42786986  0.17734981  0.31790714  1  -1.222474  0  -0.273259  0.048619  0  3.705002  0
N  N123  1  0.92323848  0.32269123  0.18204252  1  -1.220748  0  -0.273213  0.049659  0  3.703635  0
N  N124  1  0.20408732  0.18834316  0.54658312  1  0.816085  0  0.078175  0.721322  0  4.435612  0
N  N125  1  0.93901649  0.31175726  0.95337813  1  0.823649  0  0.079893  0.725367  0  4.433049  0
N  N126  1  0.79589497  0.81165959  0.45341609  1  0.815249  0  0.078209  0.721353  0  4.435531  0
N  N127  1  0.06098731  0.68824271  0.04662266  1  0.823139  0  0.079831  0.725226  0  4.433275  0
O  O128  1  0.28258834  0.15803121  0.73071848  1  -1.165545  0  -0.377471  -0.638449  0  2.336807  0
O  O129  1  0.17136513  0.34169217  0.76943462  1  -1.180508  0  -0.377571  -0.638075  0  2.336608  0
O  O130  1  0.71740998  0.84197895  0.26927743  1  -1.165594  0  -0.377444  -0.638513  0  2.33685  0
O  O131  1  0.82862949  0.65831800  0.23056386  1  -1.180367  0  -0.377607  -0.638212  0  2.336524  0
O  O132  1  0.90073282  0.16644351  0.72228650  1  -1.182509  0  -0.376941  -0.64598  0  2.274838  0
O  O133  1  0.78921910  0.33401116  0.77772710  1  -1.16924  0  -0.377858  -0.647439  0  2.274724  0
O  O134  1  0.09927399  0.83355182  0.27771263  1  -1.18246  0  -0.376963  -0.646031  0  2.2748  0
O  O135  1  0.21078319  0.66598602  0.22227191  1  -1.169211  0  -0.37788  -0.647537  0  2.274543  0
O  O136  1  0.03098669  0.32344734  0.68087817  1  -1.200964  0  -0.415337  -0.727386  0  2.488873  0
O  O137  1  0.03510799  0.17657983  0.81909662  1  -1.198378  0  -0.415326  -0.727633  0  2.487029  0
O  O138  1  0.96901469  0.67654984  0.31911800  1  -1.200724  0  -0.415339  -0.727416  0  2.488955  0
O  O139  1  0.96489641  0.82342292  0.18090111  1  -1.198166  0  -0.415384  -0.727794  0  2.486876  0
O  O140  1  0.92527033  0.52300388  0.68834576  1  -1.144048  0  -0.344263  -0.580878  0  2.158351  0
O  O141  1  0.13588934  0.97705779  0.81158874  1  -1.168132  0  -0.344516  -0.581205  0  2.159354  0
O  O142  1  0.07473363  0.47698960  0.31165364  1  -1.144112  0  -0.344272  -0.580911  0  2.158139  0
O  O143  1  0.86411840  0.02294775  0.18841146  1  -1.16831  0  -0.344504  -0.581274  0  2.159506  0
O  O144  1  0.10359739  0.94532525  0.67642596  1  -1.168484  0  -0.367982  -0.548209  0  2.425216  0
O  O145  1  0.72543071  0.55496383  0.82332518  1  -1.178403  0  -0.36759  -0.547445  0  2.425579  0
O  O146  1  0.89640389  0.05467009  0.32357403  1  -1.168205  0  -0.367992  -0.548239  0  2.424933  0
O  O147  1  0.27456812  0.44502873  0.17667867  1  -1.178566  0  -0.36769  -0.547496  0  2.425441  0
O  O148  1  0.34578482  0.93809365  0.68295462  1  -1.168936  0  -0.381543  -0.56097  0  2.368772  0
O  O149  1  0.96663542  0.56187533  0.81714631  1  -1.174978  0  -0.383135  -0.562663  0  2.368931  0
O  O150  1  0.65421807  0.06190632  0.31704432  1  -1.168913  0  -0.381525  -0.561016  0  2.368548  0
O  O151  1  0.03336000  0.43812279  0.18285562  1  -1.174998  0  -0.383033  -0.562547  0  2.368992  0
O  O152  1  0.27427169  0.17916519  0.58948356  1  -0.552624  0  -0.2378  -0.505671  0  1.992815  0
O  O153  1  0.04300158  0.32079084  0.91050272  1  -0.54902  0  -0.238626  -0.50741  0  1.995143  0
O  O154  1  0.72572057  0.82083383  0.41051174  1  -0.552097  0  -0.237848  -0.505769  0  1.992955  0
O  O155  1  0.95700037  0.67920914  0.08949885  1  -0.548997  0  -0.238615  -0.507388  0  1.995209  0
O  O156  1  0.23005343  0.22384883  0.48253376  1  -0.477339  0  -0.152953  -0.384355  0  1.959024  0
O  O157  1  0.93632635  0.27636330  0.01743977  1  -0.484701  0  -0.15342  -0.385955  0  1.958956  0
O  O158  1  0.76990964  0.77616597  0.51746391  1  -0.477302  0  -0.15296  -0.38432  0  1.958891  0
O  O159  1  0.06367970  0.72363574  0.98256082  1  -0.484629  0  -0.153359  -0.385872  0  1.95905  0
O  O160  1  0.10238714  0.15868849  0.57462558  1  -0.597531  0  -0.257244  -0.55336  0  2.028343  0
O  O161  1  0.83575055  0.34142369  0.92528957  1  -0.601174  0  -0.258034  -0.55486  0  2.024071  0
O  O162  1  0.89759763  0.84130871  0.42537718  1  -0.597248  0  -0.257195  -0.553291  0  2.02814  0
O  O163  1  0.16425399  0.65857258  0.07471223  1  -0.600739  0  -0.258051  -0.554812  0  2.024165  0
F  F164  1  0.49351865  0.04025902  0.81069840  1  -0.621768  0  -0.077951  -0.103187  0  1.423562  0
F  F165  1  0.34411636  0.45958502  0.68959285  1  -0.627186  0  -0.078244  -0.104173  0  1.420837  0
F  F166  1  0.50647713  0.95974652  0.18930219  1  -0.621827  0  -0.077923  -0.103149  0  1.423524  0
F  F167  1  0.65588267  0.54042147  0.31041104  1  -0.627152  0  -0.078229  -0.104166  0  1.420753  0
F  F168  1  0.73030989  0.03930280  0.80829062  1  -0.625857  0  -0.077935  -0.099199  0  1.429545  0
F  F169  1  0.57730617  0.46096703  0.69193173  1  -0.619027  0  -0.077877  -0.099328  0  1.430799  0
F  F170  1  0.26970173  0.96068599  0.19169893  1  -0.625827  0  -0.077942  -0.099246  0  1.429696  0
F  F171  1  0.42270072  0.53903017  0.30806955  1  -0.619026  0  -0.077868  -0.099319  0  1.430603  0
F  F172  1  0.81355793  0.41156281  0.58157963  1  -0.621647  0  -0.085135  -0.106191  0  1.381449  0
F  F173  1  0.80633346  0.08851643  0.91866367  1  -0.620888  0  -0.085048  -0.106135  0  1.380106  0
F  F174  1  0.18644069  0.58843436  0.41841698  1  -0.621625  0  -0.085096  -0.106189  0  1.3816  0
F  F175  1  0.19369234  0.91148170  0.08133894  1  -0.621344  0  -0.084843  -0.105962  0  1.38008  0
F  F176  1  0.17054396  0.52898511  0.56003407  1  -0.622064  0  -0.081221  -0.108697  0  1.384005  0
F  F177  1  0.25940994  0.97114591  0.93972716  1  -0.621423  0  -0.082768  -0.111093  0  1.382222  0
F  F178  1  0.82944681  0.47102134  0.43996267  1  -0.622176  0  -0.081284  -0.108752  0  1.384091  0
F  F179  1  0.74061837  0.02884665  0.06027403  1  -0.621003  0  -0.082781  -0.11109  0  1.382244  0
