# generated using pymatgen
data_CdH10C14N2O5
_symmetry_space_group_name_H-M   'P 1'
_cell_length_a   11.06351812
_cell_length_b   15.90534220
_cell_length_c   15.90906209
_cell_angle_alpha   114.79801328
_cell_angle_beta   103.42471403
_cell_angle_gamma   103.41291083
_symmetry_Int_Tables_number   1
_chemical_formula_structural   CdH10C14N2O5
_chemical_formula_sum   'Cd6 H60 C84 N12 O30'
_cell_volume   2293.54248502
_cell_formula_units_Z   6
loop_
 _symmetry_equiv_pos_site_id
 _symmetry_equiv_pos_as_xyz
  1  'x, y, z'
loop_
 _atom_site_type_symbol
 _atom_site_label
 _atom_site_symmetry_multiplicity
 _atom_site_fract_x
 _atom_site_fract_y
 _atom_site_fract_z
 _atom_site_occupancy
 _atom_site_pbe_bader_charge
 _atom_site_pbe_bader_spin_density
 _atom_site_pbe_cm5_charge
 _atom_site_pbe_ddec_charge
 _atom_site_pbe_ddec_spin_density
 _atom_site_pbe_ddec_sum_bond_order
 _atom_site_pbe_magmom
Cd  Cd0  1  0.85210498  0.62600924  0.38492133  1  1.315792  0  0.775341  0.996827  0  2.082871  0
Cd  Cd1  1  0.46722563  0.61500230  0.24091143  1  1.314496  0  0.775541  0.997087  0  2.081121  0
Cd  Cd2  1  0.22631101  0.75891591  0.37394234  1  1.316298  0  0.77548  0.996889  0  2.082116  0
Cd  Cd3  1  0.14788961  0.37398333  0.61507515  1  1.315769  0  0.775334  0.996842  0  2.082941  0
Cd  Cd4  1  0.53277474  0.38499251  0.75907874  1  1.314473  0  0.775522  0.997107  0  2.081103  0
Cd  Cd5  1  0.77368674  0.24107741  0.62605370  1  1.316242  0  0.775497  0.996865  0  2.082113  0
H  H6  1  0.04374887  0.77646156  0.73401137  1  0.085612  0  0.106345  0.111763  0  1.001405  0
H  H7  1  0.30966603  0.26573222  0.04231421  1  0.075045  0  0.106845  0.112816  0  1.002647  0
H  H8  1  0.26692535  0.95749272  0.22315872  1  0.060093  0  0.1068  0.113013  0  1.000892  0
H  H9  1  0.95625001  0.22353773  0.26599050  1  0.085601  0  0.106332  0.111754  0  1.001419  0
H  H10  1  0.69033825  0.73426857  0.95768791  1  0.074967  0  0.106857  0.112859  0  1.002632  0
H  H11  1  0.73307539  0.04250658  0.77684346  1  0.060098  0  0.106805  0.112986  0  1.000906  0
H  H12  1  0.19026052  0.81240310  0.90107860  1  0.072722  0  0.101399  0.098422  0  0.995284  0
H  H13  1  0.28913157  0.09865234  0.91119552  1  0.061508  0  0.101718  0.09892  0  0.993538  0
H  H14  1  0.37756420  0.08857218  0.18720574  1  0.052004  0  0.101911  0.099767  0  0.994339  0
H  H15  1  0.80973947  0.18759470  0.09892345  1  0.072712  0  0.101388  0.098397  0  0.99536  0
H  H16  1  0.71086713  0.90134845  0.08880443  1  0.061514  0  0.101716  0.098937  0  0.993535  0
H  H17  1  0.62243561  0.91142712  0.81279628  1  0.051973  0  0.10187  0.099694  0  0.994343  0
H  H18  1  0.35780075  0.73224234  0.90961836  1  0.095186  0  0.095535  0.087633  0  1.062907  0
H  H19  1  0.44810324  0.09018367  0.82251658  1  0.105343  0  0.095688  0.088361  0  1.062683  0
H  H20  1  0.62536891  0.17729110  0.26744021  1  0.070652  0  0.096078  0.088102  0  1.063353  0
H  H21  1  0.64220018  0.26775546  0.09038007  1  0.095133  0  0.095531  0.087617  0  1.062846  0
H  H22  1  0.55189063  0.90981488  0.17748040  1  0.105386  0  0.095706  0.088354  0  1.062637  0
H  H23  1  0.37463071  0.82270969  0.73255989  1  0.070669  0  0.0961  0.088142  0  1.063321  0
H  H24  1  0.37841644  0.61726038  0.75343828  1  0.109883  0  0.108652  0.117098  0  1.00904  0
H  H25  1  0.62492770  0.24645151  0.86373942  1  0.099737  0  0.109459  0.118995  0  1.00744  0
H  H26  1  0.76095848  0.13617283  0.38254008  1  0.093218  0  0.108679  0.117217  0  1.008826  0
H  H27  1  0.62158300  0.38273816  0.24655897  1  0.109906  0  0.108648  0.117107  0  1.009062  0
H  H28  1  0.37506783  0.75354479  0.13625625  1  0.099777  0  0.10941  0.118912  0  1.007399  0
H  H29  1  0.23904301  0.86382796  0.61745969  1  0.093222  0  0.108694  0.117256  0  1.008783  0
H  H30  1  0.17573752  0.48736351  0.38399021  1  0.112925  0  0.113968  0.124661  0  1.000702  0
H  H31  1  0.79143600  0.61624910  0.10342037  1  0.100389  0  0.114392  0.126043  0  0.999934  0
H  H32  1  0.68772505  0.89653991  0.51259251  1  0.11685  0  0.114322  0.125697  0  1.00154  0
H  H33  1  0.82426007  0.51263877  0.61601081  1  0.112976  0  0.113947  0.124664  0  1.000631  0
H  H34  1  0.20856065  0.38374945  0.89657831  1  0.100431  0  0.114388  0.126025  0  0.999932  0
H  H35  1  0.31227515  0.10346386  0.48740957  1  0.116882  0  0.114297  0.12566  0  1.001595  0
H  H36  1  0.23440194  0.39556610  0.23740200  1  0.101223  0  0.105645  0.110883  0  0.995708  0
H  H37  1  0.99709419  0.76281403  0.15846039  1  0.097158  0  0.105734  0.110894  0  0.995701  0
H  H38  1  0.83833611  0.84159322  0.60416380  1  0.107328  0  0.105548  0.110514  0  0.996544  0
H  H39  1  0.76559620  0.60443543  0.76259880  1  0.101164  0  0.105653  0.110905  0  0.995668  0
H  H40  1  0.00290413  0.23718601  0.84154108  1  0.097177  0  0.105747  0.110902  0  0.995703  0
H  H41  1  0.16166278  0.15840981  0.39583775  1  0.107333  0  0.105525  0.110449  0  0.996572  0
H  H42  1  0.37912166  0.29931921  0.24884110  1  0.048738  0  0.101298  0.098337  0  1.006291  0
H  H43  1  0.13064713  0.75127361  0.05099828  1  0.062894  0  0.1014  0.099006  0  1.005389  0
H  H44  1  0.07940845  0.94922144  0.70031353  1  0.079444  0  0.101556  0.098872  0  1.00533  0
H  H45  1  0.62087704  0.70068158  0.75115760  1  0.048693  0  0.101275  0.098335  0  1.006334  0
H  H46  1  0.86935305  0.24872643  0.94900411  1  0.06285  0  0.101404  0.099029  0  1.005365  0
H  H47  1  0.92059137  0.05078159  0.29968754  1  0.079379  0  0.101558  0.098886  0  1.00536  0
H  H48  1  0.46537950  0.29476221  0.40536771  1  0.103418  0  0.105769  0.108524  0  1.017884  0
H  H49  1  0.06027624  0.59468131  0.88989167  1  0.098578  0  0.105573  0.107518  0  1.019089  0
H  H50  1  0.17025117  0.11039068  0.70499082  1  0.105872  0  0.105818  0.108494  0  1.018773  0
H  H51  1  0.53461827  0.70523857  0.59463210  1  0.103665  0  0.105793  0.108588  0  1.017914  0
H  H52  1  0.93972618  0.40531947  0.11011077  1  0.098423  0  0.105565  0.107511  0  1.019091  0
H  H53  1  0.82975013  0.88961160  0.29501018  1  0.105928  0  0.105833  0.108525  0  1.018785  0
H  H54  1  0.90474073  0.54372130  0.21420718  1  0.670754  0  0.291653  0.395051  0  0.946878  0
H  H55  1  0.69052370  0.78593279  0.32963093  1  0.651931  0  0.291462  0.395403  0  0.946321  0
H  H56  1  0.36100439  0.67047277  0.45630181  1  0.66217  0  0.291353  0.395101  0  0.946981  0
H  H57  1  0.09525983  0.45627949  0.78579245  1  0.670753  0  0.291642  0.394981  0  0.94697  0
H  H58  1  0.30947723  0.21406874  0.67036970  1  0.651927  0  0.291501  0.39548  0  0.946232  0
H  H59  1  0.63899542  0.32952652  0.54369707  1  0.662181  0  0.291337  0.395058  0  0.947039  0
H  H60  1  0.74624109  0.52072110  0.17552850  1  0.639051  0  0.291713  0.373582  0  0.976406  0
H  H61  1  0.57067017  0.82456941  0.34527084  1  0.644736  0  0.291258  0.373441  0  0.976557  0
H  H62  1  0.22555008  0.65488879  0.47933301  1  0.639943  0  0.291001  0.373035  0  0.977015  0
H  H63  1  0.25375853  0.47927969  0.82447160  1  0.639066  0  0.291715  0.373589  0  0.976386  0
H  H64  1  0.42932834  0.17542913  0.65472877  1  0.644683  0  0.291252  0.373442  0  0.976551  0
H  H65  1  0.77444973  0.34511050  0.52066775  1  0.639993  0  0.291004  0.373039  0  0.977009  0
C  C66  1  0.04253954  0.66296851  0.55534186  1  1.549713  0  0.191437  0.561653  0  4.212836  0
C  C67  1  0.48727086  0.44454399  0.10746991  1  1.525322  0  0.192003  0.562881  0  4.208989  0
C  C68  1  0.37937257  0.89239587  0.33682681  1  1.551556  0  0.193544  0.564357  0  4.212357  0
C  C69  1  0.95745991  0.33703376  0.44465821  1  1.549672  0  0.191493  0.561727  0  4.21253  0
C  C70  1  0.51273285  0.55545381  0.89253023  1  1.525336  0  0.192082  0.562872  0  4.208978  0
C  C71  1  0.62063095  0.10760342  0.66317393  1  1.551919  0  0.193467  0.564315  0  4.212313  0
C  C72  1  0.13140048  0.68086694  0.65236816  1  -0.003058  0  -0.011835  -0.092871  0  3.919172  0
C  C73  1  0.47896175  0.34742905  0.02835554  1  -0.003981  0  -0.01073  -0.09183  0  3.920169  0
C  C74  1  0.45021455  0.97154181  0.31890291  1  -0.072255  0  -0.011389  -0.09151  0  3.919999  0
C  C75  1  0.86859953  0.31913460  0.34763169  1  -0.003282  0  -0.011817  -0.092862  0  3.919243  0
C  C76  1  0.52103917  0.65256875  0.97164289  1  -0.01568  0  -0.010793  -0.091805  0  3.919906  0
C  C77  1  0.54978804  0.02845749  0.68109831  1  -0.07257  0  -0.011395  -0.091628  0  3.920071  0
C  C78  1  0.11916126  0.74362484  0.74054206  1  0.001878  0  -0.0803  -0.083411  0  3.980953  0
C  C79  1  0.37857881  0.25921115  0.00296558  1  0.037768  0  -0.081248  -0.085525  0  3.983951  0
C  C80  1  0.37522673  0.99687025  0.25603515  1  -0.004557  0  -0.080918  -0.08495  0  3.982117  0
C  C81  1  0.88083910  0.25637370  0.25945848  1  0.002115  0  -0.08032  -0.083479  0  3.981004  0
C  C82  1  0.62142547  0.74078963  0.99703590  1  0.037817  0  -0.081208  -0.085543  0  3.983744  0
C  C83  1  0.62477494  0.00312905  0.74396528  1  -0.004478  0  -0.080866  -0.084803  0  3.982163  0
C  C84  1  0.20011784  0.76264754  0.83290787  1  -0.081647  0  -0.091716  -0.092262  0  4.016845  0
C  C85  1  0.36718138  0.16685188  0.92963458  1  -0.041106  0  -0.09223  -0.092687  0  4.014005  0
C  C86  1  0.43716449  0.07016456  0.23697937  1  -0.036924  0  -0.092522  -0.09514  0  4.019345  0
C  C87  1  0.79988401  0.23735026  0.16709134  1  -0.081821  0  -0.091676  -0.092148  0  4.016713  0
C  C88  1  0.63281880  0.83314816  0.07036656  1  -0.041391  0  -0.09227  -0.092792  0  4.014098  0
C  C89  1  0.56283439  0.92983473  0.76302124  1  -0.036904  0  -0.092524  -0.095116  0  4.019362  0
C  C90  1  0.29375998  0.71747040  0.83777283  1  -0.047471  0  -0.084673  -0.050475  0  3.993465  0
C  C91  1  0.45595338  0.16203050  0.87960628  1  -0.060429  0  -0.084575  -0.051539  0  3.991007  0
C  C92  1  0.57604368  0.12023127  0.28217996  1  -0.015707  0  -0.084932  -0.050578  0  3.992257  0
C  C93  1  0.70624187  0.28252740  0.16222638  1  -0.047413  0  -0.084652  -0.05041  0  3.99318  0
C  C94  1  0.54404308  0.83796581  0.12039080  1  -0.060322  0  -0.084539  -0.051454  0  3.990932  0
C  C95  1  0.42395632  0.87977027  0.71782052  1  -0.015763  0  -0.08496  -0.050621  0  3.99235  0
C  C96  1  0.30520943  0.65254792  0.75074197  1  -0.012155  0  -0.083159  -0.148589  0  3.947653  0
C  C97  1  0.55443651  0.24911426  0.90171595  1  -0.031254  0  -0.083685  -0.149714  0  3.945123  0
C  C98  1  0.65242901  0.09817150  0.34717555  1  0.015092  0  -0.083004  -0.147319  0  3.944193  0
C  C99  1  0.69479038  0.34745138  0.24925565  1  -0.012226  0  -0.083175  -0.148694  0  3.94769  0
C  C100  1  0.44556460  0.75088205  0.09828126  1  -0.031046  0  -0.08367  -0.149568  0  3.945004  0
C  C101  1  0.34757303  0.90182854  0.65282526  1  0.015041  0  -0.083028  -0.1474  0  3.944255  0
C  C102  1  0.22454401  0.63390664  0.65777104  1  0.261571  0  0.097771  0.144698  0  4.006811  0
C  C103  1  0.56668036  0.34207298  0.97602251  1  0.282293  0  0.097488  0.144934  0  4.007091  0
C  C104  1  0.59034016  0.02390592  0.36586133  1  0.340014  0  0.098497  0.145163  0  4.008819  0
C  C105  1  0.77545562  0.36609414  0.34222781  1  0.261772  0  0.097782  0.144733  0  4.006835  0
C  C106  1  0.43332149  0.65792482  0.02397734  1  0.29352  0  0.097493  0.144839  0  4.007144  0
C  C107  1  0.40966113  0.97609263  0.63413748  1  0.339935  0  0.098525  0.145248  0  4.008825  0
C  C108  1  0.28924980  0.44364168  0.47604108  1  0.353707  0  0.095241  0.155349  0  3.993663  0
C  C109  1  0.81308205  0.52413933  0.96776850  1  0.301754  0  0.095337  0.156309  0  3.99354  0
C  C110  1  0.84506513  0.03233167  0.55631299  1  0.342343  0  0.094444  0.153163  0  3.996716  0
C  C111  1  0.71074834  0.55635985  0.52395910  1  0.353299  0  0.095201  0.155229  0  3.993721  0
C  C112  1  0.18691776  0.47585996  0.03223101  1  0.301742  0  0.095303  0.15627  0  3.993528  0
C  C113  1  0.15493561  0.96767136  0.44368760  1  0.342173  0  0.094365  0.153002  0  3.996749  0
C  C114  1  0.24054568  0.44583956  0.38766157  1  -0.06701  0  -0.076905  -0.13494  0  3.922873  0
C  C115  1  0.85271045  0.61253540  0.05831979  1  0.015663  0  -0.077523  -0.137775  0  3.923351  0
C  C116  1  0.79411518  0.94170268  0.55403777  1  -0.040195  0  -0.078351  -0.138246  0  3.925263  0
C  C117  1  0.75945246  0.55416198  0.61233798  1  -0.066725  0  -0.076922  -0.134958  0  3.92281  0
C  C118  1  0.14728806  0.38746315  0.94167920  1  0.015637  0  -0.077491  -0.137725  0  3.923365  0
C  C119  1  0.20588632  0.05830183  0.44596358  1  -0.0401  0  -0.078306  -0.138142  0  3.92529  0
C  C120  1  0.27153349  0.39328530  0.30589822  1  -0.004247  0  -0.078514  -0.047112  0  3.970135  0
C  C121  1  0.96568671  0.69430273  0.08766784  1  -0.029  0  -0.078363  -0.045105  0  3.96689  0
C  C122  1  0.87772439  0.91238791  0.60646757  1  -0.071375  0  -0.077645  -0.043882  0  3.966902  0
C  C123  1  0.72846465  0.60671623  0.69410258  1  -0.004384  0  -0.078433  -0.046992  0  3.96995  0
C  C124  1  0.03431217  0.30569657  0.91233340  1  -0.028972  0  -0.078396  -0.045152  0  3.966829  0
C  C125  1  0.12227449  0.08761511  0.39353650  1  -0.071445  0  -0.077646  -0.043815  0  3.966944  0
C  C126  1  0.35278379  0.33897749  0.31227853  1  -0.027408  0  -0.088564  -0.0824  0  3.997808  0
C  C127  1  0.04074511  0.68785727  0.02714877  1  -0.067155  0  -0.088174  -0.084144  0  3.996487  0
C  C128  1  0.01334677  0.97304201  0.66072936  1  -0.02834  0  -0.088547  -0.083998  0  3.996686  0
C  C129  1  0.64721212  0.66102330  0.68772160  1  -0.027541  0  -0.088538  -0.082471  0  3.997665  0
C  C130  1  0.95925469  0.31214202  0.97285325  1  -0.066965  0  -0.088165  -0.08413  0  3.996385  0
C  C131  1  0.98665211  0.02696101  0.33927282  1  -0.028364  0  -0.088528  -0.08407  0  3.996778  0
C  C132  1  0.40098898  0.33623988  0.39983626  1  -0.019956  0  -0.082528  -0.088899  0  3.977749  0
C  C133  1  0.00139005  0.60028227  0.93686073  1  -0.006664  0  -0.083046  -0.086894  0  3.977217  0
C  C134  1  0.06433567  0.06337321  0.66353543  1  -0.009417  0  -0.082607  -0.088024  0  3.978976  0
C  C135  1  0.59900768  0.66376240  0.60016336  1  -0.02034  0  -0.082565  -0.088924  0  3.977696  0
C  C136  1  0.99861199  0.39971777  0.06314134  1  -0.006745  0  -0.083044  -0.086914  0  3.977122  0
C  C137  1  0.93566675  0.93663130  0.33646732  1  -0.009412  0  -0.082644  -0.088022  0  3.978974  0
C  C138  1  0.36866820  0.38683771  0.48241880  1  -0.033971  0  -0.013131  -0.106648  0  3.927681  0
C  C139  1  0.88627723  0.51769864  0.90470516  1  -0.023211  0  -0.012841  -0.107339  0  3.925633  0
C  C140  1  0.98137304  0.09545413  0.61304536  1  -0.052027  0  -0.012606  -0.105818  0  3.926798  0
C  C141  1  0.63133124  0.61316457  0.51758127  1  -0.03338  0  -0.01314  -0.106666  0  3.927746  0
C  C142  1  0.11372350  0.48230065  0.09529576  1  -0.023169  0  -0.012833  -0.107329  0  3.925541  0
C  C143  1  0.01862734  0.90454815  0.38695424  1  -0.052052  0  -0.012518  -0.105694  0  3.926677  0
C  C144  1  0.42435351  0.38121280  0.57422804  1  1.558721  0  0.213815  0.595011  0  4.159736  0
C  C145  1  0.85014428  0.42587325  0.80725046  1  1.556344  0  0.212317  0.593806  0  4.163799  0
C  C146  1  0.04279283  0.19294052  0.61876667  1  1.546007  0  0.214354  0.596279  0  4.163231  0
C  C147  1  0.57564295  0.61878724  0.42577186  1  1.558576  0  0.213862  0.595087  0  4.159872  0
C  C148  1  0.14985721  0.57412753  0.19274994  1  1.556399  0  0.212358  0.59388  0  4.163683  0
C  C149  1  0.95720810  0.80706101  0.38123333  1  1.546013  0  0.214243  0.596157  0  4.163312  0
N  N150  1  0.24980182  0.57826068  0.57207996  1  -0.409678  0  -0.110708  -0.052786  0  3.290683  0
N  N151  1  0.67768101  0.42781982  0.00613777  1  -0.439342  0  -0.110162  -0.051683  0  3.287627  0
N  N152  1  0.67122415  0.99384544  0.42154324  1  -0.435996  0  -0.1122  -0.055598  0  3.289777  0
N  N153  1  0.75019595  0.42174010  0.42791922  1  -0.409591  0  -0.110735  -0.052801  0  3.290733  0
N  N154  1  0.32232102  0.57217649  0.99385959  1  -0.43922  0  -0.110163  -0.051665  0  3.287523  0
N  N155  1  0.32877790  0.00615460  0.57845568  1  -0.435831  0  -0.112204  -0.055607  0  3.289789  0
N  N156  1  0.25502320  0.49557154  0.55881714  1  -0.481558  0  -0.133684  -0.110575  0  3.365416  0
N  N157  1  0.69599245  0.44131300  0.93681950  1  -0.462016  0  -0.135031  -0.112805  0  3.367368  0
N  N158  1  0.75895780  0.06324038  0.50439162  1  -0.455525  0  -0.132834  -0.108076  0  3.364543  0
N  N159  1  0.74497457  0.50442924  0.44118203  1  -0.481602  0  -0.133678  -0.11052  0  3.36552  0
N  N160  1  0.30400791  0.55868555  0.06318042  1  -0.462029  0  -0.135019  -0.112782  0  3.367304  0
N  N161  1  0.24104275  0.93676041  0.49560801  1  -0.455444  0  -0.132797  -0.108012  0  3.364503  0
O  O162  1  0.96254354  0.70961435  0.55760044  1  -1.135654  0  -0.324457  -0.557758  0  2.219557  0
O  O163  1  0.40511845  0.44236728  0.15192312  1  -1.135183  0  -0.325107  -0.558295  0  2.21706  0
O  O164  1  0.25274223  0.84778539  0.29009175  1  -1.154025  0  -0.326041  -0.559115  0  2.218896  0
O  O165  1  0.03746037  0.29038942  0.44239972  1  -1.135623  0  -0.32451  -0.557843  0  2.219423  0
O  O166  1  0.59488526  0.55763052  0.84807640  1  -1.134871  0  -0.325143  -0.558329  0  2.217012  0
O  O167  1  0.74726186  0.15221316  0.70990814  1  -1.154142  0  -0.325977  -0.559016  0  2.218824  0
O  O168  1  0.04783791  0.60166083  0.47383346  1  -1.154577  0  -0.316424  -0.552885  0  2.185141  0
O  O169  1  0.57413149  0.52603341  0.12760430  1  -1.153188  0  -0.316602  -0.553869  0  2.185303  0
O  O170  1  0.44614638  0.87239316  0.39827819  1  -1.150119  0  -0.316623  -0.554389  0  2.187674  0
O  O171  1  0.95215818  0.39833846  0.52616670  1  -1.154573  0  -0.316402  -0.552848  0  2.185069  0
O  O172  1  0.42587129  0.47396439  0.87239506  1  -1.153229  0  -0.316629  -0.553866  0  2.185307  0
O  O173  1  0.55385771  0.12760539  0.60172295  1  -1.150114  0  -0.316627  -0.554401  0  2.187653  0
O  O174  1  0.36564937  0.39396691  0.63693564  1  -1.166626  0  -0.328059  -0.577658  0  2.407155  0
O  O175  1  0.72868283  0.36306062  0.75725914  1  -1.163591  0  -0.327472  -0.576706  0  2.409851  0
O  O176  1  0.97138058  0.24292858  0.60593702  1  -1.151497  0  -0.329142  -0.579127  0  2.411418  0
O  O177  1  0.63434839  0.60603387  0.36306479  1  -1.166569  0  -0.328087  -0.57767  0  2.407265  0
O  O178  1  0.27132014  0.63693942  0.24274119  1  -1.163691  0  -0.327494  -0.576718  0  2.409794  0
O  O179  1  0.02861905  0.75707220  0.39406057  1  -1.151436  0  -0.329132  -0.579119  0  2.411401  0
O  O180  1  0.53053958  0.36325912  0.59065301  1  -1.174329  0  -0.30445  -0.53849  0  2.254212  0
O  O181  1  0.93988638  0.40955454  0.77285625  1  -1.168868  0  -0.303659  -0.537873  0  2.254415  0
O  O182  1  0.16699181  0.22731527  0.63688460  1  -1.168579  0  -0.304538  -0.539025  0  2.253574  0
O  O183  1  0.46945651  0.63674017  0.40934589  1  -1.174274  0  -0.304463  -0.538549  0  2.254255  0
O  O184  1  0.06011380  0.59044550  0.22714301  1  -1.168827  0  -0.303651  -0.537919  0  2.254398  0
O  O185  1  0.83300893  0.77268775  0.36311788  1  -1.168558  0  -0.304512  -0.538997  0  2.253562  0
O  O186  1  0.82097684  0.52454813  0.22684147  1  -1.260185  0  -0.586307  -0.761759  0  2.159988  0
O  O187  1  0.59409124  0.77325131  0.29782265  1  -1.246912  0  -0.58587  -0.762076  0  2.15949  0
O  O188  1  0.29651380  0.70236626  0.47554302  1  -1.252762  0  -0.585541  -0.761405  0  2.160271  0
O  O189  1  0.17902298  0.47545116  0.77315741  1  -1.260175  0  -0.586316  -0.761736  0  2.160074  0
O  O190  1  0.40590746  0.22674948  0.70217730  1  -1.246863  0  -0.585895  -0.762132  0  2.159445  0
O  O191  1  0.70348564  0.29763229  0.52445612  1  -1.252772  0  -0.585532  -0.761387  0  2.160263  0
