# generated using pymatgen
data_CaH8C4O7
_symmetry_space_group_name_H-M   'P 1'
_cell_length_a   6.60034529
_cell_length_b   6.91682246
_cell_length_c   17.58094774
_cell_angle_alpha   89.99999848
_cell_angle_beta   89.99959943
_cell_angle_gamma   90.00014750
_symmetry_Int_Tables_number   1
_chemical_formula_structural   CaH8C4O7
_chemical_formula_sum   'Ca4 H32 C16 O28'
_cell_volume   802.63033034
_cell_formula_units_Z   4
loop_
 _symmetry_equiv_pos_site_id
 _symmetry_equiv_pos_as_xyz
  1  'x, y, z'
loop_
 _atom_site_type_symbol
 _atom_site_label
 _atom_site_symmetry_multiplicity
 _atom_site_fract_x
 _atom_site_fract_y
 _atom_site_fract_z
 _atom_site_occupancy
 _atom_site_hle17_bader_spin_density
 _atom_site_hle17_ddec_charge
 _atom_site_hle17_ddec_spin_density
 _atom_site_hle17_ddec_sum_bond_order
 _atom_site_hle17_magmom
 _atom_site_hse06_10hf_bader_spin_density
 _atom_site_hse06_10hf_ddec_charge
 _atom_site_hse06_10hf_ddec_spin_density
 _atom_site_hse06_10hf_ddec_sum_bond_order
 _atom_site_hse06_10hf_magmom
 _atom_site_hse06_bader_spin_density
 _atom_site_hse06_ddec_charge
 _atom_site_hse06_ddec_spin_density
 _atom_site_hse06_ddec_sum_bond_order
 _atom_site_hse06_magmom
 _atom_site_pbe_bader_spin_density
 _atom_site_pbe_cm5_charge
 _atom_site_pbe_ddec_charge
 _atom_site_pbe_ddec_spin_density
 _atom_site_pbe_ddec_sum_bond_order
 _atom_site_pbe_magmom
Ca  Ca0  1  0.43810952  0.74728008  0.20387069  1  0  1.565617  0  1.090654  0  0  1.437192  0  1.434895  0  0  1.481355  0  1.387754  0  0  0.884109  1.404202  0  1.468044  0
Ca  Ca1  1  0.56189229  0.24728037  0.79612927  1  0  1.565573  0  1.090693  0  0  1.437196  0  1.434857  0  0  1.481355  0  1.387721  0  0  0.884094  1.404207  0  1.468006  0
Ca  Ca2  1  0.06189204  0.24727977  0.70387039  1  0  1.565584  0  1.090714  0  0  1.437213  0  1.434874  0  0  1.48136  0  1.387761  0  0  0.884101  1.404223  0  1.468025  0
Ca  Ca3  1  0.93810675  0.74728068  0.29612956  1  0  1.565602  0  1.090731  0  0  1.437193  0  1.434937  0  0  1.481359  0  1.387794  0  0  0.884112  1.404205  0  1.468086  0
H  H4  1  0.25710122  0.66911100  0.47294288  1  0  0.122532  0  0.937604  0  0  0.1319  0  0.997066  0  0  0.136417  0  0.993925  0  0  0.117039  0.128663  0  0.999492  0
H  H5  1  0.74289735  0.16910454  0.52705651  1  0  0.122551  0  0.937636  0  0  0.13191  0  0.997086  0  0  0.136428  0  0.993944  0  0  0.117041  0.128672  0  0.999512  0
H  H6  1  0.24292086  0.16909957  0.97294040  1  0  0.122568  0  0.937468  0  0  0.131835  0  0.99702  0  0  0.136352  0  0.993876  0  0  0.116994  0.128593  0  0.999449  0
H  H7  1  0.75708680  0.66910296  0.02705898  1  0  0.12253  0  0.937492  0  0  0.131851  0  0.997  0  0  0.136369  0  0.993858  0  0  0.117037  0.128613  0  0.999425  0
H  H8  1  0.72540400  0.68233007  0.47421182  1  0  0.128066  0  0.945345  0  0  0.135855  0  1.006632  0  0  0.140455  0  1.003247  0  0  0.119078  0.132576  0  1.009193  0
H  H9  1  0.27458855  0.18233403  0.52578813  1  0  0.128032  0  0.945391  0  0  0.135886  0  1.00662  0  0  0.140488  0  1.003229  0  0  0.119099  0.132603  0  1.009179  0
H  H10  1  0.77460517  0.18233606  0.97421268  1  0  0.12806  0  0.94538  0  0  0.135811  0  1.006723  0  0  0.140408  0  1.003342  0  0  0.119063  0.132537  0  1.009287  0
H  H11  1  0.22540707  0.68233238  0.02578785  1  0  0.12803  0  0.945304  0  0  0.13581  0  1.006617  0  0  0.140412  0  1.003231  0  0  0.119056  0.132532  0  1.009179  0
H  H12  1  0.55996834  0.35338693  0.14221231  1  0  0.433337  0  0.857713  0  0  0.402287  0  0.920739  0  0  0.411976  0  0.906381  0  0  0.306741  0.395311  0  0.931088  0
H  H13  1  0.44003073  0.85338512  0.85778879  1  0  0.433352  0  0.857687  0  0  0.402304  0  0.92071  0  0  0.411992  0  0.906353  0  0  0.306755  0.395329  0  0.931057  0
H  H14  1  0.94003386  0.85338575  0.64221159  1  0  0.433321  0  0.857735  0  0  0.402269  0  0.920764  0  0  0.411959  0  0.906405  0  0  0.306737  0.395293  0  0.931112  0
H  H15  1  0.05996521  0.35338631  0.35778894  1  0  0.433369  0  0.857665  0  0  0.40232  0  0.920689  0  0  0.41201  0  0.90633  0  0  0.306757  0.395344  0  0.931037  0
H  H16  1  0.56714377  0.03119854  0.09025605  1  0  0.414766  0  0.890542  0  0  0.383372  0  0.955273  0  0  0.394092  0  0.939647  0  0  0.294705  0.375738  0  0.966385  0
H  H17  1  0.43286201  0.53119237  0.90974561  1  0  0.414819  0  0.890477  0  0  0.383431  0  0.955198  0  0  0.394151  0  0.939573  0  0  0.294767  0.375797  0  0.966311  0
H  H18  1  0.93286307  0.53119011  0.59025535  1  0  0.414787  0  0.890541  0  0  0.383385  0  0.955284  0  0  0.394109  0  0.939653  0  0  0.29473  0.37575  0  0.966398  0
H  H19  1  0.06713361  0.03119357  0.40974574  1  0  0.414771  0  0.890564  0  0  0.383363  0  0.955308  0  0  0.394085  0  0.939681  0  0  0.294734  0.375728  0  0.966421  0
H  H20  1  0.73666872  0.08981380  0.20952016  1  0  0.42857  0  0.872466  0  0  0.395794  0  0.938521  0  0  0.407951  0  0.920516  0  0  0.303105  0.387135  0  0.951339  0
H  H21  1  0.26333116  0.58981012  0.79048093  1  0  0.428583  0  0.872449  0  0  0.395799  0  0.93852  0  0  0.407956  0  0.920516  0  0  0.303119  0.38714  0  0.951335  0
H  H22  1  0.76333000  0.58980785  0.70951991  1  0  0.428594  0  0.872435  0  0  0.395812  0  0.938499  0  0  0.40797  0  0.920493  0  0  0.30313  0.387153  0  0.951312  0
H  H23  1  0.23666836  0.08980885  0.29048119  1  0  0.428552  0  0.872485  0  0  0.395766  0  0.938558  0  0  0.407924  0  0.920552  0  0  0.303107  0.387106  0  0.951373  0
H  H24  1  0.31941578  0.35162138  0.14103464  1  0  0.433617  0  0.859694  0  0  0.402303  0  0.92304  0  0  0.41212  0  0.908567  0  0  0.305745  0.395257  0  0.933446  0
H  H25  1  0.68058329  0.85162160  0.85896645  1  0  0.433621  0  0.859697  0  0  0.402299  0  0.923056  0  0  0.412116  0  0.908584  0  0  0.305729  0.395249  0  0.93347  0
H  H26  1  0.18058421  0.85161956  0.64103403  1  0  0.433641  0  0.859663  0  0  0.402316  0  0.923028  0  0  0.412133  0  0.908555  0  0  0.305738  0.395266  0  0.93344  0
H  H27  1  0.81941335  0.35162053  0.35896706  1  0  0.433648  0  0.859655  0  0  0.402326  0  0.923015  0  0  0.412144  0  0.908541  0  0  0.305719  0.395276  0  0.933427  0
H  H28  1  0.32802448  0.02707786  0.08817855  1  0  0.413807  0  0.89359  0  0  0.382625  0  0.958836  0  0  0.393112  0  0.943557  0  0  0.295676  0.375151  0  0.969718  0
H  H29  1  0.67197826  0.52707805  0.91182255  1  0  0.413767  0  0.893633  0  0  0.382583  0  0.958883  0  0  0.393069  0  0.943607  0  0  0.295663  0.375109  0  0.969765  0
H  H30  1  0.17198017  0.52707746  0.58817739  1  0  0.413786  0  0.893606  0  0  0.382593  0  0.95887  0  0  0.39308  0  0.943593  0  0  0.295671  0.375118  0  0.969754  0
H  H31  1  0.82801651  0.02707845  0.41182370  1  0  0.413754  0  0.893634  0  0  0.382566  0  0.958893  0  0  0.393053  0  0.943616  0  0  0.295678  0.375091  0  0.969776  0
H  H32  1  0.64748319  0.08783880  0.29515730  1  0  0.427225  0  0.874889  0  0  0.393679  0  0.942374  0  0  0.405934  0  0.924269  0  0  0.302593  0.384962  0  0.955239  0
H  H33  1  0.35251517  0.58783823  0.70484436  1  0  0.427282  0  0.874808  0  0  0.393745  0  0.942277  0  0  0.405999  0  0.924174  0  0  0.30263  0.385028  0  0.955143  0
H  H34  1  0.85251392  0.58783595  0.79515624  1  0  0.427285  0  0.874804  0  0  0.393742  0  0.942285  0  0  0.405996  0  0.924181  0  0  0.302634  0.385024  0  0.955151  0
H  H35  1  0.14748595  0.08783674  0.20484485  1  0  0.427307  0  0.874778  0  0  0.393764  0  0.942254  0  0  0.406019  0  0.924149  0  0  0.302652  0.385049  0  0.955118  0
C  C36  1  0.43350359  0.67017674  0.36694097  1  0  0.723476  0  3.89359  0  0  0.677645  0  4.180302  0  0  0.713564  0  4.170558  0  0  0.227742  0.653135  0  4.186095  0
C  C37  1  0.56649347  0.17017273  0.63305500  1  0  0.723475  0  3.89347  0  0  0.677761  0  4.180001  0  0  0.71368  0  4.170255  0  0  0.227827  0.653249  0  4.185797  0
C  C38  1  0.06650684  0.17017066  0.86694294  1  0  0.72352  0  3.89355  0  0  0.677721  0  4.180195  0  0  0.713639  0  4.170448  0  0  0.227764  0.653212  0  4.185986  0
C  C39  1  0.93349325  0.67017013  0.13305588  1  0  0.723277  0  3.893488  0  0  0.677561  0  4.180044  0  0  0.713478  0  4.170303  0  0  0.227721  0.653051  0  4.185836  0
C  C40  1  0.41183121  0.67178727  0.45108094  1  0  -0.156625  0  3.633738  0  0  -0.178518  0  3.890425  0  0  -0.184926  0  3.905013  0  0  -0.073476  -0.174237  0  3.880736  0
C  C41  1  0.58816737  0.17179344  0.54891617  1  0  -0.15664  0  3.633621  0  0  -0.178508  0  3.890295  0  0  -0.184917  0  3.904885  0  0  -0.073435  -0.174228  0  3.880606  0
C  C42  1  0.08818522  0.17178992  0.95108342  1  0  -0.156611  0  3.633526  0  0  -0.178372  0  3.890122  0  0  -0.184778  0  3.904707  0  0  -0.073368  -0.174088  0  3.880436  0
C  C43  1  0.91183154  0.67178068  0.04891198  1  0  -0.15654  0  3.633716  0  0  -0.178394  0  3.890355  0  0  -0.1848  0  3.904947  0  0  -0.07345  -0.174114  0  3.880661  0
C  C44  1  0.57232088  0.67791745  0.49770905  1  0  -0.172656  0  3.657736  0  0  -0.193021  0  3.92005  0  0  -0.198847  0  3.936719  0  0  -0.076994  -0.189129  0  3.908922  0
C  C45  1  0.42766257  0.17791890  0.50228692  1  0  -0.172589  0  3.65744  0  0  -0.193082  0  3.919804  0  0  -0.198907  0  3.936473  0  0  -0.07705  -0.189181  0  3.90867  0
C  C46  1  0.92768785  0.17791225  0.99771064  1  0  -0.172749  0  3.657639  0  0  -0.193115  0  3.919941  0  0  -0.198939  0  3.936606  0  0  -0.077069  -0.18923  0  3.908817  0
C  C47  1  0.07231378  0.67791542  0.00229045  1  0  -0.172586  0  3.657825  0  0  -0.192986  0  3.920162  0  0  -0.198813  0  3.936836  0  0  -0.076982  -0.189095  0  3.909031  0
C  C48  1  0.55667394  0.67770056  0.58220395  1  0  0.709543  0  3.86592  0  0  0.652645  0  4.169894  0  0  0.685741  0  4.163089  0  0  0.223574  0.630212  0  4.173729  0
C  C49  1  0.44332466  0.17770350  0.41779373  1  0  0.709544  0  3.865887  0  0  0.652681  0  4.169853  0  0  0.685777  0  4.163047  0  0  0.223606  0.630246  0  4.173689  0
C  C50  1  0.94333345  0.17770702  0.08220707  1  0  0.709706  0  3.86605  0  0  0.652833  0  4.169984  0  0  0.685926  0  4.163178  0  0  0.223684  0.630401  0  4.173819  0
C  C51  1  0.05666969  0.67770283  0.91779288  1  0  0.70964  0  3.866012  0  0  0.652805  0  4.169909  0  0  0.685899  0  4.163105  0  0  0.223731  0.630372  0  4.173743  0
O  O52  1  0.27215179  0.66627157  0.32701159  1  0  -0.741903  0  2.015633  0  0  -0.673409  0  2.260274  0  0  -0.703984  0  2.250287  0  0  -0.39413  -0.6515  0  2.266292  0
O  O53  1  0.72784374  0.16627084  0.67298893  1  0  -0.741859  0  2.015325  0  0  -0.673501  0  2.260016  0  0  -0.704075  0  2.250029  0  0  -0.394195  -0.651591  0  2.266032  0
O  O54  1  0.22784271  0.16626878  0.82701086  1  0  -0.741801  0  2.015747  0  0  -0.6734  0  2.260446  0  0  -0.703971  0  2.250458  0  0  -0.394107  -0.651492  0  2.266464  0
O  O55  1  0.77215889  0.66627219  0.17298966  1  0  -0.74173  0  2.015752  0  0  -0.673338  0  2.260415  0  0  -0.703913  0  2.25043  0  0  -0.394099  -0.65143  0  2.266431  0
O  O56  1  0.60711299  0.67488865  0.33599645  1  0  -0.722414  0  2.00165  0  0  -0.656238  0  2.243538  0  0  -0.686019  0  2.234251  0  0  -0.374938  -0.635067  0  2.249245  0
O  O57  1  0.39289015  0.17488711  0.66400351  1  0  -0.722445  0  2.001687  0  0  -0.656282  0  2.243487  0  0  -0.686059  0  2.234199  0  0  -0.374968  -0.63511  0  2.249196  0
O  O58  1  0.89289117  0.17489060  0.83599870  1  0  -0.722511  0  2.001427  0  0  -0.656335  0  2.24328  0  0  -0.686113  0  2.23399  0  0  -0.374955  -0.635163  0  2.248989  0
O  O59  1  0.10711196  0.67489094  0.16400126  1  0  -0.722497  0  2.001411  0  0  -0.656351  0  2.243253  0  0  -0.686133  0  2.233965  0  0  -0.374997  -0.635179  0  2.248961  0
O  O60  1  0.72411938  0.67672633  0.61889003  1  0  -0.656532  0  1.997564  0  0  -0.582141  0  2.210568  0  0  -0.608278  0  2.198521  0  0  -0.294951  -0.563806  0  2.21852  0
O  O61  1  0.27587619  0.17673031  0.38111106  1  0  -0.656555  0  1.99759  0  0  -0.58216  0  2.210582  0  0  -0.608296  0  2.198535  0  0  -0.294971  -0.563823  0  2.218532  0
O  O62  1  0.77589187  0.17673527  0.11888962  1  0  -0.65655  0  1.997808  0  0  -0.582184  0  2.210818  0  0  -0.608314  0  2.198763  0  0  -0.294982  -0.563848  0  2.218769  0
O  O63  1  0.22410975  0.67672570  0.88110920  1  0  -0.656547  0  1.997909  0  0  -0.582192  0  2.210909  0  0  -0.608323  0  2.198858  0  0  -0.294991  -0.563858  0  2.218861  0
O  O64  1  0.38289030  0.67541896  0.61400166  1  0  -0.664574  0  2.027369  0  0  -0.58925  0  2.241002  0  0  -0.616049  0  2.230437  0  0  -0.297369  -0.570509  0  2.247996  0
O  O65  1  0.61710677  0.17542232  0.38599659  1  0  -0.664516  0  2.027406  0  0  -0.589203  0  2.241037  0  0  -0.616003  0  2.230472  0  0  -0.297362  -0.570465  0  2.248034  0
O  O66  1  0.11711274  0.17542028  0.11400337  1  0  -0.664665  0  2.027461  0  0  -0.589356  0  2.24109  0  0  -0.616155  0  2.230524  0  0  -0.29743  -0.57062  0  2.248087  0
O  O67  1  0.88288585  0.67542244  0.88599659  1  0  -0.664626  0  2.027361  0  0  -0.589342  0  2.240994  0  0  -0.616141  0  2.230429  0  0  -0.297454  -0.570602  0  2.247989  0
O  O68  1  0.43862158  0.42131971  0.16006474  1  0  -0.875154  0  1.798472  0  0  -0.821841  0  1.97341  0  0  -0.840343  0  1.941359  0  0  -0.622149  -0.808503  0  1.996042  0
O  O69  1  0.56137919  0.92131965  0.83993749  1  0  -0.875162  0  1.798417  0  0  -0.821853  0  1.973366  0  0  -0.840353  0  1.941316  0  0  -0.622141  -0.808513  0  1.995999  0
O  O70  1  0.06137672  0.92131760  0.66006388  1  0  -0.87515  0  1.798433  0  0  -0.821852  0  1.97341  0  0  -0.840351  0  1.941361  0  0  -0.622134  -0.808512  0  1.996044  0
O  O71  1  0.93862253  0.42132031  0.33993778  1  0  -0.875191  0  1.798365  0  0  -0.821904  0  1.973354  0  0  -0.840406  0  1.9413  0  0  -0.622129  -0.808564  0  1.995987  0
O  O72  1  0.44909513  0.94244197  0.08959868  1  0  -0.875313  0  1.799689  0  0  -0.824817  0  1.976615  0  0  -0.845047  0  1.944219  0  0  -0.626324  -0.810243  0  1.999301  0
O  O73  1  0.55091025  0.44243933  0.91040299  1  0  -0.875325  0  1.799691  0  0  -0.824842  0  1.976614  0  0  -0.845068  0  1.944218  0  0  -0.626366  -0.81027  0  1.999301  0
O  O74  1  0.05090910  0.44243874  0.58959784  1  0  -0.875313  0  1.799684  0  0  -0.824832  0  1.97665  0  0  -0.845061  0  1.944253  0  0  -0.626349  -0.810257  0  1.999338  0
O  O75  1  0.94908870  0.94244111  0.41040325  1  0  -0.875274  0  1.799708  0  0  -0.82478  0  1.976694  0  0  -0.84501  0  1.944299  0  0  -0.626353  -0.810206  0  1.99938  0
O  O76  1  0.68888889  0.00471831  0.25152934  1  0  -0.935413  0  1.890046  0  0  -0.876024  0  2.086169  0  0  -0.899192  0  2.051942  0  0  -0.61978  -0.859307  0  2.110047  0
O  O77  1  0.31111530  0.50471620  0.74847119  1  0  -0.935481  0  1.889967  0  0  -0.876102  0  2.086088  0  0  -0.89927  0  2.051861  0  0  -0.619831  -0.859384  0  2.109973  0
O  O78  1  0.81111184  0.50471392  0.75152896  1  0  -0.935495  0  1.889973  0  0  -0.876109  0  2.086099  0  0  -0.899276  0  2.05187  0  0  -0.619855  -0.85939  0  2.109984  0
O  O79  1  0.18888780  0.00471481  0.24847214  1  0  -0.935499  0  1.890017  0  0  -0.876113  0  2.086167  0  0  -0.899282  0  2.051935  0  0  -0.619856  -0.859394  0  2.110051  0
