# generated using pymatgen
data_CuH16C8N2O5
_symmetry_space_group_name_H-M   'P 1'
_cell_length_a   6.33869701
_cell_length_b   6.80465176
_cell_length_c   11.88934946
_cell_angle_alpha   90.00014976
_cell_angle_beta   89.99982944
_cell_angle_gamma   89.99990637
_symmetry_Int_Tables_number   1
_chemical_formula_structural   CuH16C8N2O5
_chemical_formula_sum   'Cu2 H32 C16 N4 O10'
_cell_volume   512.81886024
_cell_formula_units_Z   2
loop_
 _symmetry_equiv_pos_site_id
 _symmetry_equiv_pos_as_xyz
  1  'x, y, z'
loop_
 _atom_site_type_symbol
 _atom_site_label
 _atom_site_symmetry_multiplicity
 _atom_site_fract_x
 _atom_site_fract_y
 _atom_site_fract_z
 _atom_site_occupancy
 _atom_site_hle17_bader_spin_density
 _atom_site_hle17_ddec_charge
 _atom_site_hle17_ddec_spin_density
 _atom_site_hle17_ddec_sum_bond_order
 _atom_site_hle17_magmom
 _atom_site_hse06_10hf_bader_spin_density
 _atom_site_hse06_10hf_ddec_charge
 _atom_site_hse06_10hf_ddec_spin_density
 _atom_site_hse06_10hf_ddec_sum_bond_order
 _atom_site_hse06_10hf_magmom
 _atom_site_hse06_bader_spin_density
 _atom_site_hse06_ddec_charge
 _atom_site_hse06_ddec_spin_density
 _atom_site_hse06_ddec_sum_bond_order
 _atom_site_hse06_magmom
 _atom_site_pbe_bader_spin_density
 _atom_site_pbe_cm5_charge
 _atom_site_pbe_ddec_charge
 _atom_site_pbe_ddec_spin_density
 _atom_site_pbe_ddec_sum_bond_order
 _atom_site_pbe_magmom
Cu  Cu0  1  0.33798969  0.24999988  0.25000014  1  0  0.791713  0  1.659695  0  0  0.723701  0  2.041963  0  0  0.752716  0  1.993888  0  0  0.676766  0.704046  0  2.075355  0
Cu  Cu1  1  0.66202133  0.74999992  0.74999985  1  0  0.791755  0  1.659652  0  0  0.723632  0  2.041926  0  0  0.752693  0  1.993876  0  0  0.676759  0.703973  0  2.075322  0
H  H2  1  0.78656434  0.25000116  0.31718765  1  0  0.415135  0  0.895646  0  0  0.385452  0  0.960438  0  0  0.396274  0  0.9442  0  0  0.28072  0.377739  0  0.972042  0
H  H3  1  0.21340213  0.74999895  0.81718976  1  0  0.415407  0  0.895312  0  0  0.385552  0  0.960348  0  0  0.396375  0  0.944108  0  0  0.280725  0.37784  0  0.971947  0
H  H4  1  0.78656629  0.24999938  0.18281528  1  0  0.41519  0  0.895584  0  0  0.385509  0  0.960373  0  0  0.396332  0  0.944134  0  0  0.280743  0.377798  0  0.971973  0
H  H5  1  0.21340251  0.75000158  0.68280982  1  0  0.415396  0  0.895325  0  0  0.385533  0  0.960367  0  0  0.396355  0  0.944129  0  0  0.280731  0.377821  0  0.971968  0
H  H6  1  0.13770845  0.25000014  0.93499068  1  0  -0.019444  0  0.966799  0  0  -0.003369  0  1.037269  0  0  -0.005286  0  1.034725  0  0  0.099303  -0.002166  0  1.039163  0
H  H7  1  0.86225421  0.75000051  0.43498498  1  0  -0.019236  0  0.966582  0  0  -0.003188  0  1.037055  0  0  -0.005102  0  1.03452  0  0  0.099297  -0.001989  0  1.038949  0
H  H8  1  0.13770948  0.25000223  0.56500996  1  0  -0.019391  0  0.966747  0  0  -0.00333  0  1.037238  0  0  -0.005246  0  1.03469  0  0  0.099328  -0.002117  0  1.039136  0
H  H9  1  0.86225051  0.74999672  0.06501604  1  0  -0.019185  0  0.966523  0  0  -0.003138  0  1.037006  0  0  -0.005049  0  1.034464  0  0  0.0993  -0.001941  0  1.038897  0
H  H10  1  0.04386250  0.57686344  0.32474314  1  0  0.079589  0  0.952137  0  0  0.089358  0  1.022836  0  0  0.09069  0  1.021964  0  0  0.107345  0.088276  0  1.023773  0
H  H11  1  0.95615629  0.07686476  0.82474333  1  0  0.079629  0  0.952096  0  0  0.089366  0  1.022879  0  0  0.090692  0  1.022  0  0  0.107336  0.088281  0  1.023807  0
H  H12  1  0.04386220  0.92313539  0.32474256  1  0  0.079589  0  0.952123  0  0  0.089365  0  1.022801  0  0  0.090698  0  1.021931  0  0  0.10735  0.088284  0  1.023745  0
H  H13  1  0.04386292  0.57686310  0.17525725  1  0  0.079589  0  0.952136  0  0  0.089356  0  1.022837  0  0  0.090688  0  1.021965  0  0  0.107342  0.088274  0  1.023779  0
H  H14  1  0.95615483  0.42313636  0.67525769  1  0  0.079584  0  0.952217  0  0  0.089371  0  1.022944  0  0  0.090696  0  1.022065  0  0  0.107323  0.088283  0  1.02388  0
H  H15  1  0.04386261  0.92313505  0.17525667  1  0  0.079586  0  0.952123  0  0  0.089357  0  1.022814  0  0  0.090691  0  1.021944  0  0  0.107349  0.08828  0  1.023754  0
H  H16  1  0.95615671  0.07686441  0.67525660  1  0  0.079636  0  0.952125  0  0  0.089373  0  1.022905  0  0  0.090698  0  1.022026  0  0  0.10736  0.088289  0  1.023836  0
H  H17  1  0.95615599  0.42313670  0.82474359  1  0  0.079637  0  0.952157  0  0  0.089377  0  1.022934  0  0  0.090703  0  1.022054  0  0  0.107357  0.088297  0  1.023854  0
H  H18  1  0.37075056  0.58165346  0.07438604  1  0  0.098199  0  0.944023  0  0  0.108308  0  1.007589  0  0  0.110028  0  1.007325  0  0  0.111319  0.106995  0  1.00793  0
H  H19  1  0.62926488  0.08165674  0.57438675  1  0  0.098189  0  0.944042  0  0  0.10828  0  1.007641  0  0  0.109998  0  1.007381  0  0  0.111322  0.106974  0  1.007973  0
H  H20  1  0.37074869  0.91834225  0.07438545  1  0  0.098263  0  0.944003  0  0  0.108322  0  1.007622  0  0  0.11004  0  1.007362  0  0  0.111332  0.107011  0  1.007963  0
H  H21  1  0.37075116  0.58165573  0.42561384  1  0  0.098273  0  0.943983  0  0  0.108327  0  1.007604  0  0  0.110046  0  1.007344  0  0  0.111329  0.107014  0  1.007945  0
H  H22  1  0.62926361  0.41834340  0.92561395  1  0  0.098173  0  0.944056  0  0  0.108263  0  1.00766  0  0  0.109982  0  1.007398  0  0  0.111306  0.106954  0  1.007992  0
H  H23  1  0.37075245  0.91834600  0.42561325  1  0  0.098285  0  0.943973  0  0  0.108343  0  1.007586  0  0  0.110062  0  1.007325  0  0  0.111335  0.107029  0  1.007928  0
H  H24  1  0.62926548  0.08165902  0.92561370  1  0  0.098186  0  0.944068  0  0  0.108267  0  1.007669  0  0  0.109986  0  1.007409  0  0  0.111309  0.106956  0  1.008005  0
H  H25  1  0.62926617  0.41834260  0.57438616  1  0  0.098187  0  0.944016  0  0  0.108283  0  1.00762  0  0  0.110002  0  1.007358  0  0  0.111319  0.106977  0  1.007954  0
H  H26  1  0.61203338  0.57535922  0.15024281  1  0  0.082635  0  0.938387  0  0  0.095922  0  1.001697  0  0  0.097029  0  1.00112  0  0  0.108132  0.094963  0  1.002366  0
H  H27  1  0.38798323  0.07535994  0.65024390  1  0  0.08266  0  0.93827  0  0  0.095927  0  1.001618  0  0  0.09704  0  1.001033  0  0  0.10812  0.094969  0  1.002289  0
H  H28  1  0.61203308  0.92463940  0.15024139  1  0  0.082631  0  0.938407  0  0  0.0959  0  1.001732  0  0  0.097004  0  1.001156  0  0  0.108144  0.094943  0  1.002404  0
H  H29  1  0.61203283  0.57535968  0.34975667  1  0  0.082632  0  0.938419  0  0  0.095921  0  1.001716  0  0  0.097027  0  1.001141  0  0  0.108131  0.09496  0  1.002391  0
H  H30  1  0.38798237  0.42464058  0.84975718  1  0  0.082684  0  0.938303  0  0  0.095938  0  1.001667  0  0  0.097048  0  1.001084  0  0  0.108129  0.094979  0  1.002335  0
H  H31  1  0.61203410  0.92463986  0.34975441  1  0  0.082622  0  0.938412  0  0  0.095913  0  1.001708  0  0  0.09702  0  1.001133  0  0  0.108137  0.094954  0  1.002382  0
H  H32  1  0.38798267  0.07536040  0.84975776  1  0  0.082694  0  0.93826  0  0  0.095932  0  1.001635  0  0  0.097043  0  1.001049  0  0  0.108119  0.094973  0  1.002302  0
H  H33  1  0.38798134  0.42463865  0.65024500  1  0  0.082639  0  0.938282  0  0  0.095907  0  1.001638  0  0  0.097019  0  1.001057  0  0  0.108115  0.094952  0  1.002305  0
C  C34  1  0.11106039  0.25000102  0.02752978  1  0  0.570507  0  3.960425  0  0  0.49632  0  4.278649  0  0  0.53041  0  4.271326  0  0  0.138001  0.473231  0  4.282843  0
C  C35  1  0.88890296  0.75000070  0.52752493  1  0  0.570119  0  3.961103  0  0  0.495941  0  4.279286  0  0  0.530025  0  4.271981  0  0  0.13792  0.47285  0  4.283475  0
C  C36  1  0.11105915  0.25000351  0.47247170  1  0  0.570472  0  3.960392  0  0  0.4963  0  4.278593  0  0  0.53039  0  4.27127  0  0  0.137988  0.473192  0  4.282812  0
C  C37  1  0.88889857  0.74999732  0.97247442  1  0  0.570086  0  3.960718  0  0  0.495893  0  4.278917  0  0  0.529979  0  4.271609  0  0  0.137911  0.472809  0  4.283094  0
C  C38  1  0.12353203  0.63490880  0.24999975  1  0  -0.041148  0  3.556509  0  0  -0.095497  0  3.814093  0  0  -0.092134  0  3.82379  0  0  -0.069614  -0.09778  0  3.807924  0
C  C39  1  0.87648392  0.13490582  0.75000007  1  0  -0.041122  0  3.556118  0  0  -0.095517  0  3.81378  0  0  -0.092111  0  3.823431  0  0  -0.06958  -0.097805  0  3.80761  0
C  C40  1  0.12353341  0.86509104  0.24999993  1  0  -0.041155  0  3.556627  0  0  -0.095491  0  3.814178  0  0  -0.092135  0  3.823879  0  0  -0.069635  -0.097759  0  3.807958  0
C  C41  1  0.87648372  0.36509541  0.75000024  1  0  -0.041115  0  3.556287  0  0  -0.095546  0  3.813922  0  0  -0.09214  0  3.82357  0  0  -0.069575  -0.097838  0  3.80775  0
C  C42  1  0.45169912  0.63524044  0.14935479  1  0  -0.041734  0  3.557607  0  0  -0.094659  0  3.809319  0  0  -0.092397  0  3.821052  0  0  -0.072451  -0.096042  0  3.801345  0
C  C43  1  0.54831581  0.13524385  0.64935647  1  0  -0.041717  0  3.557723  0  0  -0.094682  0  3.809406  0  0  -0.092407  0  3.821152  0  0  -0.072482  -0.096073  0  3.801457  0
C  C44  1  0.45169892  0.86475696  0.14935496  1  0  -0.041757  0  3.557631  0  0  -0.094657  0  3.809362  0  0  -0.092391  0  3.82109  0  0  -0.072492  -0.096057  0  3.801405  0
C  C45  1  0.45170014  0.63524237  0.35064335  1  0  -0.041786  0  3.55773  0  0  -0.094667  0  3.809418  0  0  -0.092405  0  3.82115  0  0  -0.072452  -0.09606  0  3.801462  0
C  C46  1  0.54831505  0.36475936  0.85064520  1  0  -0.041673  0  3.557622  0  0  -0.094648  0  3.809326  0  0  -0.092369  0  3.821065  0  0  -0.072484  -0.096035  0  3.801363  0
C  C47  1  0.45169994  0.86475889  0.35064268  1  0  -0.041761  0  3.557697  0  0  -0.094665  0  3.809392  0  0  -0.092401  0  3.821121  0  0  -0.072468  -0.096056  0  3.801433  0
C  C48  1  0.54831683  0.13524137  0.85064419  1  0  -0.041787  0  3.557732  0  0  -0.094716  0  3.809415  0  0  -0.092437  0  3.821153  0  0  -0.072478  -0.096097  0  3.801447  0
C  C49  1  0.54831561  0.36475743  0.64935664  1  0  -0.041648  0  3.557656  0  0  -0.094631  0  3.80936  0  0  -0.092359  0  3.821108  0  0  -0.072472  -0.096024  0  3.801408  0
N  N50  1  0.34183721  0.55998929  0.24999952  1  0  -0.154021  0  3.26837  0  0  -0.079159  0  3.528643  0  0  -0.091528  0  3.545382  0  0  -0.340531  -0.070745  0  3.517243  0
N  N51  1  0.65818045  0.05998812  0.75000019  1  0  -0.154074  0  3.268452  0  0  -0.07898  0  3.528467  0  0  -0.091432  0  3.545294  0  0  -0.340464  -0.07057  0  3.517057  0
N  N52  1  0.34183530  0.94001021  0.24999897  1  0  -0.154046  0  3.268523  0  0  -0.07916  0  3.528752  0  0  -0.091525  0  3.545491  0  0  -0.340531  -0.07074  0  3.517352  0
N  N53  1  0.65818012  0.44001198  0.75000047  1  0  -0.154111  0  3.268388  0  0  -0.079013  0  3.528426  0  0  -0.091463  0  3.545249  0  0  -0.340468  -0.070598  0  3.517012  0
O  O54  1  0.69303426  0.24999961  0.25000154  1  0  -0.861671  0  1.877795  0  0  -0.814895  0  2.075804  0  0  -0.83309  0  2.039979  0  0  -0.60691  -0.801761  0  2.100954  0
O  O55  1  0.30692943  0.75000166  0.75000014  1  0  -0.862258  0  1.877111  0  0  -0.815183  0  2.075558  0  0  -0.833378  0  2.039733  0  0  -0.60695  -0.802041  0  2.100706  0
O  O56  1  0.28283055  0.24999954  0.08363952  1  0  -0.577635  0  2.14556  0  0  -0.51986  0  2.430191  0  0  -0.547221  0  2.417426  0  0  -0.328871  -0.500979  0  2.438397  0
O  O57  1  0.71715300  0.74999949  0.58363915  1  0  -0.577503  0  2.145715  0  0  -0.519718  0  2.430357  0  0  -0.547079  0  2.417603  0  0  -0.328918  -0.500828  0  2.438552  0
O  O58  1  0.28282804  0.25000031  0.41636084  1  0  -0.577713  0  2.145591  0  0  -0.519936  0  2.430218  0  0  -0.547298  0  2.41745  0  0  -0.328933  -0.50105  0  2.438432  0
O  O59  1  0.71714734  0.75000026  0.91636047  1  0  -0.577538  0  2.14569  0  0  -0.519713  0  2.430312  0  0  -0.547077  0  2.417559  0  0  -0.328878  -0.500827  0  2.438505  0
O  O60  1  0.92366736  0.25000047  0.06117521  1  0  -0.595871  0  2.000891  0  0  -0.536206  0  2.236089  0  0  -0.561079  0  2.226213  0  0  -0.322636  -0.518886  0  2.242505  0
O  O61  1  0.07631158  0.75000140  0.56116324  1  0  -0.595818  0  2.0016  0  0  -0.536047  0  2.23672  0  0  -0.560937  0  2.226882  0  0  -0.322476  -0.518714  0  2.243121  0
O  O62  1  0.92366631  0.25000721  0.43882750  1  0  -0.59581  0  2.000907  0  0  -0.536154  0  2.23611  0  0  -0.561022  0  2.226223  0  0  -0.322575  -0.518828  0  2.242536  0
O  O63  1  0.07631684  0.74999492  0.93883487  1  0  -0.595841  0  2.001381  0  0  -0.536086  0  2.236545  0  0  -0.560979  0  2.226707  0  0  -0.322526  -0.518761  0  2.242946  0
