# generated using pymatgen
data_Sm2H18(C3O8)3
_symmetry_space_group_name_H-M   'P 1'
_cell_length_a   8.86473332
_cell_length_b   8.86472902
_cell_length_c   8.86472410
_cell_angle_alpha   66.05647030
_cell_angle_beta   66.05650192
_cell_angle_gamma   66.05644706
_symmetry_Int_Tables_number   1
_chemical_formula_structural   Sm2H18(C3O8)3
_chemical_formula_sum   'Sm2 H18 C9 O24'
_cell_volume   557.11195103
_cell_formula_units_Z   1
loop_
 _symmetry_equiv_pos_site_id
 _symmetry_equiv_pos_as_xyz
  1  'x, y, z'
loop_
 _atom_site_type_symbol
 _atom_site_label
 _atom_site_symmetry_multiplicity
 _atom_site_fract_x
 _atom_site_fract_y
 _atom_site_fract_z
 _atom_site_occupancy
 _atom_site_hle17_bader_spin_density
 _atom_site_hle17_ddec_charge
 _atom_site_hle17_ddec_spin_density
 _atom_site_hle17_ddec_sum_bond_order
 _atom_site_hle17_magmom
 _atom_site_hse06_10hf_bader_spin_density
 _atom_site_hse06_10hf_ddec_charge
 _atom_site_hse06_10hf_ddec_spin_density
 _atom_site_hse06_10hf_ddec_sum_bond_order
 _atom_site_hse06_10hf_magmom
 _atom_site_hse06_bader_spin_density
 _atom_site_hse06_ddec_charge
 _atom_site_hse06_ddec_spin_density
 _atom_site_hse06_ddec_sum_bond_order
 _atom_site_hse06_magmom
 _atom_site_pbe_bader_spin_density
 _atom_site_pbe_cm5_charge
 _atom_site_pbe_ddec_charge
 _atom_site_pbe_ddec_spin_density
 _atom_site_pbe_ddec_sum_bond_order
 _atom_site_pbe_magmom
Sm  Sm0  1  0.26859921  0.26859986  0.26859810  1  0  2.328343  0  1.606962  0  0  2.229449  0  1.953003  0  0  2.266963  0  1.914131  0  0  1.504272  2.202413  0  1.980073  0
Sm  Sm1  1  0.73140035  0.73139970  0.73140071  1  0  2.328324  0  1.606969  0  0  2.229422  0  1.95301  0  0  2.266935  0  1.914141  0  0  1.504282  2.202386  0  1.980079  0
H  H2  1  0.27679130  0.21515028  0.64111602  1  0  0.44734  0  0.846926  0  0  0.415269  0  0.909617  0  0  0.426985  0  0.892502  0  0  0.300424  0.406983  0  0.921719  0
H  H3  1  0.64111669  0.27679137  0.21515032  1  0  0.447338  0  0.846924  0  0  0.41527  0  0.909607  0  0  0.426986  0  0.892492  0  0  0.300442  0.406984  0  0.921711  0
H  H4  1  0.21515085  0.64111588  0.27678988  1  0  0.447308  0  0.846971  0  0  0.415236  0  0.909663  0  0  0.426953  0  0.892545  0  0  0.30043  0.406948  0  0.921767  0
H  H5  1  0.35888313  0.78485061  0.72320945  1  0  0.447354  0  0.846904  0  0  0.41529  0  0.90958  0  0  0.427006  0  0.892464  0  0  0.300456  0.407003  0  0.921684  0
H  H6  1  0.78485009  0.72320814  0.35888477  1  0  0.447352  0  0.846905  0  0  0.415287  0  0.909583  0  0  0.427002  0  0.892469  0  0  0.300447  0.407002  0  0.921685  0
H  H7  1  0.72320994  0.35888369  0.78485089  1  0  0.447331  0  0.846938  0  0  0.415265  0  0.90962  0  0  0.426982  0  0.892504  0  0  0.300445  0.406979  0  0.921723  0
H  H8  1  0.45958531  0.12634107  0.52692953  1  0  0.441456  0  0.848995  0  0  0.413629  0  0.907426  0  0  0.423894  0  0.892123  0  0  0.310831  0.406319  0  0.918354  0
H  H9  1  0.52693026  0.45958334  0.12633949  1  0  0.441387  0  0.849099  0  0  0.413565  0  0.907516  0  0  0.42383  0  0.892216  0  0  0.310823  0.406255  0  0.918444  0
H  H10  1  0.12634097  0.52692855  0.45958362  1  0  0.441285  0  0.849223  0  0  0.413494  0  0.907581  0  0  0.423754  0  0.892291  0  0  0.31081  0.406185  0  0.918506  0
H  H11  1  0.47307271  0.87365849  0.54041561  1  0  0.441395  0  0.849092  0  0  0.413581  0  0.907498  0  0  0.423845  0  0.892198  0  0  0.31084  0.40627  0  0.918426  0
H  H12  1  0.87365915  0.54041359  0.47307272  1  0  0.441431  0  0.84903  0  0  0.413602  0  0.907463  0  0  0.423867  0  0.892161  0  0  0.310818  0.406292  0  0.91839  0
H  H13  1  0.54041720  0.47307105  0.87365710  1  0  0.441411  0  0.84906  0  0  0.413596  0  0.907465  0  0  0.423861  0  0.892164  0  0  0.310849  0.406287  0  0.918391  0
H  H14  1  0.31100397  0.17293918  0.95153685  1  0  0.419632  0  0.874519  0  0  0.387066  0  0.949992  0  0  0.39941  0  0.932174  0  0  0.309785  0.378368  0  0.962542  0
H  H15  1  0.95153692  0.31100466  0.17294110  1  0  0.419573  0  0.874579  0  0  0.387017  0  0.950052  0  0  0.399356  0  0.932241  0  0  0.309781  0.378319  0  0.962602  0
H  H16  1  0.17293962  0.95153637  0.31100585  1  0  0.419593  0  0.874511  0  0  0.387016  0  0.950048  0  0  0.399362  0  0.932228  0  0  0.309763  0.378318  0  0.962598  0
H  H17  1  0.04846370  0.82705917  0.68899634  1  0  0.41962  0  0.874534  0  0  0.387062  0  0.949994  0  0  0.399405  0  0.932178  0  0  0.309788  0.378365  0  0.962543  0
H  H18  1  0.82705968  0.68899738  0.04846380  1  0  0.419607  0  0.874541  0  0  0.387048  0  0.950012  0  0  0.399389  0  0.932199  0  0  0.30978  0.378351  0  0.962561  0
H  H19  1  0.68899813  0.04846320  0.82705852  1  0  0.4196  0  0.874563  0  0  0.387042  0  0.950025  0  0  0.399384  0  0.932211  0  0  0.309779  0.378344  0  0.962575  0
C  C20  1  0.50000099  0.96269551  0.03730457  1  0  0.328217  0  3.68255  0  0  0.304391  0  3.952274  0  0  0.311472  0  3.954042  0  0  0.15956  0.299114  0  3.95128  0
C  C21  1  0.03730483  0.50000048  0.96269534  1  0  0.327996  0  3.682817  0  0  0.304164  0  3.952546  0  0  0.311241  0  3.954313  0  0  0.159491  0.298887  0  3.951554  0
C  C22  1  0.96269519  0.03730399  0.50000133  1  0  0.328137  0  3.682624  0  0  0.304306  0  3.952352  0  0  0.311386  0  3.954119  0  0  0.159529  0.299029  0  3.951359  0
C  C23  1  0.58268247  0.91312519  0.18345238  1  0  0.620403  0  3.814843  0  0  0.566155  0  4.116727  0  0  0.598415  0  4.10945  0  0  0.235069  0.544261  0  4.121159  0
C  C24  1  0.18345512  0.58267957  0.91312624  1  0  0.620338  0  3.815016  0  0  0.566101  0  4.11689  0  0  0.598363  0  4.109611  0  0  0.235057  0.544207  0  4.12132  0
C  C25  1  0.91312725  0.18345297  0.58268071  1  0  0.620323  0  3.814841  0  0  0.566078  0  4.116731  0  0  0.598339  0  4.109454  0  0  0.235039  0.544184  0  4.121162  0
C  C26  1  0.81654508  0.08687173  0.41732245  1  0  0.620354  0  3.814847  0  0  0.566109  0  4.116731  0  0  0.598371  0  4.109453  0  0  0.23506  0.544215  0  4.121161  0
C  C27  1  0.08687242  0.41732395  0.81654325  1  0  0.620452  0  3.815045  0  0  0.566225  0  4.116907  0  0  0.598487  0  4.109629  0  0  0.235117  0.54433  0  4.121338  0
C  C28  1  0.41732659  0.81654397  0.08687228  1  0  0.620214  0  3.815015  0  0  0.565963  0  4.116903  0  0  0.59822  0  4.109636  0  0  0.234991  0.544069  0  4.121332  0
O  O29  1  0.37910225  0.12473398  0.03851728  1  0  -0.702749  0  2.239048  0  0  -0.661672  0  2.478905  0  0  -0.677608  0  2.460981  0  0  -0.437991  -0.6503  0  2.491173  0
O  O30  1  0.03851830  0.37910195  0.12473384  1  0  -0.702658  0  2.239103  0  0  -0.661594  0  2.478985  0  0  -0.677527  0  2.461067  0  0  -0.437989  -0.650222  0  2.491251  0
O  O31  1  0.12473379  0.03851762  0.37910202  1  0  -0.702693  0  2.239024  0  0  -0.661611  0  2.478912  0  0  -0.677551  0  2.46099  0  0  -0.437974  -0.650239  0  2.491177  0
O  O32  1  0.96148335  0.87526553  0.62089858  1  0  -0.702772  0  2.23906  0  0  -0.661702  0  2.478919  0  0  -0.677638  0  2.460996  0  0  -0.438007  -0.65033  0  2.491186  0
O  O33  1  0.87526581  0.62089891  0.96148308  1  0  -0.702716  0  2.239089  0  0  -0.661648  0  2.478963  0  0  -0.677581  0  2.461044  0  0  -0.437991  -0.650275  0  2.491229  0
O  O34  1  0.62089938  0.96148325  0.87526452  1  0  -0.702769  0  2.239049  0  0  -0.661697  0  2.478906  0  0  -0.677631  0  2.460983  0  0  -0.438006  -0.650325  0  2.491173  0
O  O35  1  0.33690164  0.18073562  0.53230613  1  0  -0.939075  0  1.892226  0  0  -0.898398  0  2.086199  0  0  -0.915966  0  2.051011  0  0  -0.665987  -0.886001  0  2.11076  0
O  O36  1  0.53230925  0.33690042  0.18073190  1  0  -0.939005  0  1.89231  0  0  -0.898327  0  2.086276  0  0  -0.915896  0  2.051088  0  0  -0.665996  -0.885929  0  2.110838  0
O  O37  1  0.18073149  0.53231045  0.33689718  1  0  -0.938886  0  1.892447  0  0  -0.898213  0  2.08641  0  0  -0.91578  0  2.051222  0  0  -0.665981  -0.885815  0  2.110972  0
O  O38  1  0.46769235  0.81926911  0.66309758  1  0  -0.939013  0  1.892312  0  0  -0.898334  0  2.086265  0  0  -0.915903  0  2.051076  0  0  -0.666019  -0.885935  0  2.110829  0
O  O39  1  0.81926494  0.66309908  0.46769295  1  0  -0.939041  0  1.892246  0  0  -0.898368  0  2.086219  0  0  -0.915936  0  2.051031  0  0  -0.665983  -0.88597  0  2.11078  0
O  O40  1  0.66309887  0.46769299  0.81926709  1  0  -0.939024  0  1.892328  0  0  -0.898338  0  2.086278  0  0  -0.915907  0  2.051089  0  0  -0.666026  -0.88594  0  2.11084  0
O  O41  1  0.49482967  0.98693198  0.30111587  1  0  -0.666152  0  2.061636  0  0  -0.617886  0  2.304203  0  0  -0.642072  0  2.294111  0  0  -0.354965  -0.601068  0  2.310725  0
O  O42  1  0.30111695  0.49482883  0.98692954  1  0  -0.666082  0  2.061759  0  0  -0.617805  0  2.304303  0  0  -0.641991  0  2.29421  0  0  -0.354955  -0.600989  0  2.310828  0
O  O43  1  0.98693364  0.30111605  0.49482916  1  0  -0.66613  0  2.061647  0  0  -0.617841  0  2.304199  0  0  -0.642028  0  2.294107  0  0  -0.354966  -0.601025  0  2.310723  0
O  O44  1  0.69888597  0.01306497  0.50516914  1  0  -0.666092  0  2.06172  0  0  -0.617807  0  2.30428  0  0  -0.641994  0  2.294189  0  0  -0.35496  -0.600991  0  2.310803  0
O  O45  1  0.01306569  0.50516824  0.69888657  1  0  -0.666077  0  2.061925  0  0  -0.617808  0  2.30446  0  0  -0.641991  0  2.294369  0  0  -0.354951  -0.600992  0  2.310984  0
O  O46  1  0.50516998  0.69888602  0.01306477  1  0  -0.666023  0  2.06181  0  0  -0.617746  0  2.304382  0  0  -0.641929  0  2.294294  0  0  -0.354919  -0.60093  0  2.310906  0
O  O47  1  0.72647243  0.79844988  0.17905248  1  0  -0.561027  0  2.009403  0  0  -0.499477  0  2.211665  0  0  -0.524413  0  2.200049  0  0  -0.278352  -0.482227  0  2.219314  0
O  O48  1  0.17905270  0.72647172  0.79844921  1  0  -0.560997  0  2.009363  0  0  -0.499467  0  2.211631  0  0  -0.524406  0  2.200014  0  0  -0.278346  -0.482216  0  2.219279  0
O  O49  1  0.79845049  0.17905255  0.72647271  1  0  -0.560975  0  2.009325  0  0  -0.499446  0  2.2116  0  0  -0.524385  0  2.199984  0  0  -0.278331  -0.482196  0  2.219248  0
O  O50  1  0.82094634  0.20155347  0.27352694  1  0  -0.561041  0  2.00931  0  0  -0.499491  0  2.211565  0  0  -0.52443  0  2.199949  0  0  -0.278343  -0.48224  0  2.219212  0
O  O51  1  0.20155037  0.27352404  0.82094729  1  0  -0.561093  0  2.009261  0  0  -0.499553  0  2.211515  0  0  -0.524494  0  2.199898  0  0  -0.278378  -0.482301  0  2.219163  0
O  O52  1  0.27352673  0.82094571  0.20155269  1  0  -0.561021  0  2.009265  0  0  -0.499466  0  2.211532  0  0  -0.524408  0  2.199919  0  0  -0.278345  -0.482213  0  2.21918  0
