# generated using pymatgen
data_HgH14C14(IN2)2
_symmetry_space_group_name_H-M   'P 1'
_cell_length_a   11.82680931
_cell_length_b   11.82681079
_cell_length_c   13.13340000
_cell_angle_alpha   90.00000000
_cell_angle_beta   90.00000000
_cell_angle_gamma   90.00000000
_symmetry_Int_Tables_number   1
_chemical_formula_structural   HgH14C14(IN2)2
_chemical_formula_sum   'Hg4 H56 C56 I8 N16'
_cell_volume   1837.01378320
_cell_formula_units_Z   4
loop_
 _symmetry_equiv_pos_site_id
 _symmetry_equiv_pos_as_xyz
  1  'x, y, z'
loop_
 _atom_site_type_symbol
 _atom_site_label
 _atom_site_symmetry_multiplicity
 _atom_site_fract_x
 _atom_site_fract_y
 _atom_site_fract_z
 _atom_site_occupancy
 _atom_site_hle17_bader_spin_density
 _atom_site_hle17_ddec_charge
 _atom_site_hle17_ddec_spin_density
 _atom_site_hle17_ddec_sum_bond_order
 _atom_site_hle17_magmom
 _atom_site_hse06_10hf_bader_spin_density
 _atom_site_hse06_10hf_ddec_charge
 _atom_site_hse06_10hf_ddec_spin_density
 _atom_site_hse06_10hf_ddec_sum_bond_order
 _atom_site_hse06_10hf_magmom
 _atom_site_hse06_bader_spin_density
 _atom_site_hse06_ddec_charge
 _atom_site_hse06_ddec_spin_density
 _atom_site_hse06_ddec_sum_bond_order
 _atom_site_hse06_magmom
 _atom_site_pbe_bader_charge
 _atom_site_pbe_bader_spin_density
 _atom_site_pbe_cm5_charge
 _atom_site_pbe_ddec_charge
 _atom_site_pbe_ddec_spin_density
 _atom_site_pbe_ddec_sum_bond_order
 _atom_site_pbe_magmom
Hg  Hg0  1  0.74999941  0.75000016  0.10383754  1  0  0.509427  0  2.265589  0  0  0.374302  0  2.761329  0  0  0.416615  0  2.735654  0  0.539593  0  0.386551  0.346153  0  2.77805  0
Hg  Hg1  1  0.24999896  0.24999977  0.60383754  1  0  0.509411  0  2.26559  0  0  0.374287  0  2.761338  0  0  0.416597  0  2.735666  0  0.539592  0  0.386542  0.346136  0  2.778062  0
Hg  Hg2  1  0.24999980  0.24999977  0.89616246  1  0  0.509395  0  2.265614  0  0  0.37427  0  2.761361  0  0  0.416583  0  2.735687  0  0.538193  0  0.386526  0.346121  0  2.778085  0
Hg  Hg3  1  0.75000026  0.75000016  0.39616246  1  0  0.5094  0  2.265613  0  0  0.374271  0  2.761362  0  0  0.416586  0  2.735688  0  0.538194  0  0.386528  0.346124  0  2.778083  0
H  H4  1  0.61933864  0.96330534  0.98194755  1  0  0.072889  0  0.957959  0  0  0.076869  0  1.031313  0  0  0.079332  0  1.02927  0  0.107197  0  0.103119  0.075033  0  1.032898  0
H  H5  1  0.03669460  0.11933817  0.48194755  1  0  0.072886  0  0.957968  0  0  0.076866  0  1.031318  0  0  0.079329  0  1.029275  0  0.107191  0  0.103115  0.075031  0  1.032903  0
H  H6  1  0.46330501  0.38066137  0.48194831  1  0  0.072881  0  0.957948  0  0  0.076867  0  1.03129  0  0  0.07933  0  1.029248  0  0.107189  0  0.103118  0.075032  0  1.032875  0
H  H7  1  0.88066102  0.53669498  0.98194831  1  0  0.072895  0  0.957977  0  0  0.076879  0  1.031325  0  0  0.079343  0  1.029282  0  0.10719  0  0.103128  0.075044  0  1.03291  0
H  H8  1  0.38066142  0.03669459  0.01805169  1  0  0.072878  0  0.957959  0  0  0.076863  0  1.031305  0  0  0.079326  0  1.029263  0  0.107184  0  0.103112  0.075027  0  1.032889  0
H  H9  1  0.96330462  0.88066176  0.51805169  1  0  0.072896  0  0.957952  0  0  0.076879  0  1.031298  0  0  0.079342  0  1.029255  0  0.107195  0  0.103121  0.075043  0  1.032883  0
H  H10  1  0.53669505  0.61933856  0.51805245  1  0  0.072893  0  0.957951  0  0  0.076876  0  1.031295  0  0  0.07934  0  1.029251  0  0.107197  0  0.103121  0.07504  0  1.03288  0
H  H11  1  0.11933819  0.46330495  0.01805245  1  0  0.072898  0  0.957982  0  0  0.076884  0  1.031326  0  0  0.079347  0  1.029283  0  0.107192  0  0.103128  0.075048  0  1.032911  0
H  H12  1  0.48787377  0.00206734  0.83614220  1  0  0.103465  0  0.967571  0  0  0.109454  0  1.038132  0  0  0.112852  0  1.03662  0  0.079232  0  0.097392  0.106972  0  1.039407  0
H  H13  1  0.99793272  0.98787325  0.33614220  1  0  0.103461  0  0.967583  0  0  0.109451  0  1.038143  0  0  0.112849  0  1.036632  0  0.07923  0  0.097384  0.10697  0  1.039418  0
H  H14  1  0.50206779  0.51212876  0.33614449  1  0  0.103477  0  0.967544  0  0  0.109462  0  1.038111  0  0  0.112858  0  1.036603  0  0.079218  0  0.097409  0.106977  0  1.039389  0
H  H15  1  0.01212922  0.49793221  0.83614449  1  0  0.103476  0  0.967542  0  0  0.109462  0  1.038108  0  0  0.112858  0  1.0366  0  0.079216  0  0.097406  0.106976  0  1.039387  0
H  H16  1  0.51212629  0.99793175  0.16385704  1  0  0.103461  0  0.96755  0  0  0.109448  0  1.038115  0  0  0.112844  0  1.036607  0  0.079226  0  0.097403  0.106965  0  1.039391  0
H  H17  1  0.00206734  0.01212584  0.66385704  1  0  0.103455  0  0.967587  0  0  0.109441  0  1.038151  0  0  0.112838  0  1.036641  0  0.079235  0  0.097394  0.106958  0  1.039427  0
H  H18  1  0.49793227  0.48787371  0.66385704  1  0  0.103478  0  0.967537  0  0  0.109467  0  1.038097  0  0  0.112864  0  1.036588  0  0.079228  0  0.097411  0.106984  0  1.039373  0
H  H19  1  0.98787337  0.50206773  0.16385704  1  0  0.10347  0  0.967548  0  0  0.109457  0  1.038109  0  0  0.112853  0  1.036601  0  0.079227  0  0.09741  0.106975  0  1.039384  0
H  H20  1  0.47670085  0.64254347  0.78174882  1  0  0.106189  0  0.989577  0  0  0.111924  0  1.060338  0  0  0.115346  0  1.058514  0  0.134007  0  0.095434  0.109417  0  1.06188  0
H  H21  1  0.35745651  0.97670118  0.28174959  1  0  0.106197  0  0.98958  0  0  0.111937  0  1.060327  0  0  0.115358  0  1.058503  0  0.134016  0  0.095432  0.109428  0  1.061869  0
H  H22  1  0.14254394  0.52329830  0.28174806  1  0  0.106183  0  0.989577  0  0  0.111921  0  1.060333  0  0  0.115343  0  1.058508  0  0.134001  0  0.095438  0.109412  0  1.061875  0
H  H23  1  0.02329792  0.85745601  0.78174882  1  0  0.106197  0  0.989559  0  0  0.111937  0  1.060306  0  0  0.115359  0  1.058481  0  0.134012  0  0.095446  0.109428  0  1.061849  0
H  H24  1  0.52329837  0.35745647  0.21825041  1  0  0.106184  0  0.989577  0  0  0.111931  0  1.060319  0  0  0.115348  0  1.058499  0  0.134026  0  0.09544  0.109421  0  1.061862  0
H  H25  1  0.64254355  0.02329876  0.71825118  1  0  0.106203  0  0.989564  0  0  0.11194  0  1.060316  0  0  0.115362  0  1.058492  0  0.134009  0  0.095438  0.109432  0  1.061857  0
H  H26  1  0.85745612  0.47670079  0.71825118  1  0  0.106205  0  0.989551  0  0  0.111941  0  1.060306  0  0  0.115363  0  1.058483  0  0.134017  0  0.09544  0.109434  0  1.061848  0
H  H27  1  0.97670130  0.14254308  0.21825118  1  0  0.1062  0  0.989558  0  0  0.111934  0  1.060322  0  0  0.115356  0  1.058497  0  0.134006  0  0.09544  0.109426  0  1.061863  0
H  H28  1  0.60199584  0.61737946  0.93459272  1  0  0.071059  0  0.953107  0  0  0.075942  0  1.025171  0  0  0.07852  0  1.023048  0  0.093399  0  0.100685  0.074049  0  1.026715  0
H  H29  1  0.38262053  0.10199622  0.43459348  1  0  0.071045  0  0.953117  0  0  0.075926  0  1.025188  0  0  0.078509  0  1.023053  0  0.093394  0  0.10068  0.074034  0  1.026731  0
H  H30  1  0.11737908  0.39800417  0.43459272  1  0  0.071058  0  0.953111  0  0  0.075941  0  1.025182  0  0  0.07852  0  1.023056  0  0.093401  0  0.100685  0.074049  0  1.026726  0
H  H31  1  0.89800383  0.88262087  0.93459272  1  0  0.071059  0  0.953102  0  0  0.075942  0  1.025172  0  0  0.07852  0  1.023049  0  0.0934  0  0.100685  0.074049  0  1.026715  0
H  H32  1  0.39800422  0.38262048  0.06540652  1  0  0.071043  0  0.953109  0  0  0.075923  0  1.025181  0  0  0.078502  0  1.023058  0  0.092771  0  0.100673  0.07403  0  1.026725  0
H  H33  1  0.61737953  0.89800456  0.56540652  1  0  0.071015  0  0.953127  0  0  0.075894  0  1.025206  0  0  0.078473  0  1.023079  0  0.092769  0  0.100656  0.074001  0  1.02675  0
H  H34  1  0.88262098  0.60199576  0.56540728  1  0  0.071062  0  0.953104  0  0  0.075945  0  1.025172  0  0  0.078523  0  1.023048  0  0.093398  0  0.100685  0.074052  0  1.026716  0
H  H35  1  0.10199539  0.11737907  0.06540728  1  0  0.07105  0  0.953099  0  0  0.07593  0  1.025173  0  0  0.078508  0  1.023048  0  0.093398  0  0.100678  0.074037  0  1.026717  0
H  H36  1  0.36884166  0.93148273  0.69706474  1  0  0.047561  0  0.98083  0  0  0.052725  0  1.060333  0  0  0.055983  0  1.056887  0  0.069001  0  0.087435  0.050354  0  1.062884  0
H  H37  1  0.06851806  0.86884116  0.19706474  1  0  0.047579  0  0.980799  0  0  0.052727  0  1.060318  0  0  0.055986  0  1.056871  0  0.069008  0  0.087435  0.050356  0  1.062871  0
H  H38  1  0.43148239  0.63115832  0.19706474  1  0  0.047592  0  0.980806  0  0  0.052763  0  1.060308  0  0  0.056023  0  1.056858  0  0.068998  0  0.087441  0.050391  0  1.062857  0
H  H39  1  0.13115794  0.56851759  0.69706474  1  0  0.047581  0  0.980812  0  0  0.052743  0  1.060321  0  0  0.056002  0  1.056874  0  0.069006  0  0.087439  0.050373  0  1.062869  0
H  H40  1  0.63115840  0.06851720  0.30293526  1  0  0.047579  0  0.980803  0  0  0.05274  0  1.060306  0  0  0.056  0  1.05686  0  0.068989  0  0.087438  0.05037  0  1.062858  0
H  H41  1  0.93148285  0.13115793  0.80293526  1  0  0.047562  0  0.980809  0  0  0.052731  0  1.060309  0  0  0.055989  0  1.056864  0  0.068999  0  0.087436  0.05036  0  1.062859  0
H  H42  1  0.56851766  0.36884162  0.80293526  1  0  0.04759  0  0.980798  0  0  0.052749  0  1.060307  0  0  0.056008  0  1.056859  0  0.068995  0  0.087442  0.050378  0  1.06286  0
H  H43  1  0.86884127  0.43148234  0.30293526  1  0  0.047582  0  0.980785  0  0  0.052744  0  1.060295  0  0  0.056004  0  1.056845  0  0.069002  0  0.087439  0.050371  0  1.062844  0
H  H44  1  0.34899354  0.77511260  0.49079218  1  0  0.065396  0  0.949727  0  0  0.082592  0  1.015402  0  0  0.082682  0  1.01531  0  0.054741  0  0.09116  0.082476  0  1.015507  0
H  H45  1  0.22488737  0.84899388  0.99079218  1  0  0.065413  0  0.949714  0  0  0.082607  0  1.015392  0  0  0.082697  0  1.0153  0  0.054748  0  0.091164  0.082491  0  1.015496  0
H  H46  1  0.27511309  0.65100644  0.99079218  1  0  0.065405  0  0.949722  0  0  0.082604  0  1.015393  0  0  0.082693  0  1.015301  0  0.054743  0  0.09116  0.082487  0  1.015498  0
H  H47  1  0.15100607  0.72488773  0.49079218  1  0  0.065397  0  0.949711  0  0  0.082588  0  1.015391  0  0  0.082677  0  1.015299  0  0.05474  0  0.091152  0.082473  0  1.015496  0
H  H48  1  0.65100652  0.22488734  0.50920782  1  0  0.065406  0  0.949721  0  0  0.082605  0  1.015394  0  0  0.082694  0  1.015303  0  0.054751  0  0.091168  0.08249  0  1.015499  0
H  H49  1  0.77511269  0.15100605  0.00920782  1  0  0.06541  0  0.949716  0  0  0.082607  0  1.015392  0  0  0.082696  0  1.0153  0  0.054748  0  0.091162  0.082489  0  1.015497  0
H  H50  1  0.72488782  0.34899349  0.00920782  1  0  0.065391  0  0.949723  0  0  0.082594  0  1.01539  0  0  0.082683  0  1.015298  0  0.054745  0  0.091158  0.08248  0  1.015496  0
H  H51  1  0.84899399  0.27511221  0.50920782  1  0  0.065403  0  0.949704  0  0  0.082598  0  1.015385  0  0  0.082688  0  1.015292  0  0.05474  0  0.091153  0.082482  0  1.01549  0
H  H52  1  0.27153224  0.87867644  0.56190933  1  0  0.053335  0  0.927285  0  0  0.069521  0  0.99127  0  0  0.07039  0  0.990998  0  0.0375  0  0.092535  0.068799  0  0.991599  0
H  H53  1  0.12132351  0.77153259  0.06190933  1  0  0.053335  0  0.927307  0  0  0.069533  0  0.99128  0  0  0.070402  0  0.991007  0  0.037499  0  0.092522  0.068811  0  0.991609  0
H  H54  1  0.37867694  0.72846773  0.06190933  1  0  0.053333  0  0.927278  0  0  0.069518  0  0.991265  0  0  0.070386  0  0.990994  0  0.037492  0  0.09253  0.068795  0  0.991595  0
H  H55  1  0.22846737  0.62132304  0.56190933  1  0  0.053337  0  0.927285  0  0  0.069519  0  0.991269  0  0  0.070386  0  0.990999  0  0.037492  0  0.092523  0.068796  0  0.9916  0
H  H56  1  0.72846782  0.12132349  0.43809067  1  0  0.053349  0  0.927253  0  0  0.069539  0  0.991239  0  0  0.070407  0  0.990968  0  0.037499  0  0.092543  0.068816  0  0.991568  0
H  H57  1  0.87867655  0.22846734  0.93809067  1  0  0.053349  0  0.927269  0  0  0.069537  0  0.991252  0  0  0.070406  0  0.99098  0  0.037499  0  0.09253  0.068814  0  0.991581  0
H  H58  1  0.62132311  0.27153220  0.93809067  1  0  0.053354  0  0.927322  0  0  0.069538  0  0.991303  0  0  0.070408  0  0.991029  0  0.037486  0  0.092545  0.068817  0  0.991633  0
H  H59  1  0.77153269  0.37867690  0.43809067  1  0  0.053331  0  0.927281  0  0  0.069518  0  0.991267  0  0  0.070385  0  0.990997  0  0.037494  0  0.092523  0.068795  0  0.991596  0
C  C60  1  0.58399521  0.89447444  0.93662190  1  0  0.1242  0  3.712248  0  0  0.097115  0  3.961281  0  0  0.10402  0  3.979987  0  0.470669  0  0.041865  0.092653  0  3.948521  0
C  C61  1  0.10552466  0.08399559  0.43662190  1  0  0.124202  0  3.712253  0  0  0.097119  0  3.961286  0  0  0.104024  0  3.979991  0  0.470658  0  0.041881  0.092657  0  3.948526  0
C  C62  1  0.39447495  0.41600480  0.43662266  1  0  0.124269  0  3.712207  0  0  0.097175  0  3.96125  0  0  0.104081  0  3.979954  0  0.470654  0  0.041885  0.092712  0  3.948491  0
C  C63  1  0.91600445  0.60552588  0.93662266  1  0  0.124263  0  3.712268  0  0  0.097163  0  3.961306  0  0  0.104069  0  3.98001  0  0.470686  0  0.041866  0.0927  0  3.948546  0
C  C64  1  0.41600485  0.10552464  0.06337734  1  0  0.124223  0  3.712186  0  0  0.097127  0  3.961228  0  0  0.104035  0  3.979931  0  0.470807  0  0.041878  0.092666  0  3.948467  0
C  C65  1  0.89447456  0.91600434  0.56337810  1  0  0.124211  0  3.712268  0  0  0.097127  0  3.961296  0  0  0.104033  0  3.980001  0  0.470665  0  0.041884  0.092664  0  3.948536  0
C  C66  1  0.60552511  0.58399514  0.56337810  1  0  0.124219  0  3.712216  0  0  0.09713  0  3.961254  0  0  0.104035  0  3.979959  0  0.470665  0  0.041867  0.092667  0  3.948495  0
C  C67  1  0.08399560  0.39447490  0.06337734  1  0  0.124227  0  3.712231  0  0  0.097132  0  3.961265  0  0  0.104038  0  3.979968  0  0.470803  0  0.041883  0.09267  0  3.948505  0
C  C68  1  0.51197240  0.91554690  0.85491267  1  0  -0.155362  0  3.712149  0  0  -0.171956  0  3.955487  0  0  -0.179617  0  3.976724  0  -0.015686  0  -0.080758  -0.166923  0  3.941234  0
C  C69  1  0.08445304  0.01197280  0.35491190  1  0  -0.155376  0  3.71218  0  0  -0.171972  0  3.95552  0  0  -0.179633  0  3.976757  0  -0.015683  0  -0.080766  -0.166941  0  3.941267  0
C  C70  1  0.41554657  0.48802844  0.35491343  1  0  -0.155413  0  3.712163  0  0  -0.172025  0  3.955477  0  0  -0.179686  0  3.976714  0  -0.01566  0  -0.080791  -0.16699  0  3.941226  0
C  C71  1  0.98802895  0.58445342  0.85491343  1  0  -0.155426  0  3.71217  0  0  -0.17204  0  3.955482  0  0  -0.1797  0  3.976719  0  -0.015663  0  -0.080774  -0.167004  0  3.941231  0
C  C72  1  0.48802765  0.08445303  0.14508733  1  0  -0.155382  0  3.7121  0  0  -0.171976  0  3.955431  0  0  -0.179638  0  3.976668  0  -0.01582  0  -0.080779  -0.166943  0  3.941179  0
C  C73  1  0.91554702  0.98802714  0.64508733  1  0  -0.155362  0  3.712263  0  0  -0.171936  0  3.955605  0  0  -0.179597  0  3.976842  0  -0.015685  0  -0.08075  -0.166903  0  3.941351  0
C  C74  1  0.58445349  0.51197234  0.64508733  1  0  -0.155405  0  3.712151  0  0  -0.171996  0  3.955478  0  0  -0.179657  0  3.976714  0  -0.015685  0  -0.080782  -0.166963  0  3.941226  0
C  C75  1  0.01197280  0.41554651  0.14508733  1  0  -0.155389  0  3.712212  0  0  -0.171942  0  3.955559  0  0  -0.179602  0  3.976796  0  -0.015822  0  -0.080766  -0.166909  0  3.941306  0
C  C76  1  0.47275895  0.82444373  0.79646322  1  0  0.098545  0  3.764087  0  0  0.116696  0  3.987842  0  0  0.119921  0  4.009654  0  -0.074063  0  0.009019  0.114742  0  3.972965  0
C  C77  1  0.17555623  0.97275844  0.29646322  1  0  0.098541  0  3.764096  0  0  0.116689  0  3.987847  0  0  0.119913  0  4.009659  0  -0.074065  0  0.009017  0.114735  0  3.972971  0
C  C78  1  0.32444338  0.52724358  0.29646474  1  0  0.098446  0  3.764282  0  0  0.116677  0  3.98792  0  0  0.1199  0  4.009735  0  -0.074073  0  0.008989  0.114724  0  3.973042  0
C  C79  1  0.02724403  0.67555659  0.79646474  1  0  0.098516  0  3.764256  0  0  0.116763  0  3.987868  0  0  0.119986  0  4.009682  0  -0.074073  0  0.009011  0.114809  0  3.97299  0
C  C80  1  0.52724195  0.17555620  0.20353678  1  0  0.098535  0  3.764122  0  0  0.116716  0  3.987837  0  0  0.119941  0  4.009649  0  -0.074108  0  0.009021  0.114762  0  3.97296  0
C  C81  1  0.82444383  0.02724149  0.70353602  1  0  0.098608  0  3.764084  0  0  0.116712  0  3.987897  0  0  0.119936  0  4.009709  0  -0.074062  0  0.009005  0.114758  0  3.973019  0
C  C82  1  0.67555583  0.47275805  0.70353678  1  0  0.098533  0  3.764151  0  0  0.116702  0  3.98787  0  0  0.119926  0  4.009682  0  -0.074111  0  0.009007  0.114747  0  3.972993  0
C  C83  1  0.97275856  0.32444419  0.20353602  1  0  0.098555  0  3.764091  0  0  0.116623  0  3.987943  0  0  0.119846  0  4.009758  0  -0.074068  0  0.008983  0.114668  0  3.973066  0
C  C84  1  0.50619485  0.71514968  0.82497221  1  0  -0.137757  0  3.694803  0  0  -0.154958  0  3.932037  0  0  -0.161516  0  3.953071  0  -0.010329  0  -0.081054  -0.150727  0  3.917983  0
C  C85  1  0.28485028  0.00619525  0.32497297  1  0  -0.137764  0  3.694756  0  0  -0.154962  0  3.931988  0  0  -0.161519  0  3.953022  0  -0.010326  0  -0.081052  -0.150731  0  3.917935  0
C  C86  1  0.21515017  0.49380599  0.32497297  1  0  -0.137671  0  3.6948  0  0  -0.154894  0  3.932012  0  0  -0.161451  0  3.953046  0  -0.010316  0  -0.081041  -0.150665  0  3.91796  0
C  C87  1  0.99380650  0.78484979  0.82497373  1  0  -0.137703  0  3.694773  0  0  -0.154929  0  3.931982  0  0  -0.161484  0  3.953015  0  -0.01032  0  -0.081042  -0.150699  0  3.917928  0
C  C88  1  0.49380436  0.28484940  0.17502703  1  0  -0.137732  0  3.694743  0  0  -0.154956  0  3.93199  0  0  -0.16151  0  3.953028  0  -0.010353  0  -0.081061  -0.150725  0  3.917937  0
C  C89  1  0.71514977  0.99380469  0.67502703  1  0  -0.137813  0  3.694742  0  0  -0.154991  0  3.931982  0  0  -0.161549  0  3.953016  0  -0.010319  0  -0.081052  -0.150762  0  3.917928  0
C  C90  1  0.78484989  0.50619479  0.67502703  1  0  -0.137751  0  3.694765  0  0  -0.154954  0  3.931988  0  0  -0.161511  0  3.953022  0  -0.010322  0  -0.081058  -0.150724  0  3.917934  0
C  C91  1  0.00619525  0.21515014  0.17502703  1  0  -0.137767  0  3.694733  0  0  -0.154939  0  3.931981  0  0  -0.161497  0  3.953016  0  -0.010338  0  -0.081047  -0.150709  0  3.917927  0
C  C92  1  0.57592118  0.70130149  0.90887127  1  0  0.116791  0  3.726258  0  0  0.089257  0  3.975498  0  0  0.095509  0  3.994432  0  0.508967  0  0.037352  0.08525  0  3.962601  0
C  C93  1  0.29869848  0.07592157  0.40887127  1  0  0.116777  0  3.726291  0  0  0.089238  0  3.975539  0  0  0.095489  0  3.994474  0  0.508958  0  0.037337  0.085231  0  3.962642  0
C  C94  1  0.20130197  0.42407798  0.40887051  1  0  0.116763  0  3.726266  0  0  0.089221  0  3.975528  0  0  0.095472  0  3.994462  0  0.508974  0  0.037332  0.085215  0  3.962632  0
C  C95  1  0.92407764  0.79869799  0.90887051  1  0  0.116779  0  3.726264  0  0  0.089232  0  3.975528  0  0  0.095482  0  3.994461  0  0.508968  0  0.037328  0.085226  0  3.96263  0
C  C96  1  0.42407888  0.29869845  0.09112873  1  0  0.116774  0  3.726238  0  0  0.089245  0  3.975493  0  0  0.095496  0  3.994426  0  0.509614  0  0.037338  0.08524  0  3.962596  0
C  C97  1  0.70130158  0.92407837  0.59112873  1  0  0.11684  0  3.72624  0  0  0.089308  0  3.975486  0  0  0.095559  0  3.994421  0  0.509588  0  0.037356  0.085302  0  3.962588  0
C  C98  1  0.79869809  0.57592196  0.59112949  1  0  0.116744  0  3.726297  0  0  0.089206  0  3.975546  0  0  0.095458  0  3.994481  0  0.508962  0  0.037326  0.085201  0  3.962649  0
C  C99  1  0.07592158  0.20130194  0.09112873  1  0  0.11677  0  3.726264  0  0  0.08924  0  3.975506  0  0  0.095491  0  3.994441  0  0.508991  0  0.037336  0.085234  0  3.962608  0
C  C100  1  0.39961750  0.84407032  0.70760047  1  0  0.097286  0  3.708815  0  0  0.067568  0  3.960471  0  0  0.072877  0  3.974856  0  0.695492  0  0.066485  0.063975  0  3.950704  0
C  C101  1  0.15592963  0.89961784  0.20760047  1  0  0.097271  0  3.708725  0  0  0.067569  0  3.960374  0  0  0.072877  0  3.974758  0  0.695485  0  0.066488  0.063975  0  3.950608  0
C  C102  1  0.34407167  0.60038079  0.20759971  1  0  0.097286  0  3.7088  0  0  0.067537  0  3.960413  0  0  0.072846  0  3.974799  0  0.695457  0  0.066489  0.063947  0  3.950644  0
C  C103  1  0.10038126  0.65592915  0.70759971  1  0  0.097271  0  3.708808  0  0  0.067521  0  3.960444  0  0  0.072831  0  3.974826  0  0.695467  0  0.066474  0.063928  0  3.950678  0
C  C104  1  0.60038002  0.15592877  0.29240105  1  0  0.097287  0  3.708792  0  0  0.067564  0  3.960432  0  0  0.072871  0  3.974815  0  0.695521  0  0.066494  0.06397  0  3.950665  0
C  C105  1  0.84407127  0.10038125  0.79239953  1  0  0.097288  0  3.708724  0  0  0.067568  0  3.960408  0  0  0.072879  0  3.974793  0  0.695478  0  0.066497  0.063975  0  3.950641  0
C  C106  1  0.65592924  0.39961999  0.79240105  1  0  0.097276  0  3.708767  0  0  0.067555  0  3.960407  0  0  0.072864  0  3.974791  0  0.695525  0  0.066484  0.063961  0  3.95064  0
C  C107  1  0.89961795  0.34407078  0.29239953  1  0  0.097297  0  3.708672  0  0  0.067602  0  3.960331  0  0  0.072911  0  3.974715  0  0.695486  0  0.066503  0.064013  0  3.95056  0
C  C108  1  0.30095522  0.78986890  0.56153014  1  0  -0.002166  0  3.715408  0  0  -0.051575  0  3.978757  0  0  -0.048982  0  3.990868  0  0.314791  0  -0.069267  -0.053078  0  3.970187  0
C  C109  1  0.21013106  0.80095473  0.06153091  1  0  -0.002208  0  3.715405  0  0  -0.05162  0  3.978753  0  0  -0.04903  0  3.990867  0  0.292015  0  -0.06927  -0.053121  0  3.970176  0
C  C110  1  0.28986939  0.69904475  0.06153014  1  0  -0.002198  0  3.71539  0  0  -0.051612  0  3.978749  0  0  -0.049019  0  3.990861  0  0.314795  0  -0.069289  -0.053117  0  3.970183  0
C  C111  1  0.19904523  0.71013143  0.56153014  1  0  -0.002175  0  3.715333  0  0  -0.051564  0  3.978663  0  0  -0.048974  0  3.990777  0  0.292021  0  -0.069261  -0.053068  0  3.970095  0
C  C112  1  0.69904484  0.21013104  0.43846909  1  0  -0.002202  0  3.715369  0  0  -0.05162  0  3.978736  0  0  -0.04903  0  3.99085  0  0.292021  0  -0.069294  -0.053124  0  3.970168  0
C  C113  1  0.78986900  0.19904521  0.93846909  1  0  -0.002214  0  3.715356  0  0  -0.051624  0  3.978715  0  0  -0.04903  0  3.990824  0  0.292019  0  -0.069283  -0.053125  0  3.970147  0
C  C114  1  0.71013067  0.30095434  0.93846986  1  0  -0.002186  0  3.715389  0  0  -0.051594  0  3.978739  0  0  -0.049  0  3.990849  0  0.314795  0  -0.069292  -0.053106  0  3.970179  0
C  C115  1  0.80095483  0.28986935  0.43846909  1  0  -0.002182  0  3.715319  0  0  -0.051586  0  3.978674  0  0  -0.048992  0  3.990785  0  0.314805  0  -0.06927  -0.05309  0  3.970107  0
I  I116  1  0.68710079  0.53791340  0.15518525  1  0  -0.351267  0  1.189618  0  0  -0.310526  0  1.534439  0  0  -0.326851  0  1.513652  0  -0.332827  0  -0.153581  -0.299457  0  1.548648  0
I  I117  1  0.46208490  0.18709947  0.65518678  1  0  -0.351278  0  1.189629  0  0  -0.310535  0  1.534448  0  0  -0.326861  0  1.513661  0  -0.332811  0  -0.153588  -0.299465  0  1.548659  0
I  I118  1  0.03791132  0.31289923  0.65518297  1  0  -0.351277  0  1.189615  0  0  -0.310531  0  1.534433  0  0  -0.326855  0  1.513647  0  -0.332848  0  -0.153583  -0.299463  0  1.548645  0
I  I119  1  0.81289972  0.96208692  0.15518525  1  0  -0.351276  0  1.189623  0  0  -0.310527  0  1.534435  0  0  -0.326851  0  1.513649  0  -0.33283  0  -0.153582  -0.299458  0  1.548647  0
I  I120  1  0.31289927  0.46208653  0.84481475  1  0  -0.351266  0  1.189623  0  0  -0.310519  0  1.534443  0  0  -0.326845  0  1.513656  0  -0.332823  0  -0.153576  -0.299452  0  1.548654  0
I  I121  1  0.53791347  0.81289962  0.34481475  1  0  -0.351265  0  1.18963  0  0  -0.310516  0  1.534445  0  0  -0.326842  0  1.513658  0  -0.332825  0  -0.153572  -0.299448  0  1.548655  0
I  I122  1  0.96208704  0.68710070  0.34481475  1  0  -0.351277  0  1.189625  0  0  -0.310527  0  1.534437  0  0  -0.326853  0  1.513651  0  -0.33283  0  -0.153583  -0.29946  0  1.548649  0
I  I123  1  0.18710034  0.03791301  0.84481475  1  0  -0.351275  0  1.18963  0  0  -0.310528  0  1.534443  0  0  -0.326854  0  1.513657  0  -0.332834  0  -0.15358  -0.299461  0  1.548654  0
N  N124  1  0.61469411  0.78941907  0.96355399  1  0  -0.286315  0  3.254297  0  0  -0.212398  0  3.514437  0  0  -0.231483  0  3.535813  0  -1.238837  0  -0.315704  -0.199455  0  3.499588  0
N  N125  1  0.21058089  0.11469449  0.46355399  1  0  -0.286279  0  3.254355  0  0  -0.212362  0  3.514496  0  0  -0.231447  0  3.535873  0  -1.238826  0  -0.315683  -0.199419  0  3.499648  0
N  N126  1  0.28941956  0.38530590  0.46355475  1  0  -0.286313  0  3.254337  0  0  -0.212401  0  3.514492  0  0  -0.231485  0  3.535869  0  -1.238836  0  -0.315679  -0.199459  0  3.499646  0
N  N127  1  0.88530640  0.71058041  0.96355475  1  0  -0.286355  0  3.254377  0  0  -0.212433  0  3.514526  0  0  -0.231518  0  3.535902  0  -1.238855  0  -0.31569  -0.199492  0  3.499679  0
N  N128  1  0.38530595  0.21058086  0.03644525  1  0  -0.286268  0  3.254258  0  0  -0.212349  0  3.514401  0  0  -0.231435  0  3.535777  0  -1.238826  0  -0.315666  -0.199408  0  3.499552  0
N  N129  1  0.78941917  0.88530545  0.53644525  1  0  -0.286314  0  3.25432  0  0  -0.212403  0  3.51447  0  0  -0.231489  0  3.535847  0  -1.238847  0  -0.315689  -0.199462  0  3.499622  0
N  N130  1  0.71058134  0.61469403  0.53644525  1  0  -0.286262  0  3.254295  0  0  -0.212347  0  3.514438  0  0  -0.231431  0  3.535815  0  -1.238832  0  -0.315662  -0.199405  0  3.49959  0
N  N131  1  0.11469450  0.28941868  0.03644525  1  0  -0.286296  0  3.254311  0  0  -0.212384  0  3.514468  0  0  -0.23147  0  3.535842  0  -1.238848  0  -0.315688  -0.199443  0  3.499619  0
N  N132  1  0.37444926  0.76380862  0.64643200  1  0  -0.278552  0  3.013651  0  0  -0.235398  0  3.287212  0  0  -0.247286  0  3.304279  0  -1.151308  0  -0.315393  -0.227149  0  3.27537  0
N  N133  1  0.23619219  0.87444960  0.14643200  1  0  -0.278498  0  3.013505  0  0  -0.235345  0  3.287057  0  0  -0.247231  0  3.304122  0  -1.151316  0  -0.315361  -0.227095  0  3.275215  0
N  N134  1  0.26380826  0.62555072  0.14643200  1  0  -0.278544  0  3.013588  0  0  -0.235395  0  3.287155  0  0  -0.247281  0  3.304221  0  -1.151272  0  -0.315376  -0.227146  0  3.275311  0
N  N135  1  0.12555035  0.73619255  0.64643200  1  0  -0.278561  0  3.013545  0  0  -0.235415  0  3.287109  0  0  -0.2473  0  3.304172  0  -1.151294  0  -0.315382  -0.227165  0  3.275266  0
N  N136  1  0.62555080  0.23619216  0.35356800  1  0  -0.278562  0  3.013592  0  0  -0.23541  0  3.287154  0  0  -0.247293  0  3.304218  0  -1.151298  0  -0.315386  -0.227159  0  3.27531  0
N  N137  1  0.76380871  0.12555033  0.85356724  1  0  -0.278565  0  3.013567  0  0  -0.235403  0  3.287125  0  0  -0.247293  0  3.304192  0  -1.15129  0  -0.31539  -0.227153  0  3.275281  0
N  N138  1  0.73619264  0.37444921  0.85356800  1  0  -0.278564  0  3.013525  0  0  -0.235415  0  3.287089  0  0  -0.247304  0  3.304154  0  -1.151292  0  -0.315381  -0.227163  0  3.275249  0
N  N139  1  0.87444971  0.26380823  0.35356724  1  0  -0.278572  0  3.013529  0  0  -0.235417  0  3.28708  0  0  -0.247306  0  3.304147  0  -1.151308  0  -0.315392  -0.227168  0  3.275237  0
