# generated using pymatgen
data_CdH5C10N3O4
_symmetry_space_group_name_H-M   'P 1'
_cell_length_a   11.28457644
_cell_length_b   12.49513369
_cell_length_c   12.48525186
_cell_angle_alpha   105.34265221
_cell_angle_beta   89.99823235
_cell_angle_gamma   116.84949885
_symmetry_Int_Tables_number   1
_chemical_formula_structural   CdH5C10N3O4
_chemical_formula_sum   'Cd4 H20 C40 N12 O16'
_cell_volume   1500.01485002
_cell_formula_units_Z   4
loop_
 _symmetry_equiv_pos_site_id
 _symmetry_equiv_pos_as_xyz
  1  'x, y, z'
loop_
 _atom_site_type_symbol
 _atom_site_label
 _atom_site_symmetry_multiplicity
 _atom_site_fract_x
 _atom_site_fract_y
 _atom_site_fract_z
 _atom_site_occupancy
 _atom_site_pbe_bader_charge
 _atom_site_pbe_bader_spin_density
 _atom_site_pbe_cm5_charge
 _atom_site_pbe_ddec_charge
 _atom_site_pbe_ddec_spin_density
 _atom_site_pbe_ddec_sum_bond_order
 _atom_site_pbe_magmom
Cd  Cd0  1  0.90995212  0.39899507  0.84540639  1  1.2706  0  0.807448  0.848462  0  2.32803  0
Cd  Cd1  1  0.51111706  0.60114140  0.65462847  1  1.269984  0  0.807011  0.848129  0  2.327077  0
Cd  Cd2  1  0.09004533  0.60107131  0.15458323  1  1.270493  0  0.807473  0.848513  0  2.328348  0
Cd  Cd3  1  0.48890039  0.39891006  0.34535898  1  1.269894  0  0.807099  0.848383  0  2.326989  0
H  H4  1  0.86696456  0.15376436  0.90519527  1  0.150041  0  0.122819  0.102174  0  1.001726  0
H  H5  1  0.70052443  0.98212080  0.97046058  1  0.137496  0  0.113205  0.127819  0  1.029576  0
H  H6  1  0.61223012  0.31061350  0.90236438  1  0.087408  0  0.117755  0.088239  0  0.993665  0
H  H7  1  0.43453513  0.14770886  0.96969936  1  0.125259  0  0.110845  0.124261  0  1.046827  0
H  H8  1  0.27303262  0.62322933  0.85990719  1  0.1262  0  0.126093  0.087088  0  1.012184  0
H  H9  1  0.71384323  0.84720431  0.59581574  1  0.131978  0  0.123156  0.102403  0  1.000982  0
H  H10  1  0.71872568  0.01843297  0.53009632  1  0.138011  0  0.113381  0.128227  0  1.029644  0
H  H11  1  0.30204440  0.68921416  0.59741124  1  0.088845  0  0.117571  0.088051  0  0.99391  0
H  H12  1  0.28696584  0.85194385  0.53001718  1  0.150103  0  0.110785  0.124648  0  1.047527  0
H  H13  1  0.64945102  0.37658048  0.64024900  1  0.123889  0  0.126125  0.08702  0  1.012344  0
H  H14  1  0.13302157  0.84626529  0.09484884  1  0.149462  0  0.122834  0.102119  0  1.001776  0
H  H15  1  0.29944746  0.01787863  0.02956380  1  0.138191  0  0.113216  0.127931  0  1.02946  0
H  H16  1  0.38765132  0.68931841  0.09758137  1  0.087645  0  0.117804  0.088393  0  0.993549  0
H  H17  1  0.56538301  0.85220251  0.03024310  1  0.126089  0  0.110785  0.12408  0  1.046726  0
H  H18  1  0.72692373  0.37677613  0.14005896  1  0.125901  0  0.126079  0.087247  0  1.012258  0
H  H19  1  0.28633514  0.15303294  0.40460822  1  0.132317  0  0.122971  0.102121  0  1.000962  0
H  H20  1  0.28154924  0.98188749  0.47037489  1  0.138834  0  0.113303  0.128236  0  1.0297  0
H  H21  1  0.69801250  0.31066430  0.40228856  1  0.087366  0  0.117712  0.088399  0  0.994129  0
H  H22  1  0.71314549  0.14787859  0.46960956  1  0.151412  0  0.110719  0.124667  0  1.046871  0
H  H23  1  0.35049309  0.62338989  0.35970530  1  0.123535  0  0.126071  0.086544  0  1.012818  0
C  C24  1  0.76946124  0.14856963  0.92051983  1  0.428576  0  0.053797  0.10278  0  3.919295  0
C  C25  1  0.67519525  0.05292386  0.95837783  1  0.025563  0  -0.06898  -0.145724  0  3.883362  0
C  C26  1  0.62740305  0.23593746  0.91921397  1  0.520515  0  0.043054  0.079183  0  3.978088  0
C  C27  1  0.52796258  0.14360246  0.95684041  1  -0.041118  0  -0.075094  -0.157394  0  3.912551  0
C  C28  1  0.55111518  0.04933544  0.97871657  1  -0.069576  0  0.019428  0.109371  0  3.938793  0
C  C29  1  0.22811576  0.54409845  0.78433250  1  0.9835  0  0.138932  0.18263  0  3.967638  0
C  C30  1  0.20501269  0.41478783  0.62096496  1  0.412736  0  0.071115  -0.004132  0  4.046296  0
C  C31  1  0.24543832  0.36151739  0.51747168  1  1.554204  0  0.210129  0.531663  0  4.248432  0
C  C32  1  0.08170479  0.37462371  0.66032345  1  0.476307  0  0.07387  0.000109  0  4.042805  0
C  C33  1  0.95112100  0.26557899  0.61224901  1  1.554064  0  0.209883  0.522405  0  4.257542  0
C  C34  1  0.62144931  0.85208343  0.58011061  1  0.47553  0  0.053746  0.103428  0  3.917405  0
C  C35  1  0.62263161  0.94752532  0.54205608  1  -0.027229  0  -0.069333  -0.146231  0  3.881004  0
C  C36  1  0.39187119  0.76407415  0.58079328  1  0.430984  0  0.042969  0.079756  0  3.978697  0
C  C37  1  0.38458634  0.85629401  0.54310955  1  -0.009541  0  -0.074859  -0.158274  0  3.914032  0
C  C38  1  0.50198141  0.95074904  0.52138136  1  0.029717  0  0.019162  0.109042  0  3.937401  0
C  C39  1  0.68379278  0.45575988  0.71575004  1  0.967992  0  0.138874  0.181942  0  3.969461  0
C  C40  1  0.79028848  0.58516602  0.87899263  1  0.446074  0  0.070839  -0.005116  0  4.046326  0
C  C41  1  0.88396020  0.63854303  0.98253713  1  1.532737  0  0.210165  0.530357  0  4.249834  0
C  C42  1  0.70711937  0.62532043  0.83967259  1  0.492575  0  0.074059  0.001413  0  4.040152  0
C  C43  1  0.68557929  0.73437268  0.88792840  1  1.528055  0  0.208716  0.519122  0  4.260493  0
C  C44  1  0.23050786  0.85145078  0.07950233  1  0.422411  0  0.053963  0.103124  0  3.919256  0
C  C45  1  0.32477148  0.94707586  0.04163939  1  0.031015  0  -0.069027  -0.145905  0  3.883059  0
C  C46  1  0.37251534  0.76402049  0.08075630  1  0.520388  0  0.043254  0.07924  0  3.97801  0
C  C47  1  0.47197467  0.85636132  0.04313344  1  -0.041356  0  -0.07494  -0.157068  0  3.911668  0
C  C48  1  0.44884123  0.95064363  0.02128525  1  -0.032061  0  0.01927  0.109018  0  3.938424  0
C  C49  1  0.77183938  0.45586922  0.21564375  1  0.98177  0  0.138831  0.182105  0  3.967752  0
C  C50  1  0.79492815  0.58518843  0.37900417  1  0.411735  0  0.071077  -0.004216  0  4.046064  0
C  C51  1  0.75453968  0.63849244  0.48253472  1  1.55355  0  0.210081  0.531653  0  4.24816  0
C  C52  1  0.91824276  0.62533941  0.33965349  1  0.47797  0  0.07406  0.000202  0  4.042538  0
C  C53  1  0.04885040  0.73440698  0.38772609  1  1.553972  0  0.209785  0.522448  0  4.256864  0
C  C54  1  0.37872015  0.14808976  0.42015753  1  0.472519  0  0.054003  0.104036  0  3.917968  0
C  C55  1  0.37759089  0.05267772  0.45820603  1  -0.027613  0  -0.06937  -0.146829  0  3.883152  0
C  C56  1  0.60821310  0.23586629  0.41904907  1  0.425684  0  0.042825  0.079409  0  3.978897  0
C  C57  1  0.61553519  0.14364467  0.45671239  1  -0.007176  0  -0.074696  -0.158451  0  3.91423  0
C  C58  1  0.49820041  0.04932105  0.47865167  1  -0.013294  0  0.019246  0.109629  0  3.938141  0
C  C59  1  0.31614454  0.54421464  0.28422034  1  0.969152  0  0.139076  0.182804  0  3.969657  0
C  C60  1  0.20966855  0.41480897  0.12099392  1  0.468545  0  0.07083  -0.005061  0  4.045872  0
C  C61  1  0.11598412  0.36139944  0.01742442  1  1.531072  0  0.21049  0.530785  0  4.248347  0
C  C62  1  0.29283593  0.37464757  0.16031818  1  0.470038  0  0.073993  0.001282  0  4.039835  0
C  C63  1  0.31439633  0.26559875  0.11207030  1  1.527507  0  0.208661  0.519216  0  4.260706  0
N  N64  1  0.74678295  0.23959964  0.90223936  1  -1.23263  0  -0.331053  -0.232931  0  3.538261  0
N  N65  1  0.09782864  0.45712650  0.76306965  1  -1.215108  0  -0.354844  -0.313451  0  3.500457  0
N  N66  1  0.29626510  0.52155617  0.70009576  1  -1.21788  0  -0.353141  -0.329685  0  3.494022  0
N  N67  1  0.50773471  0.76080591  0.59812971  1  -1.236081  0  -0.330539  -0.232753  0  3.537889  0
N  N68  1  0.64057235  0.54276916  0.73697899  1  -1.207527  0  -0.354696  -0.313318  0  3.50107  0
N  N69  1  0.77462081  0.47833424  0.79989054  1  -1.210706  0  -0.353757  -0.328702  0  3.494858  0
N  N70  1  0.25316828  0.76040274  0.09775509  1  -1.233214  0  -0.331373  -0.233146  0  3.539228  0
N  N71  1  0.90212498  0.54282573  0.23690912  1  -1.214611  0  -0.354797  -0.313149  0  3.499952  0
N  N72  1  0.70366807  0.47841360  0.29987287  1  -1.21684  0  -0.353349  -0.329793  0  3.494134  0
N  N73  1  0.49236119  0.23925188  0.40193133  1  -1.229328  0  -0.330491  -0.232814  0  3.537031  0
N  N74  1  0.35938603  0.45722272  0.26303263  1  -1.206782  0  -0.354778  -0.313691  0  3.500659  0
N  N75  1  0.22532154  0.52165036  0.20008989  1  -1.211636  0  -0.353922  -0.328947  0  3.494427  0
O  O76  1  0.85279914  0.24608996  0.66977809  1  -1.057947  0  -0.28897  -0.481722  0  2.133018  0
O  O77  1  0.93294647  0.19108081  0.51532594  1  -0.955311  0  -0.216441  -0.354795  0  1.948185  0
O  O78  1  0.16314218  0.26460580  0.44296497  1  -0.966562  0  -0.220964  -0.36533  0  1.973068  0
O  O79  1  0.37136968  0.41884963  0.50639584  1  -1.116101  0  -0.308926  -0.521531  0  2.323379  0
O  O80  1  0.60676221  0.75394370  0.83046809  1  -1.068158  0  -0.288599  -0.480744  0  2.134009  0
O  O81  1  0.74187993  0.80867037  0.98495387  1  -0.953036  0  -0.21549  -0.352827  0  1.949488  0
O  O82  1  0.89840755  0.73543415  0.05699314  1  -0.962197  0  -0.220492  -0.364187  0  1.97382  0
O  O83  1  0.95262868  0.58129166  0.99365334  1  -1.109735  0  -0.308684  -0.520778  0  2.324696  0
O  O84  1  0.14714631  0.75385473  0.33015580  1  -1.057654  0  -0.288951  -0.481763  0  2.133214  0
O  O85  1  0.06702851  0.80891410  0.48464614  1  -0.955239  0  -0.216548  -0.354851  0  1.947984  0
O  O86  1  0.83684913  0.73542173  0.55702249  1  -0.966219  0  -0.220922  -0.365362  0  1.973276  0
O  O87  1  0.62860174  0.58113466  0.49362391  1  -1.116289  0  -0.308961  -0.521543  0  2.323652  0
O  O88  1  0.39319536  0.24603065  0.16955367  1  -1.067713  0  -0.288594  -0.48077  0  2.133836  0
O  O89  1  0.25811646  0.19133368  0.01502808  1  -0.953177  0  -0.215364  -0.352778  0  1.949806  0
O  O90  1  0.10155769  0.26449878  0.94297535  1  -0.96103  0  -0.22067  -0.364324  0  1.97284  0
O  O91  1  0.04734166  0.41868162  0.00635617  1  -1.109729  0  -0.308826  -0.52122  0  2.324318  0
