# generated using pymatgen
data_Zn4H12C24S4N4O13
_symmetry_space_group_name_H-M   'P 1'
_cell_length_a   19.73665930
_cell_length_b   19.75455783
_cell_length_c   33.57609113
_cell_angle_alpha   78.48127265
_cell_angle_beta   78.54478742
_cell_angle_gamma   63.53076817
_symmetry_Int_Tables_number   1
_chemical_formula_structural   Zn4H12C24S4N4O13
_chemical_formula_sum   'Zn16 H48 C96 S16 N16 O52'
_cell_volume   11392.66786627
_cell_formula_units_Z   4
loop_
 _symmetry_equiv_pos_site_id
 _symmetry_equiv_pos_as_xyz
  1  'x, y, z'
loop_
 _atom_site_type_symbol
 _atom_site_label
 _atom_site_symmetry_multiplicity
 _atom_site_fract_x
 _atom_site_fract_y
 _atom_site_fract_z
 _atom_site_occupancy
 _atom_site_pbe_bader_charge
 _atom_site_pbe_bader_spin_density
 _atom_site_pbe_cm5_charge
 _atom_site_pbe_ddec_charge
 _atom_site_pbe_ddec_spin_density
 _atom_site_pbe_ddec_sum_bond_order
 _atom_site_pbe_magmom
Zn  Zn0  1  0.05405186  0.40164316  0.47860372  1  1.315499  0  0.672524  0.962461  0  2.377963  0
Zn  Zn1  1  0.98432141  0.48300539  0.55994542  1  1.315379  0  0.671741  0.955576  0  2.383356  0
Zn  Zn2  1  0.05934489  0.56047934  0.48362171  1  1.317616  0  0.672645  0.959798  0  2.379056  0
Zn  Zn3  1  0.90221419  0.55464232  0.47789476  1  1.318378  0  0.672488  0.959604  0  2.379688  0
Zn  Zn4  1  0.69516506  0.34770121  0.27216732  1  1.318625  0  0.672759  0.962816  0  2.377407  0
Zn  Zn5  1  0.68937811  0.19066628  0.26634116  1  1.316612  0  0.67258  0.959826  0  2.378489  0
Zn  Zn6  1  0.76687480  0.26560280  0.19011842  1  1.317846  0  0.67175  0.95852  0  2.381332  0
Zn  Zn7  1  0.84827625  0.19625152  0.27151952  1  1.31419  0  0.672002  0.956036  0  2.383567  0
Zn  Zn8  1  0.26671444  0.76568234  0.69012669  1  1.316874  0  0.671794  0.955717  0  2.384434  0
Zn  Zn9  1  0.34835332  0.69624457  0.77144220  1  1.314356  0  0.672365  0.959575  0  2.379174  0
Zn  Zn10  1  0.19514842  0.84768247  0.77218843  1  1.319123  0  0.672696  0.96282  0  2.377638  0
Zn  Zn11  1  0.18935392  0.69066401  0.76636932  1  1.316051  0  0.672304  0.959522  0  2.378569  0
Zn  Zn12  1  0.55930767  0.06049565  0.98367323  1  1.31722  0  0.672681  0.959839  0  2.37866  0
Zn  Zn13  1  0.40226286  0.05461297  0.97788587  1  1.318468  0  0.672186  0.956791  0  2.382157  0
Zn  Zn14  1  0.55404404  0.90162455  0.97862824  1  1.315056  0  0.672626  0.962495  0  2.377618  0
Zn  Zn15  1  0.48433159  0.98296326  0.05998797  1  1.315153  0  0.672071  0.958883  0  2.379843  0
H  H16  1  0.28484205  0.51080464  0.40898575  1  0.118429  0  0.120083  0.145521  0  0.971127  0
H  H17  1  0.46420112  0.23927771  0.34155506  1  0.136807  0  0.120965  0.147122  0  0.969878  0
H  H18  1  0.77198707  0.54642437  0.64794387  1  0.115868  0  0.119802  0.145416  0  0.971262  0
H  H19  1  0.47882252  0.70353582  0.60160255  1  0.115006  0  0.120855  0.147122  0  0.970213  0
H  H20  1  0.04659867  0.27069920  0.64848393  1  0.118668  0  0.120807  0.146722  0  0.971745  0
H  H21  1  0.20375364  0.97807576  0.60202905  1  0.116262  0  0.120144  0.145867  0  0.97139  0
H  H22  1  0.80049924  0.78030380  0.40281009  1  0.117027  0  0.121088  0.147225  0  0.969109  0
H  H23  1  0.94907540  0.97115828  0.34711547  1  0.116003  0  0.119895  0.14565  0  0.971303  0
H  H24  1  0.70397023  0.47798681  0.10203315  1  0.114042  0  0.120287  0.146099  0  0.970754  0
H  H25  1  0.54646858  0.77065972  0.14842827  1  0.120646  0  0.121298  0.147424  0  0.971222  0
H  H26  1  0.08662954  0.10768452  0.20968652  1  0.134282  0  0.120699  0.14691  0  0.969909  0
H  H27  1  0.16432594  0.14098231  0.04003504  1  0.125134  0  0.120163  0.146301  0  0.97131  0
H  H28  1  0.44915986  0.47111291  0.84701294  1  0.121801  0  0.120374  0.14631  0  0.970159  0
H  H29  1  0.30051765  0.28033325  0.90272949  1  0.125256  0  0.120501  0.146364  0  0.970302  0
H  H30  1  0.96416752  0.73931235  0.84157144  1  0.136909  0  0.120952  0.146975  0  0.969885  0
H  H31  1  0.78479606  0.01085900  0.90898782  1  0.118739  0  0.120334  0.145973  0  0.971357  0
H  H32  1  0.79751501  0.53463478  0.42156682  1  0.487652  0  0.290792  0.301187  0  1.00368  0
H  H33  1  0.72386901  0.52827772  0.40496066  1  0.41806  0  0.294828  0.28156  0  0.971681  0
H  H34  1  0.94696618  0.21036389  0.33382403  1  0.472227  0  0.289707  0.299319  0  1.007386  0
H  H35  1  0.99717161  0.19311306  0.37389868  1  0.432998  0  0.293979  0.280556  0  0.972734  0
H  H36  1  0.71498050  0.45253106  0.32855701  1  0.485889  0  0.291747  0.302596  0  1.001579  0
H  H37  1  0.72133786  0.52627132  0.34498377  1  0.415927  0  0.295333  0.281881  0  0.971288  0
H  H38  1  0.04011707  0.30287303  0.41631917  1  0.475996  0  0.291105  0.302441  0  1.001717  0
H  H39  1  0.05735288  0.25293799  0.37620793  1  0.433084  0  0.294792  0.281775  0  0.970996  0
H  H40  1  0.14540019  0.63566370  0.52183247  1  0.47091  0  0.291093  0.302067  0  1.0037  0
H  H41  1  0.21416851  0.65718754  0.53322655  1  0.427049  0  0.29467  0.281691  0  0.97266  0
H  H42  1  0.11496706  0.60388588  0.72810540  1  0.470165  0  0.290727  0.301311  0  1.003852  0
H  H43  1  0.09359564  0.53517171  0.71666917  1  0.428285  0  0.294766  0.281586  0  0.971646  0
H  H44  1  0.22272641  0.73343601  0.60960946  1  0.488196  0  0.290587  0.300748  0  1.004371  0
H  H45  1  0.18763376  0.74570779  0.56449198  1  0.447292  0  0.294397  0.280359  0  0.971972  0
H  H46  1  0.01642619  0.52732679  0.64033797  1  0.484402  0  0.290607  0.301017  0  1.004054  0
H  H47  1  0.00459877  0.56192832  0.68553084  1  0.422281  0  0.294377  0.280341  0  0.973472  0
H  H48  1  0.72322230  0.23307441  0.10958581  1  0.478092  0  0.290945  0.30128  0  1.0029  0
H  H49  1  0.68807223  0.24546013  0.06446258  1  0.421096  0  0.294705  0.280605  0  0.972635  0
H  H50  1  0.51618138  0.02753974  0.14036181  1  0.490639  0  0.290892  0.301441  0  1.003253  0
H  H51  1  0.50429773  0.06223023  0.18550334  1  0.448887  0  0.29464  0.280947  0  0.971883  0
H  H52  1  0.64538276  0.13572310  0.02183860  1  0.470635  0  0.291037  0.301731  0  1.004143  0
H  H53  1  0.71427776  0.15703154  0.03324742  1  0.427487  0  0.294506  0.281504  0  0.972222  0
H  H54  1  0.61498885  0.10383074  0.22811669  1  0.470015  0  0.290748  0.301182  0  1.003949  0
H  H55  1  0.59329176  0.03534471  0.21665193  1  0.429945  0  0.294671  0.281456  0  0.971496  0
H  H56  1  0.21503203  0.95245703  0.82850730  1  0.484827  0  0.291521  0.302402  0  1.001538  0
H  H57  1  0.22145566  0.02622954  0.84484704  1  0.415006  0  0.295043  0.281474  0  0.971949  0
H  H58  1  0.54011864  0.80285764  0.91631608  1  0.475976  0  0.291284  0.302602  0  1.001502  0
H  H59  1  0.55739725  0.75291146  0.87619625  1  0.433261  0  0.295102  0.281802  0  0.970662  0
H  H60  1  0.29760049  0.03458672  0.92147640  1  0.487899  0  0.290064  0.299835  0  1.006923  0
H  H61  1  0.22392544  0.02823671  0.90487031  1  0.418007  0  0.294151  0.280612  0  0.972975  0
H  H62  1  0.44729775  0.71042127  0.83358785  1  0.475512  0  0.290751  0.300744  0  1.005301  0
H  H63  1  0.49744154  0.69309070  0.87372058  1  0.434229  0  0.294657  0.28103  0  0.97212  0
C  C64  1  0.06126800  0.31592883  0.56186310  1  1.569153  0  0.218091  0.61058  0  4.217385  0
C  C65  1  0.06983844  0.56982981  0.56971107  1  1.45885  0  0.222939  0.622672  0  4.115358  0
C  C66  1  0.18313875  0.43931245  0.43882213  1  1.554015  0  0.217738  0.613261  0  4.212018  0
C  C67  1  0.93804206  0.68434444  0.43853524  1  1.547327  0  0.217442  0.609019  0  4.216448  0
C  C68  1  0.93018262  0.43020626  0.43027506  1  1.482  0  0.223292  0.624089  0  4.110606  0
C  C69  1  0.81685940  0.56086098  0.56132395  1  1.547259  0  0.217794  0.613335  0  4.21287  0
C  C70  1  0.56563650  0.31105178  0.31152996  1  1.571072  0  0.218561  0.612674  0  4.212553  0
C  C71  1  0.68028649  0.17992404  0.18025953  1  1.459511  0  0.223552  0.623913  0  4.113927  0
C  C72  1  0.68923948  0.43285355  0.18865838  1  1.544312  0  0.218314  0.612671  0  4.213416  0
C  C73  1  0.93444330  0.18839026  0.18867967  1  1.532253  0  0.218327  0.611923  0  4.216827  0
C  C74  1  0.81978803  0.32007385  0.31974647  1  1.478325  0  0.223493  0.623807  0  4.112898  0
C  C75  1  0.81168872  0.06683389  0.31113858  1  1.567127  0  0.217838  0.612853  0  4.212967  0
C  C76  1  0.43400540  0.68884009  0.68823843  1  1.570566  0  0.217752  0.610174  0  4.217418  0
C  C77  1  0.31986685  0.82003398  0.81968216  1  1.475878  0  0.223113  0.623286  0  4.114291  0
C  C78  1  0.18919906  0.93288979  0.68864264  1  1.545827  0  0.217987  0.612334  0  4.214732  0
C  C79  1  0.06559081  0.81108533  0.81152940  1  1.570165  0  0.218556  0.612979  0  4.213472  0
C  C80  1  0.18017467  0.68001554  0.68024467  1  1.458012  0  0.22345  0.623205  0  4.113998  0
C  C81  1  0.31172219  0.56681038  0.81105128  1  1.567951  0  0.217824  0.612468  0  4.212995  0
C  C82  1  0.43800711  0.18435105  0.93850931  1  1.54889  0  0.218301  0.610671  0  4.215204  0
C  C83  1  0.43017499  0.93019590  0.93024807  1  1.48158  0  0.223533  0.624768  0  4.110857  0
C  C84  1  0.68308306  0.93935870  0.93882299  1  1.553655  0  0.217814  0.61353  0  4.211508  0
C  C85  1  0.56139458  0.81584679  0.06181577  1  1.570357  0  0.218557  0.610812  0  4.216369  0
C  C86  1  0.56972964  0.06997520  0.06970884  1  1.459647  0  0.222956  0.622696  0  4.11492  0
C  C87  1  0.31656717  0.06093966  0.06103127  1  1.544594  0  0.217701  0.613215  0  4.213064  0
C  C88  1  0.90227968  0.40237982  0.40222702  1  -0.002492  0  -0.039522  -0.249205  0  3.94918  0
C  C89  1  0.84779292  0.34805263  0.34765562  1  -0.003514  0  -0.040218  -0.250461  0  3.948883  0
C  C90  1  0.82902015  0.44735521  0.38868167  1  0.452207  0  0.078624  0.173541  0  4.051707  0
C  C91  1  0.92042882  0.30245711  0.36184018  1  0.43799  0  0.078055  0.172569  0  4.054201  0
C  C92  1  0.80281366  0.42124717  0.36115200  1  0.463072  0  0.0791  0.175379  0  4.051734  0
C  C93  1  0.94792129  0.32984057  0.38806830  1  0.438352  0  0.07873  0.173722  0  4.054414  0
C  C94  1  0.09778187  0.59775884  0.59769905  1  0.018841  0  -0.03977  -0.249226  0  3.948406  0
C  C95  1  0.15230761  0.65205490  0.65225827  1  0.021135  0  -0.039641  -0.248834  0  3.948621  0
C  C96  1  0.14177555  0.64055468  0.58200033  1  0.449509  0  0.079031  0.174498  0  4.051662  0
C  C97  1  0.10959475  0.60798435  0.66795648  1  0.445985  0  0.078708  0.173748  0  4.052484  0
C  C98  1  0.16736081  0.66857476  0.60887048  1  0.401788  0  0.078277  0.173577  0  4.051891  0
C  C99  1  0.08142433  0.58255973  0.64108393  1  0.406287  0  0.078437  0.173974  0  4.052204  0
C  C100  1  0.30258503  0.45399844  0.40115261  1  0.041542  0  -0.089295  -0.135923  0  3.973664  0
C  C101  1  0.44632532  0.29615002  0.34932978  1  -0.012226  0  -0.088087  -0.135166  0  3.971757  0
C  C102  1  0.25804843  0.41394562  0.41378929  1  -0.15909  0  -0.025449  -0.119884  0  3.991826  0
C  C103  1  0.49070764  0.33634485  0.33658331  1  -0.115383  0  -0.0244  -0.118141  0  3.987177  0
C  C104  1  0.37770803  0.33897322  0.37273218  1  -0.160319  0  -0.021538  -0.007564  0  4.068522  0
C  C105  1  0.37102237  0.41133516  0.37758528  1  -0.17919  0  -0.021153  -0.007188  0  4.069011  0
C  C106  1  0.72681467  0.57566121  0.62837422  1  -0.006905  0  -0.089314  -0.136384  0  3.974431  0
C  C107  1  0.52400815  0.67407135  0.62116252  1  -0.0549  0  -0.08863  -0.137358  0  3.972567  0
C  C108  1  0.74165983  0.58599138  0.58608104  1  -0.076775  0  -0.025396  -0.118951  0  3.990754  0
C  C109  1  0.50918737  0.66355108  0.66344981  1  -0.083945  0  -0.024512  -0.116286  0  3.987188  0
C  C110  1  0.60318312  0.64191036  0.60832590  1  -0.12531  0  -0.021715  -0.006872  0  4.069214  0
C  C111  1  0.64762127  0.60745323  0.64119994  1  -0.167679  0  -0.021766  -0.008157  0  4.070449  0
C  C112  1  0.07600816  0.22567570  0.62890302  1  0.01721  0  -0.08909  -0.13745  0  3.974153  0
C  C113  1  0.17445225  0.02311608  0.62160727  1  -0.007354  0  -0.08932  -0.136835  0  3.975481  0
C  C114  1  0.08654160  0.24068350  0.58661917  1  -0.161032  0  -0.024639  -0.117115  0  3.988054  0
C  C115  1  0.16412247  0.00809894  0.66389360  1  -0.074016  0  -0.025723  -0.118581  0  3.990699  0
C  C116  1  0.14263995  0.10227886  0.60880146  1  -0.174058  0  -0.02198  -0.009082  0  4.070695  0
C  C117  1  0.10816180  0.14651752  0.64170275  1  -0.120692  0  -0.021017  -0.005755  0  4.067241  0
C  C118  1  0.84467275  0.80081521  0.39780895  1  0.065663  0  -0.088282  -0.135658  0  3.968322  0
C  C119  1  0.90500882  0.95051899  0.35202040  1  0.028918  0  -0.089013  -0.136952  0  3.974081  0
C  C120  1  0.91345082  0.75941235  0.41362141  1  -0.184102  0  -0.024801  -0.116807  0  3.988268  0
C  C121  1  0.83634890  0.99178676  0.33607733  1  -0.127117  0  -0.025541  -0.119083  0  3.989735  0
C  C122  1  0.90828099  0.88086014  0.37438944  1  -0.173876  0  -0.021613  -0.00673  0  4.067847  0
C  C123  1  0.84160997  0.87026935  0.37526821  1  -0.17588  0  -0.021401  -0.007667  0  4.068674  0
C  C124  1  0.65235074  0.15204746  0.15227198  1  0.019996  0  -0.039997  -0.249776  0  3.949374  0
C  C125  1  0.59767825  0.09789173  0.09769734  1  0.019086  0  -0.039568  -0.248336  0  3.947716  0
C  C126  1  0.66743197  0.16854322  0.10888138  1  0.403608  0  0.078939  0.174504  0  4.051619  0
C  C127  1  0.58127502  0.08271845  0.14108650  1  0.40521  0  0.07789  0.17346  0  4.053506  0
C  C128  1  0.64175586  0.14060779  0.08200772  1  0.449276  0  0.078619  0.173742  0  4.050674  0
C  C129  1  0.60953004  0.10806316  0.16796006  1  0.449364  0  0.078957  0.174124  0  4.052  0
C  C130  1  0.67455272  0.52304482  0.12160215  1  -0.004307  0  -0.088571  -0.135607  0  3.973826  0
C  C131  1  0.57598034  0.72562648  0.12886267  1  0.019335  0  -0.08896  -0.136815  0  3.971993  0
C  C132  1  0.66414039  0.50804331  0.16388789  1  -0.073944  0  -0.025845  -0.119204  0  3.990094  0
C  C133  1  0.58662826  0.74061095  0.08657612  1  -0.163333  0  -0.024323  -0.116898  0  3.987138  0
C  C134  1  0.60813675  0.64646285  0.14167163  1  -0.120629  0  -0.020858  -0.005789  0  4.066745  0
C  C135  1  0.64271554  0.60220590  0.10878322  1  -0.175384  0  -0.022269  -0.00965  0  4.070801  0
C  C136  1  0.08001835  0.12412587  0.17730906  1  0.0698  0  -0.088543  -0.13616  0  3.970784  0
C  C137  1  0.17096875  0.12448441  0.07240964  1  0.011301  0  -0.089499  -0.137194  0  3.974537  0
C  C138  1  0.00922712  0.16329099  0.16350113  1  -0.167582  0  -0.024451  -0.117489  0  3.987353  0
C  C139  1  0.24178389  0.08566000  0.08620868  1  -0.138683  0  -0.025912  -0.119754  0  3.989915  0
C  C140  1  0.11200722  0.13867867  0.10551702  1  -0.155324  0  -0.021448  -0.007831  0  4.069199  0
C  C141  1  0.13897742  0.11006507  0.14420639  1  -0.22993  0  -0.021814  -0.007197  0  4.067867  0
C  C142  1  0.34787352  0.84801162  0.84758379  1  -0.001772  0  -0.039789  -0.24951  0  3.94783  0
C  C143  1  0.40230866  0.90236365  0.90218290  1  0.008316  0  -0.039467  -0.249496  0  3.949402  0
C  C144  1  0.30287936  0.92122008  0.86108505  1  0.461929  0  0.078449  0.174355  0  4.051628  0
C  C145  1  0.44796613  0.82982639  0.88803023  1  0.429162  0  0.078985  0.174148  0  4.05374  0
C  C146  1  0.32907516  0.94732818  0.88860279  1  0.451186  0  0.077818  0.172461  0  4.052362  0
C  C147  1  0.42050131  0.80244062  0.86177039  1  0.436888  0  0.078764  0.173887  0  4.052934  0
C  C148  1  0.40507018  0.45049898  0.85193728  1  0.025319  0  -0.088479  -0.136032  0  3.972513  0
C  C149  1  0.34469910  0.30082099  0.89774233  1  0.078841  0  -0.088608  -0.135969  0  3.970273  0
C  C150  1  0.33641369  0.49177261  0.83598959  1  -0.129005  0  -0.025709  -0.119354  0  3.989405  0
C  C151  1  0.41345938  0.25941241  0.91357231  1  -0.184231  0  -0.024721  -0.117156  0  3.988064  0
C  C152  1  0.34164727  0.37026603  0.87519274  1  -0.1996  0  -0.021144  -0.007008  0  4.068007  0
C  C153  1  0.40832741  0.38084777  0.87431724  1  -0.174712  0  -0.021544  -0.007179  0  4.067197  0
C  C154  1  0.94628548  0.79619098  0.84934049  1  -0.010682  0  -0.08784  -0.1345  0  3.971359  0
C  C155  1  0.80254462  0.95405056  0.90115856  1  0.054084  0  -0.089256  -0.136177  0  3.973087  0
C  C156  1  0.99066906  0.83638236  0.83658414  1  -0.115871  0  -0.024752  -0.118863  0  3.988249  0
C  C157  1  0.75800916  0.91399882  0.91379469  1  -0.171506  0  -0.025442  -0.119678  0  3.990709  0
C  C158  1  0.87098541  0.91137861  0.87759122  1  -0.179586  0  -0.021468  -0.007168  0  4.068711  0
C  C159  1  0.87767160  0.83901586  0.87274262  1  -0.161158  0  -0.021758  -0.008279  0  4.068995  0
S  S160  1  0.29889060  0.32454923  0.39716722  1  0.268708  0  0.080375  0.118264  0  2.732952  0
S  S161  1  0.44960188  0.42597650  0.35295200  1  0.263849  0  0.083205  0.121373  0  2.730359  0
S  S162  1  0.65984411  0.63419294  0.56173979  1  0.259229  0  0.080241  0.117942  0  2.733407  0
S  S163  1  0.59098903  0.61480033  0.68777927  1  0.260219  0  0.082585  0.120616  0  2.732179  0
S  S164  1  0.13530013  0.15909607  0.56225047  1  0.261969  0  0.083501  0.122198  0  2.732357  0
S  S165  1  0.11587679  0.08970675  0.68827257  1  0.260138  0  0.080544  0.118199  0  2.732244  0
S  S166  1  0.97447486  0.80446371  0.40132964  1  0.279643  0  0.081922  0.119643  0  2.733056  0
S  S167  1  0.77560967  0.94642205  0.34811297  1  0.264502  0  0.080146  0.117931  0  2.735372  0
S  S168  1  0.61579067  0.58967919  0.18824821  1  0.259939  0  0.080557  0.11813  0  2.731831  0
S  S169  1  0.63546807  0.65899571  0.06222739  1  0.261342  0  0.083132  0.121559  0  2.732256  0
S  S170  1  0.01380814  0.18307529  0.11043241  1  0.270306  0  0.082339  0.12078  0  2.731997  0
S  S171  1  0.23720054  0.06620091  0.13928241  1  0.286698  0  0.080012  0.11763  0  2.733964  0
S  S172  1  0.27566303  0.44640433  0.84803197  1  0.263908  0  0.079217  0.116862  0  2.735584  0
S  S173  1  0.47449489  0.30445542  0.90127572  1  0.281644  0  0.082458  0.120505  0  2.732314  0
S  S174  1  0.94956102  0.92602119  0.85295109  1  0.262903  0  0.083243  0.121462  0  2.730279  0
S  S175  1  0.79885187  0.82459540  0.89717842  1  0.268897  0  0.080686  0.118718  0  2.732665  0
N  N176  1  0.77970428  0.51915373  0.39988528  1  -1.249233  0  -0.614137  -0.620702  0  3.335476  0
N  N177  1  0.96984603  0.23073992  0.35053546  1  -1.230089  0  -0.613707  -0.619029  0  3.338833  0
N  N178  1  0.73083773  0.47038485  0.35005394  1  -1.242573  0  -0.613315  -0.619996  0  3.336831  0
N  N179  1  0.01962353  0.28036184  0.39947064  1  -1.22886  0  -0.613301  -0.620632  0  3.335881  0
N  N180  1  0.16044396  0.66006009  0.54046308  1  -1.232494  0  -0.614116  -0.621643  0  3.338068  0
N  N181  1  0.09035126  0.58901555  0.70949812  1  -1.231632  0  -0.614184  -0.621061  0  3.336678  0
N  N182  1  0.20904370  0.71001647  0.58982414  1  -1.245699  0  -0.614559  -0.620256  0  3.336139  0
N  N183  1  0.04004748  0.54081273  0.66011748  1  -1.218878  0  -0.614615  -0.620541  0  3.336919  0
N  N184  1  0.70926583  0.20980989  0.08984643  1  -1.209032  0  -0.613911  -0.619526  0  3.336737  0
N  N185  1  0.53981130  0.04106013  0.16011596  1  -1.251266  0  -0.613655  -0.620143  0  3.33671  0
N  N186  1  0.66048939  0.16006627  0.04046816  1  -1.232719  0  -0.614024  -0.621394  0  3.337464  0
N  N187  1  0.59027686  0.08910416  0.20949811  1  -1.233486  0  -0.614122  -0.620874  0  3.336272  0
N  N188  1  0.23087668  0.97035452  0.84998914  1  -1.240164  0  -0.613584  -0.620063  0  3.336073  0
N  N189  1  0.51964230  0.78036852  0.89944291  1  -1.229  0  -0.612864  -0.619951  0  3.335932  0
N  N190  1  0.27974913  0.01918645  0.89977784  1  -1.249156  0  -0.614596  -0.62051  0  3.337764  0
N  N191  1  0.46994410  0.73079367  0.85043293  1  -1.233422  0  -0.613504  -0.619024  0  3.33862  0
O  O192  1  0.99997184  0.49999147  0.50004827  1  -1.231171  0  -0.572966  -1.023087  0  2.550408  0
O  O193  1  0.07902069  0.31616853  0.52302965  1  -1.172224  0  -0.32033  -0.547436  0  2.335386  0
O  O194  1  0.03536005  0.52644798  0.58488686  1  -1.166212  0  -0.316039  -0.551985  0  2.38041  0
O  O195  1  0.15762561  0.50377379  0.45195268  1  -1.171732  0  -0.31871  -0.542482  0  2.313871  0
O  O196  1  0.02406904  0.37395360  0.58121588  1  -1.17494  0  -0.317394  -0.539029  0  2.312923  0
O  O197  1  0.15044002  0.39413250  0.44518279  1  -1.155941  0  -0.322004  -0.551267  0  2.332499  0
O  O198  1  0.08056849  0.58943739  0.53077266  1  -1.185948  0  -0.31628  -0.551574  0  2.375299  0
O  O199  1  0.00523003  0.65587430  0.44904296  1  -1.17423  0  -0.32049  -0.54811  0  2.335129  0
O  O200  1  0.89027011  0.49841557  0.43986208  1  -1.191354  0  -0.316674  -0.552702  0  2.376733  0
O  O201  1  0.89048786  0.65442386  0.44740169  1  -1.156935  0  -0.316592  -0.537489  0  2.311558  0
O  O202  1  0.99378255  0.38568216  0.44455171  1  -1.183153  0  -0.316287  -0.552095  0  2.375333  0
O  O203  1  0.87506165  0.52886231  0.58080908  1  -1.182753  0  -0.318502  -0.542763  0  2.314185  0
O  O204  1  0.81684306  0.57356841  0.52238556  1  -1.16933  0  -0.322316  -0.552037  0  2.334338  0
O  O205  1  0.74989642  0.25002774  0.25004779  1  -1.231781  0  -0.57279  -1.023072  0  2.551022  0
O  O206  1  0.59562030  0.35871556  0.30257573  1  -1.181297  0  -0.32045  -0.548192  0  2.333583  0
O  O207  1  0.66054310  0.16931512  0.21920190  1  -1.186633  0  -0.317007  -0.552637  0  2.374934  0
O  O208  1  0.72102048  0.37471779  0.16920030  1  -1.183696  0  -0.318553  -0.541836  0  2.312675  0
O  O209  1  0.59388351  0.24418530  0.30099042  1  -1.17238  0  -0.317225  -0.539414  0  2.311993  0
O  O210  1  0.67674634  0.43280349  0.22758632  1  -1.169621  0  -0.322265  -0.551054  0  2.336085  0
O  O211  1  0.72381234  0.21429391  0.16514002  1  -1.166367  0  -0.316332  -0.552431  0  2.377827  0
O  O212  1  0.87613847  0.22564979  0.16929931  1  -1.170256  0  -0.320571  -0.54815  0  2.33427  0
O  O213  1  0.86430882  0.25646024  0.30555681  1  -1.183661  0  -0.316927  -0.55308  0  2.379227  0
O  O214  1  0.93439927  0.17087979  0.22742099  1  -1.145426  0  -0.317313  -0.539684  0  2.314672  0
O  O215  1  0.75145437  0.35978975  0.31020552  1  -1.188857  0  -0.316237  -0.551649  0  2.375046  0
O  O216  1  0.74690649  0.09257534  0.29803849  1  -1.177399  0  -0.322312  -0.552065  0  2.33464  0
O  O217  1  0.85681909  0.09937844  0.30487471  1  -1.172658  0  -0.318821  -0.542192  0  2.312943  0
O  O218  1  0.24985730  0.75004341  0.75002646  1  -1.231773  0  -0.572744  -1.023195  0  2.550702  0
O  O219  1  0.37584871  0.72595662  0.66890521  1  -1.175032  0  -0.317215  -0.538725  0  2.313564  0
O  O220  1  0.36442494  0.75650596  0.80541951  1  -1.183464  0  -0.316321  -0.552624  0  2.378713  0
O  O221  1  0.17673120  0.93278834  0.72757202  1  -1.169135  0  -0.321824  -0.550462  0  2.335321  0
O  O222  1  0.43395295  0.67121598  0.72707828  1  -1.176656  0  -0.32057  -0.548084  0  2.334178  0
O  O223  1  0.22094603  0.87479981  0.66915285  1  -1.185425  0  -0.318811  -0.542684  0  2.314568  0
O  O224  1  0.25147070  0.85969032  0.81021530  1  -1.18945  0  -0.316621  -0.552174  0  2.375543  0
O  O225  1  0.09557249  0.85875910  0.80255582  1  -1.18074  0  -0.32047  -0.548462  0  2.333897  0
O  O226  1  0.16047747  0.66938618  0.71918626  1  -1.185776  0  -0.316333  -0.551742  0  2.374182  0
O  O227  1  0.09385258  0.74420683  0.80099879  1  -1.171517  0  -0.3175  -0.539868  0  2.312783  0
O  O228  1  0.22360076  0.71448248  0.66509743  1  -1.164611  0  -0.316716  -0.552535  0  2.379327  0
O  O229  1  0.35680345  0.59940663  0.80478056  1  -1.172251  0  -0.31845  -0.541581  0  2.311604  0
O  O230  1  0.24692931  0.59250720  0.79795827  1  -1.177334  0  -0.322399  -0.551952  0  2.335191  0
O  O231  1  0.49995265  0.99998656  0.00005330  1  -1.230826  0  -0.572986  -1.023131  0  2.549934  0
O  O232  1  0.50519751  0.15583140  0.94900407  1  -1.17575  0  -0.320866  -0.548572  0  2.334654  0
O  O233  1  0.39019737  0.99839341  0.93986510  1  -1.19094  0  -0.316853  -0.55328  0  2.376813  0
O  O234  1  0.65038344  0.89419251  0.94515481  1  -1.155393  0  -0.322059  -0.551241  0  2.332967  0
O  O235  1  0.39039371  0.15448995  0.94740281  1  -1.157393  0  -0.317309  -0.538988  0  2.311475  0
O  O236  1  0.65757332  0.00380632  0.95196891  1  -1.170937  0  -0.318422  -0.542552  0  2.313273  0
O  O237  1  0.49378219  0.88571792  0.94451338  1  -1.182282  0  -0.316316  -0.552135  0  2.375428  0
O  O238  1  0.57907800  0.81607344  0.02297601  1  -1.174312  0  -0.32061  -0.547689  0  2.334761  0
O  O239  1  0.53529153  0.02654791  0.08486407  1  -1.166363  0  -0.316008  -0.552176  0  2.379355  0
O  O240  1  0.52429515  0.87389280  0.08115807  1  -1.173137  0  -0.317359  -0.538803  0  2.31258  0
O  O241  1  0.58043679  0.08962293  0.03076462  1  -1.186612  0  -0.316388  -0.55169  0  2.375587  0
O  O242  1  0.31647334  0.07379606  0.02219119  1  -1.144058  0  -0.318845  -0.543056  0  2.314098  0
O  O243  1  0.37496005  0.02869627  0.08052222  1  -1.174748  0  -0.321719  -0.551156  0  2.334972  0
