# generated using pymatgen
data_AlH5C8O7
_symmetry_space_group_name_H-M   'P 1'
_cell_length_a   6.60892349
_cell_length_b   8.54277250
_cell_length_c   10.99786462
_cell_angle_alpha   74.48387383
_cell_angle_beta   74.26454952
_cell_angle_gamma   76.56038161
_symmetry_Int_Tables_number   1
_chemical_formula_structural   AlH5C8O7
_chemical_formula_sum   'Al2 H10 C16 O14'
_cell_volume   567.25176190
_cell_formula_units_Z   2
loop_
 _symmetry_equiv_pos_site_id
 _symmetry_equiv_pos_as_xyz
  1  'x, y, z'
loop_
 _atom_site_type_symbol
 _atom_site_label
 _atom_site_symmetry_multiplicity
 _atom_site_fract_x
 _atom_site_fract_y
 _atom_site_fract_z
 _atom_site_occupancy
 _atom_site_pbe_bader_charge
 _atom_site_pbe_bader_spin_density
 _atom_site_pbe_cm5_charge
 _atom_site_pbe_ddec_charge
 _atom_site_pbe_ddec_spin_density
 _atom_site_pbe_ddec_sum_bond_order
 _atom_site_pbe_magmom
Al  Al0  1  0.48552688  0.53065296  0.48786042  1  2.503449  0  0.396584  1.637728  0  2.581489  0
Al  Al1  1  0.98550225  0.52792094  0.49044756  1  2.502505  0  0.398965  1.640222  0  2.579334  0
H  H2  1  0.78436320  0.64317706  0.32634294  1  0.646924  0  0.356039  0.435073  0  0.849896  0
H  H3  1  0.20133442  0.41703678  0.65224098  1  0.619378  0  0.350283  0.427998  0  0.862439  0
H  H4  1  0.76734234  0.99972927  0.47890753  1  0.131174  0  0.125263  0.148477  0  0.967018  0
H  H5  1  0.19539292  0.05631298  0.50925812  1  0.117993  0  0.125709  0.150968  0  0.964635  0
H  H6  1  0.16890476  0.26229822  0.25474267  1  0.069139  0  0.098889  0.117583  0  1.060998  0
H  H7  1  0.46295776  0.25012045  0.79213228  1  0.049075  0  0.102353  0.118226  0  1.041306  0
H  H8  1  0.84270634  0.67296871  0.76352422  1  0.657304  0  0.313472  0.351023  0  0.960977  0
H  H9  1  0.57858436  0.68733667  0.18639584  1  0.619594  0  0.316869  0.347966  0  0.971142  0
H  H10  1  0.02874708  0.03706046  0.26460456  1  0.603215  0  0.31016  0.332988  0  0.952681  0
H  H11  1  0.30777623  0.02468283  0.83722781  1  0.614892  0  0.337456  0.361591  0  0.871736  0
C  C12  1  0.33041511  0.51725023  0.26279704  1  1.507302  0  0.273031  0.670733  0  4.025141  0
C  C13  1  0.16005492  0.81830261  0.48058942  1  1.594661  0  0.261947  0.662081  0  4.119099  0
C  C14  1  0.64162627  0.51546679  0.71996915  1  1.505661  0  0.270089  0.666654  0  4.05266  0
C  C15  1  0.80625739  0.23869189  0.50382166  1  1.55839  0  0.259701  0.663324  0  4.12048  0
C  C16  1  0.88062685  0.06456993  0.49287881  1  -0.051145  0  -0.065278  -0.179598  0  3.866134  0
C  C17  1  0.08310377  0.99102291  0.49494997  1  -0.048295  0  -0.061998  -0.170472  0  3.858728  0
C  C18  1  0.41774533  0.49943818  0.12800894  1  0.036022  0  -0.03038  -0.231951  0  3.932862  0
C  C19  1  0.35760620  0.38325781  0.07535189  1  0.020677  0  -0.011408  0.086421  0  3.999458  0
C  C20  1  0.56762615  0.59918306  0.05049059  1  0.570821  0  0.094918  0.219485  0  4.030572  0
C  C21  1  0.23235205  0.26307126  0.15252150  1  0.080501  0  -0.123967  -0.291963  0  4.013702  0
C  C22  1  0.19063887  0.14394938  0.10301171  1  0.409094  0  0.070723  0.220261  0  4.087232  0
C  C23  1  0.57740910  0.49576387  0.86129714  1  0.004432  0  -0.035178  -0.237099  0  3.972892  0
C  C24  1  0.64861136  0.59662177  0.91657597  1  0.556256  0  0.088698  0.210934  0  4.04706  0
C  C25  1  0.43961855  0.38103812  0.94096501  1  0.016298  0  -0.010898  0.084965  0  4.006471  0
C  C26  1  0.39507383  0.25761842  0.89277043  1  -0.012461  0  -0.123806  -0.295645  0  4.03241  0
C  C27  1  0.27479279  0.14054871  0.97041468  1  0.563934  0  0.07142  0.219585  0  4.108222  0
O  O28  1  0.44741298  0.57138357  0.31536009  1  -1.276101  0  -0.243048  -0.632096  0  2.390488  0
O  O29  1  0.03488879  0.74969513  0.44980017  1  -1.261398  0  -0.236752  -0.605142  0  2.365392  0
O  O30  1  0.82225727  0.56323931  0.65989713  1  -1.260449  0  -0.238673  -0.609792  0  2.340909  0
O  O31  1  0.62462905  0.30628671  0.47852904  1  -1.236581  0  -0.23284  -0.574926  0  2.28174  0
O  O32  1  0.51706046  0.48907404  0.66042641  1  -1.273658  0  -0.231053  -0.592757  0  2.409887  0
O  O33  1  0.92958747  0.30709969  0.53630835  1  -1.265611  0  -0.238157  -0.601412  0  2.34976  0
O  O34  1  0.14652252  0.48546794  0.32426243  1  -1.254546  0  -0.225021  -0.567719  0  2.332367  0
O  O35  1  0.34534783  0.75283753  0.50046265  1  -1.240294  0  -0.233058  -0.570806  0  2.280306  0
O  O36  1  0.74565439  0.60526536  0.41961392  1  -1.447808  0  -0.445654  -0.987335  0  2.176568  0
O  O37  1  0.22727503  0.45273890  0.55867182  1  -1.422474  0  -0.45053  -0.991765  0  2.196775  0
O  O38  1  0.78672799  0.70061653  0.85004109  1  -1.149033  0  -0.346204  -0.409213  0  2.281745  0
O  O39  1  0.63982909  0.70648911  0.09152261  1  -1.113058  0  -0.339712  -0.398219  0  2.286185  0
O  O40  1  0.07505608  0.02381714  0.17525369  1  -1.125082  0  -0.353175  -0.411999  0  2.279659  0
O  O41  1  0.23313188  0.01778365  0.92750831  1  -1.120696  0  -0.345778  -0.414377  0  2.261631  0
