# generated using pymatgen
data_Zn3H21C27N3O10
_symmetry_space_group_name_H-M   'P 1'
_cell_length_a   9.19142385
_cell_length_b   18.71480683
_cell_length_c   20.03060835
_cell_angle_alpha   90.00093776
_cell_angle_beta   90.00045690
_cell_angle_gamma   89.99966563
_symmetry_Int_Tables_number   1
_chemical_formula_structural   Zn3H21C27N3O10
_chemical_formula_sum   'Zn12 H84 C108 N12 O40'
_cell_volume   3445.57955290
_cell_formula_units_Z   4
loop_
 _symmetry_equiv_pos_site_id
 _symmetry_equiv_pos_as_xyz
  1  'x, y, z'
loop_
 _atom_site_type_symbol
 _atom_site_label
 _atom_site_symmetry_multiplicity
 _atom_site_fract_x
 _atom_site_fract_y
 _atom_site_fract_z
 _atom_site_occupancy
 _atom_site_pbe_bader_charge
 _atom_site_pbe_bader_spin_density
 _atom_site_pbe_cm5_charge
 _atom_site_pbe_ddec_charge
 _atom_site_pbe_ddec_spin_density
 _atom_site_pbe_ddec_sum_bond_order
 _atom_site_pbe_magmom
Zn  Zn0  1  0.73545264  0.36370908  0.33414574  1  1.280567  0  0.673665  0.88192  0  2.366259  0
Zn  Zn1  1  0.43930687  0.27250619  0.38063286  1  1.296004  0  0.680806  1.016266  0  2.14981  0
Zn  Zn2  1  0.64509692  0.67821139  0.07630608  1  1.280456  0  0.673597  0.88539  0  2.357526  0
Zn  Zn3  1  0.73544738  0.63629028  0.66585567  1  1.280482  0  0.673748  0.881965  0  2.366448  0
Zn  Zn4  1  0.43930516  0.72749349  0.61936347  1  1.296059  0  0.680801  1.016276  0  2.149864  0
Zn  Zn5  1  0.64510313  0.32178983  0.92369300  1  1.280766  0  0.673541  0.885207  0  2.357439  0
Zn  Zn6  1  0.23544734  0.86371562  0.16585220  1  1.280769  0  0.673705  0.88187  0  2.366433  0
Zn  Zn7  1  0.93930578  0.77250513  0.11936294  1  1.295757  0  0.680814  1.016314  0  2.149754  0
Zn  Zn8  1  0.14508896  0.17821962  0.42369170  1  1.280663  0  0.673612  0.885394  0  2.357534  0
Zn  Zn9  1  0.23546289  0.13628732  0.83415087  1  1.280632  0  0.673569  0.881702  0  2.366581  0
Zn  Zn10  1  0.93932324  0.22749845  0.88063022  1  1.295603  0  0.680768  1.016231  0  2.150038  0
Zn  Zn11  1  0.14509627  0.82178892  0.57629906  1  1.28052  0  0.673562  0.885291  0  2.357494  0
H  H12  1  0.69624426  0.23531531  0.36113339  1  0.650416  0  0.274021  0.391552  0  0.953195  0
H  H13  1  0.17890211  0.30681217  0.39760816  1  0.667131  0  0.273027  0.388785  0  0.959161  0
H  H14  1  0.21265740  0.21265015  0.07386597  1  0.454875  0  0.330298  0.278715  0  0.921245  0
H  H15  1  0.54043418  0.53691893  0.23517617  1  0.066096  0  0.103256  0.109107  0  1.027823  0
H  H16  1  0.12489146  0.62109248  0.17678991  1  0.106707  0  0.103865  0.106978  0  1.023406  0
H  H17  1  0.00114464  0.52578902  0.24336107  1  0.018682  0  0.0996  0.099246  0  1.000704  0
H  H18  1  0.14979187  0.43306328  0.30231541  1  0.121049  0  0.102248  0.109202  0  1.042519  0
H  H19  1  0.25872176  0.41650513  0.42561628  1  0.083093  0  0.100842  0.104391  0  1.04866  0
H  H20  1  0.73840469  0.10407986  0.45226000  1  0.114975  0  0.102813  0.110469  0  1.040303  0
H  H21  1  0.98728961  0.27706561  0.27939483  1  0.124451  0  0.123934  0.105891  0  0.997444  0
H  H22  1  0.06140909  0.35639061  0.07977275  1  0.076634  0  0.106366  0.105332  0  1.03859  0
H  H23  1  0.86582600  0.44708681  0.10121210  1  0.111156  0  0.106962  0.112227  0  1.037834  0
H  H24  1  0.73427608  0.44438690  0.21092643  1  0.095563  0  0.119742  0.093028  0  1.017284  0
H  H25  1  0.11430365  0.19983942  0.17723150  1  0.075337  0  0.125443  0.110656  0  0.941334  0
H  H26  1  0.24006754  0.26159543  0.20971349  1  0.079789  0  0.11666  0.097471  0  0.961167  0
H  H27  1  0.39445206  0.24710610  0.99450260  1  0.113147  0  0.125228  0.109401  0  0.982748  0
H  H28  1  0.31643668  0.37232925  0.17351487  1  0.064309  0  0.107178  0.11258  0  1.030111  0
H  H29  1  0.51349892  0.45341257  0.13627884  1  0.077535  0  0.109086  0.115207  0  1.010989  0
H  H30  1  0.64912785  0.42576167  0.02989169  1  0.138914  0  0.111949  0.086223  0  1.041649  0
H  H31  1  0.69624571  0.76468576  0.63886039  1  0.650379  0  0.274042  0.391567  0  0.95313  0
H  H32  1  0.17889725  0.69319253  0.60239820  1  0.667017  0  0.272985  0.388723  0  0.959231  0
H  H33  1  0.21263965  0.78734805  0.92613602  1  0.455161  0  0.330296  0.278697  0  0.92141  0
H  H34  1  0.54043596  0.46307832  0.76483601  1  0.066508  0  0.103275  0.109151  0  1.027881  0
H  H35  1  0.12487784  0.37891399  0.82320278  1  0.106506  0  0.103868  0.107064  0  1.023235  0
H  H36  1  0.00114941  0.47421566  0.75662267  1  0.018561  0  0.099587  0.099185  0  1.000569  0
H  H37  1  0.14981193  0.56694044  0.69767437  1  0.121238  0  0.102224  0.109212  0  1.042485  0
H  H38  1  0.25871989  0.58350148  0.57440535  1  0.08289  0  0.100807  0.104388  0  1.04884  0
H  H39  1  0.73842042  0.89591949  0.54773543  1  0.115053  0  0.102808  0.110453  0  1.040264  0
H  H40  1  0.98728972  0.72292074  0.72060899  1  0.124477  0  0.123916  0.106051  0  0.997412  0
H  H41  1  0.06139294  0.64359359  0.92023069  1  0.076986  0  0.106317  0.105387  0  1.038589  0
H  H42  1  0.86581708  0.55289561  0.89878778  1  0.110717  0  0.107057  0.112382  0  1.037542  0
H  H43  1  0.73427175  0.55559590  0.78906748  1  0.095769  0  0.119735  0.093005  0  1.017362  0
H  H44  1  0.11427525  0.80015051  0.82277213  1  0.075532  0  0.125449  0.110755  0  0.9413  0
H  H45  1  0.24004475  0.73839573  0.79029060  1  0.079941  0  0.116588  0.097518  0  0.961282  0
H  H46  1  0.39443829  0.75288943  0.00550155  1  0.1131  0  0.125223  0.109416  0  0.982689  0
H  H47  1  0.31641691  0.62766864  0.82648750  1  0.064242  0  0.107157  0.112583  0  1.03004  0
H  H48  1  0.51349490  0.54658904  0.86372076  1  0.077614  0  0.109069  0.115207  0  1.010947  0
H  H49  1  0.64912645  0.57423954  0.97010690  1  0.138965  0  0.111962  0.086234  0  1.041668  0
H  H50  1  0.19624284  0.73531817  0.13886395  1  0.650461  0  0.274024  0.391515  0  0.953242  0
H  H51  1  0.67890072  0.80680868  0.10238970  1  0.666921  0  0.273024  0.388765  0  0.959183  0
H  H52  1  0.71265730  0.71266410  0.42613258  1  0.454499  0  0.330234  0.27859  0  0.921284  0
H  H53  1  0.04042237  0.03692330  0.26482906  1  0.066172  0  0.103275  0.109077  0  1.027847  0
H  H54  1  0.62487699  0.12109216  0.32320842  1  0.106754  0  0.103849  0.106957  0  1.023246  0
H  H55  1  0.50113445  0.02578860  0.25663486  1  0.018625  0  0.099602  0.099147  0  1.000666  0
H  H56  1  0.64978780  0.93305826  0.19768028  1  0.121033  0  0.102219  0.10924  0  1.042379  0
H  H57  1  0.75871554  0.91649206  0.07440252  1  0.082677  0  0.100784  0.104291  0  1.048827  0
H  H58  1  0.23842998  0.60408165  0.04773998  1  0.114965  0  0.102814  0.110476  0  1.040242  0
H  H59  1  0.48729070  0.77707952  0.22060371  1  0.124419  0  0.123936  0.106063  0  0.997318  0
H  H60  1  0.56138821  0.85640660  0.42022694  1  0.077093  0  0.106328  0.105412  0  1.038683  0
H  H61  1  0.36580626  0.94710012  0.39879008  1  0.110665  0  0.107025  0.112286  0  1.037692  0
H  H62  1  0.23425878  0.94440255  0.28907024  1  0.095612  0  0.119739  0.092991  0  1.017418  0
H  H63  1  0.61427128  0.69984941  0.32277249  1  0.075551  0  0.125442  0.11076  0  0.941275  0
H  H64  1  0.74004332  0.76159684  0.29028142  1  0.07998  0  0.116624  0.097511  0  0.961065  0
H  H65  1  0.89445769  0.74711853  0.50548474  1  0.112956  0  0.125349  0.10957  0  0.982639  0
H  H66  1  0.81643049  0.87233717  0.32647551  1  0.063839  0  0.107166  0.112616  0  1.030133  0
H  H67  1  0.01350685  0.95341991  0.36371167  1  0.077168  0  0.109088  0.115306  0  1.011011  0
H  H68  1  0.14913437  0.92577089  0.47010189  1  0.139117  0  0.11194  0.086239  0  1.041512  0
H  H69  1  0.19626278  0.26468808  0.86113448  1  0.650248  0  0.274047  0.391593  0  0.95309  0
H  H70  1  0.67892106  0.19319405  0.89760501  1  0.667319  0  0.272986  0.388741  0  0.959204  0
H  H71  1  0.71263608  0.28734121  0.57387024  1  0.455052  0  0.330294  0.27861  0  0.921361  0
H  H72  1  0.04043621  0.96308073  0.73516631  1  0.066531  0  0.103267  0.109163  0  1.027832  0
H  H73  1  0.62488537  0.87891180  0.67679208  1  0.106475  0  0.103904  0.107077  0  1.023318  0
H  H74  1  0.50114721  0.97422105  0.74336220  1  0.018579  0  0.099592  0.099179  0  1.000673  0
H  H75  1  0.64980253  0.06694776  0.80231482  1  0.121243  0  0.102239  0.109372  0  1.04234  0
H  H76  1  0.75873440  0.08348800  0.92561295  1  0.083219  0  0.100823  0.104383  0  1.048628  0
H  H77  1  0.23843037  0.39591967  0.95226859  1  0.115008  0  0.102771  0.110444  0  1.040259  0
H  H78  1  0.48728361  0.22292483  0.77939429  1  0.124632  0  0.123943  0.106031  0  0.997361  0
H  H79  1  0.56138076  0.14358953  0.57977333  1  0.077215  0  0.106306  0.105358  0  1.03869  0
H  H80  1  0.36579481  0.05289977  0.60121247  1  0.110685  0  0.107021  0.112294  0  1.037759  0
H  H81  1  0.23425139  0.05560146  0.71093033  1  0.095641  0  0.119705  0.092903  0  1.017407  0
H  H82  1  0.61427020  0.30014602  0.67723396  1  0.0756  0  0.12548  0.110834  0  0.941344  0
H  H83  1  0.74004353  0.23839182  0.70971402  1  0.079821  0  0.116637  0.097634  0  0.961078  0
H  H84  1  0.89442679  0.25289586  0.49450826  1  0.112646  0  0.125193  0.109394  0  0.982666  0
H  H85  1  0.81643900  0.12765982  0.67350772  1  0.064351  0  0.107193  0.112577  0  1.029936  0
H  H86  1  0.01351241  0.04658260  0.63626563  1  0.077576  0  0.109054  0.115134  0  1.010921  0
H  H87  1  0.14913340  0.07424299  0.52987591  1  0.138696  0  0.111908  0.086107  0  1.041807  0
H  H88  1  0.85401815  0.50000886  0.49999867  1  0.082963  0  0.103722  0.116796  0  1.011095  0
H  H89  1  0.39503594  0.50000044  0.50001181  1  0.054413  0  0.102158  0.102545  0  0.988638  0
H  H90  1  0.35402845  0.99999188  0.99999537  1  0.083074  0  0.103686  0.116792  0  1.011222  0
H  H91  1  0.89503604  0.99998819  0.00000926  1  0.054486  0  0.102164  0.102538  0  0.988763  0
H  H92  1  0.33607585  0.99999553  0.50000203  1  0.099658  0  0.102185  0.095452  0  1.057326  0
H  H93  1  0.87427803  0.00000153  0.49999790  1  0.04599  0  0.093566  0.088299  0  1.036303  0
H  H94  1  0.83609492  0.49999648  0.00000284  1  0.099939  0  0.10221  0.095398  0  1.057007  0
H  H95  1  0.37429487  0.49999928  0.00000599  1  0.045745  0  0.093576  0.088206  0  1.036673  0
C  C96  1  0.44566886  0.42338927  0.30590389  1  1.540804  0  0.215987  0.593941  0  4.188251  0
C  C97  1  0.35426891  0.47948426  0.27255968  1  -0.041167  0  -0.023823  -0.050966  0  3.985473  0
C  C98  1  0.42224033  0.53421645  0.23680893  1  -0.020221  0  -0.082653  -0.112344  0  3.958756  0
C  C99  1  0.34034926  0.58473241  0.20169940  1  0.039396  0  -0.023495  -0.045267  0  3.991138  0
C  C100  1  0.18801273  0.58175907  0.20457919  1  -0.106759  0  -0.078179  -0.077543  0  3.941783  0
C  C101  1  0.11962027  0.52802610  0.24139581  1  -0.019174  0  -0.093365  -0.086892  0  4.007177  0
C  C102  1  0.20169737  0.47628596  0.27463570  1  -0.004915  0  -0.080145  -0.082903  0  3.937786  0
C  C103  1  0.41678286  0.63761624  0.15777167  1  1.526249  0  0.202071  0.560692  0  4.232048  0
C  C104  1  0.96578737  0.40376382  0.41306020  1  1.528681  0  0.204354  0.568548  0  4.214798  0
C  C105  1  0.04797102  0.45277647  0.45848537  1  0.009857  0  -0.025161  -0.04783  0  3.993593  0
C  C106  1  0.20064160  0.45285319  0.45869183  1  -0.024343  0  -0.08113  -0.080181  0  3.949535  0
C  C107  1  0.44038652  0.11912715  0.44610499  1  1.599636  0  0.213653  0.59061  0  4.195585  0
C  C108  1  0.52841918  0.05820651  0.47306443  1  -0.046276  0  -0.023095  -0.05077  0  3.991393  0
C  C109  1  0.68093853  0.05835751  0.47329785  1  -0.084312  0  -0.078772  -0.081098  0  3.926279  0
C  C110  1  0.96253661  0.31236300  0.23757056  1  0.463194  0  0.056813  0.052076  0  3.87659  0
C  C111  1  0.03947021  0.30874420  0.17744187  1  0.014966  0  -0.002401  0.043077  0  3.939936  0
C  C112  1  0.00360888  0.35745017  0.12725798  1  -0.031904  0  -0.065626  -0.076774  0  3.923458  0
C  C113  1  0.89412468  0.40743721  0.13868400  1  0.008064  0  -0.080949  -0.112513  0  3.987641  0
C  C114  1  0.82161740  0.40699756  0.19936350  1  0.465564  0  0.046203  0.074954  0  3.954223  0
C  C115  1  0.15963574  0.25354756  0.16938550  1  0.345201  0  -0.040263  -0.049595  0  3.965835  0
C  C116  1  0.41980291  0.29101788  0.02847391  1  0.530959  0  0.045772  -0.011308  0  3.889196  0
C  C117  1  0.34038912  0.30086634  0.08820393  1  0.364429  0  0.109844  0.200508  0  4.091059  0
C  C118  1  0.37616377  0.36064710  0.12785327  1  0.0429  0  -0.082925  -0.153638  0  3.923957  0
C  C119  1  0.48672399  0.40609260  0.10708710  1  -0.059143  0  -0.082485  -0.096816  0  4.020431  0
C  C120  1  0.56118536  0.39212228  0.04813036  1  0.439302  0  0.020251  0.027322  0  3.987203  0
C  C121  1  0.44569309  0.57660933  0.69409896  1  1.540863  0  0.216129  0.594048  0  4.187965  0
C  C122  1  0.35427915  0.52051673  0.72743834  1  -0.042695  0  -0.023756  -0.050633  0  3.98506  0
C  C123  1  0.42224640  0.46578649  0.76319582  1  -0.020306  0  -0.082685  -0.112562  0  3.958912  0
C  C124  1  0.34034240  0.41527397  0.79830355  1  0.039262  0  -0.023455  -0.045146  0  3.991148  0
C  C125  1  0.18801231  0.41824561  0.79541622  1  -0.106245  0  -0.078305  -0.077852  0  3.941841  0
C  C126  1  0.11963271  0.47197877  0.75859236  1  -0.018855  0  -0.09307  -0.086352  0  4.007028  0
C  C127  1  0.20171080  0.52371227  0.72535627  1  -0.005111  0  -0.080357  -0.083411  0  3.938173  0
C  C128  1  0.41678500  0.36239045  0.84223456  1  1.527043  0  0.202023  0.560591  0  4.232792  0
C  C129  1  0.96578013  0.59624449  0.58694904  1  1.529523  0  0.204328  0.568478  0  4.214645  0
C  C130  1  0.04797010  0.54723342  0.54152650  1  0.009372  0  -0.025296  -0.047955  0  3.993151  0
C  C131  1  0.20064285  0.54715145  0.54132459  1  -0.023448  0  -0.081277  -0.080426  0  3.949834  0
C  C132  1  0.44039927  0.88086932  0.55389134  1  1.599268  0  0.213743  0.590541  0  4.195937  0
C  C133  1  0.52842856  0.94179078  0.52693423  1  0.035733  0  -0.023075  -0.05086  0  3.991505  0
C  C134  1  0.68094465  0.94164254  0.52669737  1  -0.084448  0  -0.078719  -0.080966  0  3.926354  0
C  C135  1  0.96252808  0.68762502  0.76243067  1  0.46337  0  0.056824  0.051647  0  3.87661  0
C  C136  1  0.03945723  0.69124327  0.82256348  1  0.014857  0  -0.002286  0.043355  0  3.939773  0
C  C137  1  0.00358865  0.64253260  0.87274325  1  -0.031481  0  -0.06564  -0.076923  0  3.923587  0
C  C138  1  0.89412008  0.59254726  0.86131299  1  0.007986  0  -0.081095  -0.112705  0  3.987713  0
C  C139  1  0.82161609  0.59298713  0.80063522  1  0.464857  0  0.046183  0.074891  0  3.954107  0
C  C140  1  0.15961137  0.74644384  0.83061929  1  0.344849  0  -0.040245  -0.049886  0  3.966099  0
C  C141  1  0.41979123  0.70898025  0.97152883  1  0.530956  0  0.045815  -0.011246  0  3.889151  0
C  C142  1  0.34037434  0.69913096  0.91179753  1  0.364435  0  0.109868  0.200498  0  4.091273  0
C  C143  1  0.37615336  0.63935329  0.87215031  1  0.043078  0  -0.082897  -0.1536  0  3.92414  0
C  C144  1  0.48671774  0.59391015  0.89291190  1  -0.059371  0  -0.082449  -0.096779  0  4.020644  0
C  C145  1  0.56118433  0.60787704  0.95186641  1  0.439294  0  0.02026  0.02737  0  3.987133  0
C  C146  1  0.94566799  0.92339112  0.19409673  1  1.540878  0  0.216054  0.594092  0  4.187996  0
C  C147  1  0.85425665  0.97948189  0.22743846  1  -0.041307  0  -0.023892  -0.051081  0  3.985614  0
C  C148  1  0.92224005  0.03421774  0.26319365  1  -0.020337  0  -0.08257  -0.112136  0  3.958271  0
C  C149  1  0.84033435  0.08473218  0.29830416  1  0.039077  0  -0.023567  -0.045371  0  3.991335  0
C  C150  1  0.68800322  0.08175238  0.29541977  1  -0.106518  0  -0.078188  -0.077553  0  3.942216  0
C  C151  1  0.61961881  0.02802304  0.25860607  1  -0.019319  0  -0.093273  -0.086604  0  4.007327  0
C  C152  1  0.70169595  0.97628195  0.22536334  1  -0.00502  0  -0.080122  -0.083049  0  3.937996  0
C  C153  1  0.91677851  0.13761946  0.34222698  1  1.527437  0  0.202081  0.560704  0  4.232325  0
C  C154  1  0.46577743  0.90375348  0.08694469  1  1.528944  0  0.20434  0.568391  0  4.214673  0
C  C155  1  0.54797620  0.95275908  0.04152273  1  0.009276  0  -0.025306  -0.047883  0  3.993059  0
C  C156  1  0.70064242  0.95283954  0.04131932  1  -0.02383  0  -0.081336  -0.080412  0  3.950061  0
C  C157  1  0.94040605  0.61913295  0.05389397  1  1.599548  0  0.213573  0.590517  0  4.19562  0
C  C158  1  0.02843649  0.55820847  0.02693359  1  0.036576  0  -0.022994  -0.05102  0  3.99142  0
C  C159  1  0.18095910  0.55836267  0.02670572  1  -0.084245  0  -0.078821  -0.081065  0  3.925751  0
C  C160  1  0.46252755  0.81237818  0.26242942  1  0.462024  0  0.056905  0.051784  0  3.876759  0
C  C161  1  0.53944872  0.80875526  0.32255801  1  0.014901  0  -0.002353  0.043338  0  3.940097  0
C  C162  1  0.50358173  0.85746318  0.37274301  1  -0.031348  0  -0.065615  -0.07702  0  3.923715  0
C  C163  1  0.39410320  0.90745093  0.36131618  1  0.007536  0  -0.081035  -0.112483  0  3.987512  0
C  C164  1  0.32160030  0.90701074  0.30063392  1  0.465358  0  0.046169  0.074798  0  3.95425  0
C  C165  1  0.65961330  0.75355823  0.33061448  1  0.344841  0  -0.04027  -0.049936  0  3.965962  0
C  C166  1  0.91980141  0.79102728  0.47151311  1  0.530096  0  0.045509  -0.011705  0  3.889173  0
C  C167  1  0.84038659  0.80087790  0.41178694  1  0.364607  0  0.109955  0.200745  0  4.0911  0
C  C168  1  0.87616925  0.86065690  0.37213765  1  0.043505  0  -0.082897  -0.153507  0  3.924164  0
C  C169  1  0.98672875  0.90609795  0.39290292  1  -0.026619  0  -0.082337  -0.096927  0  4.020885  0
C  C170  1  0.06119047  0.89213332  0.45185889  1  0.406538  0  0.020243  0.02743  0  3.987444  0
C  C171  1  0.94568702  0.07661138  0.80590744  1  1.539718  0  0.21613  0.594131  0  4.188134  0
C  C172  1  0.85427468  0.02051820  0.77256288  1  -0.042005  0  -0.023773  -0.050757  0  3.985248  0
C  C173  1  0.92224518  0.96578803  0.73680494  1  -0.020299  0  -0.082712  -0.112554  0  3.958777  0
C  C174  1  0.84035036  0.91527649  0.70169214  1  0.039573  0  -0.023463  -0.045218  0  3.990995  0
C  C175  1  0.68801705  0.91824979  0.70457597  1  -0.106297  0  -0.078206  -0.077629  0  3.94197  0
C  C176  1  0.61962831  0.97198360  0.74139441  1  -0.018954  0  -0.093237  -0.086619  0  4.007306  0
C  C177  1  0.70170528  0.02372125  0.77463595  1  -0.005282  0  -0.080263  -0.083372  0  3.938061  0
C  C178  1  0.91679002  0.86238953  0.65776610  1  1.526054  0  0.20199  0.560639  0  4.232116  0
C  C179  1  0.46580245  0.09624132  0.91306422  1  1.528709  0  0.204264  0.568558  0  4.214781  0
C  C180  1  0.54797865  0.04722640  0.95848648  1  0.009766  0  -0.025235  -0.047968  0  3.993762  0
C  C181  1  0.70064923  0.04714069  0.95869095  1  -0.024925  0  -0.081095  -0.080158  0  3.949365  0
C  C182  1  0.94040761  0.38086849  0.94610919  1  1.59942  0  0.213647  0.590515  0  4.195936  0
C  C183  1  0.02843996  0.44179079  0.97307172  1  0.036542  0  -0.022939  -0.050813  0  3.991437  0
C  C184  1  0.18095714  0.44164096  0.97330813  1  -0.085242  0  -0.078772  -0.081128  0  3.926242  0
C  C185  1  0.46252015  0.18762731  0.73757049  1  0.462555  0  0.056822  0.05166  0  3.87694  0
C  C186  1  0.53944349  0.19124520  0.67744018  1  0.014956  0  -0.002321  0.043437  0  3.940114  0
C  C187  1  0.50357730  0.14253578  0.62725704  1  -0.03149  0  -0.065587  -0.076924  0  3.923714  0
C  C188  1  0.39409411  0.09254942  0.63868547  1  0.007544  0  -0.080971  -0.112449  0  3.987599  0
C  C189  1  0.32159662  0.09299088  0.69936648  1  0.465248  0  0.046164  0.0749  0  3.954267  0
C  C190  1  0.65961054  0.24643868  0.66938565  1  0.345061  0  -0.040335  -0.050226  0  3.966191  0
C  C191  1  0.91979121  0.20898117  0.52847599  1  0.531812  0  0.045777  -0.011234  0  3.889379  0
C  C192  1  0.84037863  0.19912758  0.58820286  1  0.364246  0  0.109997  0.200623  0  4.091255  0
C  C193  1  0.87616486  0.13934526  0.62784480  1  0.043192  0  -0.082945  -0.153524  0  3.923877  0
C  C194  1  0.98673432  0.09390710  0.60707594  1  -0.059169  0  -0.08252  -0.096912  0  4.020974  0
C  C195  1  0.06118942  0.10787707  0.54812308  1  0.439066  0  0.020364  0.027669  0  3.987499  0
C  C196  1  0.97238827  0.50000869  0.50000488  1  -0.045968  0  -0.078736  -0.099219  0  3.928987  0
C  C197  1  0.27628720  0.50000435  0.50001110  1  -0.044132  0  -0.09506  -0.093826  0  4.024236  0
C  C198  1  0.47239532  0.99999415  1.00000000  1  -0.045615  0  -0.078576  -0.09912  0  3.928826  0
C  C199  1  0.77629274  0.99998676  0.00000405  1  -0.043403  0  -0.094961  -0.093711  0  4.024165  0
C  C200  1  0.45431324  0.99999910  0.50000125  1  -0.081086  0  -0.085518  -0.124585  0  4.007921  0
C  C201  1  0.75583936  0.00000010  0.49999768  1  -0.042543  0  -0.092374  -0.079276  0  3.992372  0
C  C202  1  0.95433123  0.49999844  0.00000256  1  -0.164596  0  -0.085601  -0.124364  0  4.00791  0
C  C203  1  0.25585838  0.49999731  0.00000727  1  -0.042292  0  -0.092364  -0.079053  0  3.992164  0
N  N204  1  0.85538001  0.36005329  0.24794535  1  -1.261851  0  -0.325645  -0.226297  0  3.592815  0
N  N205  1  0.23199394  0.25392413  0.10525178  1  -1.210174  0  -0.431324  -0.327132  0  3.596391  0
N  N206  1  0.52688600  0.33523602  0.00973363  1  -1.236415  0  -0.327668  -0.217303  0  3.640279  0
N  N207  1  0.85537730  0.63993290  0.75205349  1  -1.26176  0  -0.325655  -0.226012  0  3.592294  0
N  N208  1  0.23196851  0.74607134  0.89475577  1  -1.210575  0  -0.431398  -0.327159  0  3.596592  0
N  N209  1  0.52687952  0.66476340  0.99026951  1  -1.236084  0  -0.327703  -0.217432  0  3.640282  0
N  N210  1  0.35537077  0.86006936  0.25205197  1  -1.260617  0  -0.325669  -0.225981  0  3.592436  0
N  N211  1  0.73197914  0.75393967  0.39474447  1  -1.209518  0  -0.431319  -0.327035  0  3.596481  0
N  N212  1  0.02689396  0.83524613  0.49025862  1  -1.235303  0  -0.32774  -0.217519  0  3.640462  0
N  N213  1  0.35536846  0.13993377  0.74794855  1  -1.261447  0  -0.325652  -0.225936  0  3.592488  0
N  N214  1  0.73196875  0.24606398  0.60525043  1  -1.210347  0  -0.431445  -0.327073  0  3.596582  0
N  N215  1  0.02687960  0.16476970  0.50972821  1  -1.236361  0  -0.327666  -0.217515  0  3.640475  0
O  O216  1  0.58324052  0.43391175  0.30533958  1  -1.166308  0  -0.323003  -0.551757  0  2.341027  0
O  O217  1  0.38064683  0.36998801  0.33116819  1  -1.194435  0  -0.31761  -0.573412  0  2.328243  0
O  O218  1  0.55639563  0.62936585  0.15326227  1  -1.150125  0  -0.341155  -0.568492  0  2.311269  0
O  O219  1  0.34772989  0.68438544  0.12563608  1  -1.199313  0  -0.310242  -0.555926  0  2.23818  0
O  O220  1  0.82734842  0.41541571  0.40814306  1  -1.16445  0  -0.33984  -0.56374  0  2.299265  0
O  O221  1  0.03008577  0.35531287  0.38072460  1  -1.1935  0  -0.311873  -0.561604  0  2.248048  0
O  O222  1  0.50536729  0.17704738  0.43264415  1  -1.184248  0  -0.316638  -0.564832  0  2.302143  0
O  O223  1  0.30398765  0.10678305  0.43951273  1  -1.194641  0  -0.327677  -0.557324  0  2.346191  0
O  O224  1  0.63157819  0.27539692  0.34775555  1  -1.241005  0  -0.597572  -0.881938  0  2.245304  0
O  O225  1  0.24546016  0.26735040  0.41145080  1  -1.257531  0  -0.59569  -0.878487  0  2.245047  0
O  O226  1  0.58326162  0.56609072  0.69467524  1  -1.165948  0  -0.32304  -0.5518  0  2.341225  0
O  O227  1  0.38067107  0.63000702  0.66882592  1  -1.193963  0  -0.317702  -0.573467  0  2.328092  0
O  O228  1  0.55638360  0.37064365  0.84674447  1  -1.150986  0  -0.341046  -0.568264  0  2.311762  0
O  O229  1  0.34772988  0.31562145  0.87436740  1  -1.199154  0  -0.310273  -0.555961  0  2.238565  0
O  O230  1  0.82734140  0.58458926  0.59185968  1  -1.164823  0  -0.339844  -0.563736  0  2.299264  0
O  O231  1  0.03007308  0.64469600  0.61928920  1  -1.193952  0  -0.311861  -0.561553  0  2.248092  0
O  O232  1  0.50537987  0.82294944  0.56734843  1  -1.184158  0  -0.316563  -0.5647  0  2.30233  0
O  O233  1  0.30400254  0.89321702  0.56048360  1  -1.194293  0  -0.327848  -0.557363  0  2.346303  0
O  O234  1  0.63158144  0.72460327  0.65224148  1  -1.240946  0  -0.597628  -0.882047  0  2.245324  0
O  O235  1  0.24545894  0.73265198  0.58855181  1  -1.257342  0  -0.595604  -0.878388  0  2.2451  0
O  O236  1  0.08323789  0.93391185  0.19466686  1  -1.166318  0  -0.322983  -0.551774  0  2.341138  0
O  O237  1  0.88064987  0.86998782  0.16882837  1  -1.194309  0  -0.31763  -0.573459  0  2.32806  0
O  O238  1  0.05637980  0.12936471  0.34674043  1  -1.150844  0  -0.341091  -0.56845  0  2.311585  0
O  O239  1  0.84772719  0.18439778  0.37435654  1  -1.199358  0  -0.310352  -0.556036  0  2.238142  0
O  O240  1  0.32734510  0.91541401  0.09185800  1  -1.164579  0  -0.339827  -0.563631  0  2.299365  0
O  O241  1  0.53006401  0.85530219  0.11928444  1  -1.193741  0  -0.311844  -0.561521  0  2.248159  0
O  O242  1  0.00537115  0.67704791  0.06735210  1  -1.184492  0  -0.316465  -0.564573  0  2.302691  0
O  O243  1  0.80399750  0.60678255  0.06048803  1  -1.194095  0  -0.327815  -0.55742  0  2.345782  0
O  O244  1  0.13158244  0.77539841  0.15224366  1  -1.241062  0  -0.597599  -0.881989  0  2.245321  0
O  O245  1  0.74545962  0.76734773  0.08854371  1  -1.257001  0  -0.595704  -0.878529  0  2.245004  0
O  O246  1  0.08325813  0.06608352  0.80533965  1  -1.166007  0  -0.323052  -0.551836  0  2.34107  0
O  O247  1  0.88067088  0.13001486  0.83116907  1  -1.193422  0  -0.317698  -0.573493  0  2.328309  0
O  O248  1  0.05639658  0.87063768  0.65325499  1  -1.15006  0  -0.341057  -0.568346  0  2.311504  0
O  O249  1  0.84773325  0.81561676  0.62563180  1  -1.19923  0  -0.310229  -0.555931  0  2.238102  0
O  O250  1  0.32735385  0.08458386  0.90814490  1  -1.164386  0  -0.339899  -0.563897  0  2.299078  0
O  O251  1  0.53009333  0.14469081  0.88072969  1  -1.193524  0  -0.311749  -0.561481  0  2.248399  0
O  O252  1  0.00538186  0.32295088  0.93264963  1  -1.184174  0  -0.316489  -0.564575  0  2.302556  0
O  O253  1  0.80400315  0.39321821  0.93951512  1  -1.194271  0  -0.327821  -0.5574  0  2.346173  0
O  O254  1  0.13160372  0.22460269  0.84775504  1  -1.240694  0  -0.597559  -0.881956  0  2.245369  0
O  O255  1  0.74547756  0.23265802  0.91144325  1  -1.257516  0  -0.595603  -0.878404  0  2.245044  0
