# generated using pymatgen
data_Ni2H25C34(NO)8
_symmetry_space_group_name_H-M   'P 1'
_cell_length_a   7.74420604
_cell_length_b   13.20084026
_cell_length_c   16.16370790
_cell_angle_alpha   88.05535141
_cell_angle_beta   84.10532580
_cell_angle_gamma   81.00818935
_symmetry_Int_Tables_number   1
_chemical_formula_structural   Ni2H25C34(NO)8
_chemical_formula_sum   'Ni4 H50 C68 N16 O16'
_cell_volume   1623.21029915
_cell_formula_units_Z   2
loop_
 _symmetry_equiv_pos_site_id
 _symmetry_equiv_pos_as_xyz
  1  'x, y, z'
loop_
 _atom_site_type_symbol
 _atom_site_label
 _atom_site_symmetry_multiplicity
 _atom_site_fract_x
 _atom_site_fract_y
 _atom_site_fract_z
 _atom_site_occupancy
 _atom_site_pbe_bader_charge
 _atom_site_pbe_bader_spin_density
 _atom_site_pbe_cm5_charge
 _atom_site_pbe_ddec_charge
 _atom_site_pbe_ddec_spin_density
 _atom_site_pbe_ddec_sum_bond_order
 _atom_site_pbe_magmom
Ni  Ni0  1  0.99839722  0.79513848  0.28303420  1  1.012018  0.027395  0.631468  0.611894  0.096542  2.654363  0.027
Ni  Ni1  1  0.00158208  0.20485799  0.71697687  1  1.012129  0.027381  0.631541  0.611855  0.096543  2.654081  0.027
Ni  Ni2  1  0.56574887  0.85904660  0.76915078  1  1.103337  -1.519404  0.618919  0.718233  -1.818965  2.437189  -1.502
Ni  Ni3  1  0.43425896  0.14096492  0.23084100  1  1.1032  -1.519451  0.618921  0.718364  -1.81903  2.436396  -1.502
H  H4  1  0.15667147  0.84219708  0.00930871  1  0.087417  -0.000456  0.097248  0.10079  -0.000292  1.035329  0.0
H  H5  1  0.84339238  0.15778534  0.99069617  1  0.087938  -0.000456  0.097142  0.100698  -0.000292  1.035423  0.0
H  H6  1  0.97312723  0.95892219  0.77651653  1  0.054077  -0.000288  0.111968  0.120922  -9.8e-05  1.003098  0.0
H  H7  1  0.02687273  0.04106992  0.22349630  1  0.054335  -0.000288  0.111978  0.12093  -9.8e-05  1.00301  0.0
H  H8  1  0.60490592  0.93481520  0.99177508  1  0.081304  3e-06  0.103295  0.115849  8.6e-05  1.026082  0.0
H  H9  1  0.39512393  0.06515811  0.00824349  1  0.081133  2e-06  0.103283  0.115725  8.6e-05  1.025998  0.0
H  H10  1  0.31495307  0.80807794  0.53201534  1  0.112471  -0.00043  0.103264  0.115615  -0.000262  1.010515  0.0
H  H11  1  0.68498516  0.19196785  0.46798474  1  0.114311  -0.000427  0.103217  0.115561  -0.000262  1.010621  0.0
H  H12  1  0.53209317  0.89380679  0.28787627  1  0.115127  0.000116  0.11649  0.130085  0.000186  1.007086  0.0
H  H13  1  0.46789579  0.10616102  0.71212580  1  0.115403  0.000117  0.116438  0.130055  0.000187  1.006911  0.0
H  H14  1  0.82825323  0.89872995  0.49864643  1  0.105196  -0.000457  0.107074  0.124847  -0.000302  0.993713  0.0
H  H15  1  0.17169641  0.10130861  0.50134049  1  0.105038  -0.000456  0.107226  0.12506  -0.000303  0.993565  0.0
H  H16  1  0.85100696  0.67101012  0.42729211  1  0.161346  0.000919  0.143908  0.116074  0.000618  0.988201  0.001
H  H17  1  0.14895716  0.32900615  0.57274099  1  0.161787  0.000918  0.143886  0.115925  0.000617  0.988429  0.001
H  H18  1  0.69362291  0.72245639  0.18560928  1  0.203854  0.000903  0.122643  0.130658  0.000559  1.040167  0.001
H  H19  1  0.30638666  0.27750656  0.81440386  1  0.203301  0.000903  0.122617  0.130543  0.000559  1.040212  0.001
H  H20  1  0.49122733  0.58559769  0.27266195  1  0.127206  0.000356  0.112594  0.104066  0.000227  1.099264  0.0
H  H21  1  0.50876473  0.41439746  0.72737708  1  0.126991  0.000356  0.112624  0.104193  0.000227  1.0991  0.0
H  H22  1  0.82163632  0.45998243  0.45880850  1  0.065821  6e-05  0.109283  0.114757  3.7e-05  0.988227  0.0
H  H23  1  0.17832051  0.54001380  0.54122586  1  0.065151  6e-05  0.109186  0.114661  3.7e-05  0.988165  0.0
H  H24  1  0.31526554  0.63742215  0.42474935  1  0.15256  -1.3e-05  0.109374  0.127366  -3.1e-05  1.046668  0.0
H  H25  1  0.68472149  0.36256822  0.57528579  1  0.151739  -1.3e-05  0.109402  0.127579  -3.1e-05  1.046711  0.0
H  H26  1  0.11016179  0.55811603  0.33632741  1  0.112391  -0.0005  0.120741  0.110849  -0.000218  1.015272  0.0
H  H27  1  0.88979776  0.44188062  0.66369505  1  0.112671  -0.0005  0.120774  0.110719  -0.000218  1.015107  0.0
H  H28  1  0.31750679  0.42822433  0.22284959  1  0.134643  -0.000378  0.129134  0.134119  -0.000129  1.025678  0.0
H  H29  1  0.68244913  0.57174851  0.77717537  1  0.134544  -0.000378  0.129224  0.134137  -0.000129  1.025821  0.0
H  H30  1  0.25549901  0.73522189  0.12660695  1  0.198608  -0.000363  0.150763  0.130348  -0.000151  0.981021  0.0
H  H31  1  0.74460794  0.26475724  0.87342836  1  0.19815  -0.000364  0.150722  0.130431  -0.000151  0.980992  0.0
H  H32  1  0.55094205  0.39741481  0.12965263  1  0.105993  -3.2e-05  0.114722  0.126272  1.7e-05  0.99829  0.0
H  H33  1  0.44903051  0.60254458  0.87038026  1  0.107029  -3.2e-05  0.114636  0.126084  1.7e-05  0.998191  0.0
H  H34  1  0.29439366  0.66490924  0.00232312  1  0.119973  -0.000327  0.113761  0.123238  -0.000231  1.013046  0.0
H  H35  1  0.70558082  0.33505302  0.99770275  1  0.120457  -0.000327  0.113794  0.12309  -0.000231  1.013062  0.0
H  H36  1  0.95466953  0.74958539  0.68449261  1  0.163937  -0.000926  0.128457  0.131164  -0.000327  0.976161  -0.001
H  H37  1  0.04530543  0.25042937  0.31541444  1  0.164788  -0.000925  0.128661  0.131404  -0.000327  0.976689  -0.001
H  H38  1  0.15543091  0.60495659  0.77935380  1  0.122733  -0.000754  0.126381  0.130075  -0.000347  0.997709  0.0
H  H39  1  0.84458974  0.39507031  0.22055933  1  0.122634  -0.000753  0.126273  0.130179  -0.000347  0.998172  0.0
H  H40  1  0.67274947  0.71876738  0.91863140  1  0.168623  -0.000643  0.140995  0.117336  -0.000122  1.003234  -0.001
H  H41  1  0.32732297  0.28128483  0.08131354  1  0.168004  -0.000642  0.140767  0.116706  -0.000122  1.003564  -0.001
H  H42  1  0.84791261  0.67676023  0.03208589  1  0.103097  -7e-06  0.112582  0.123058  2.6e-05  1.01515  0.0
H  H43  1  0.15207348  0.32327761  0.96784250  1  0.096622  -7e-06  0.112796  0.123277  2.6e-05  1.014968  0.0
H  H44  1  0.09557040  0.44972397  0.85347456  1  0.123034  -3e-06  0.103994  0.106446  3e-06  1.04068  0.0
H  H45  1  0.90445875  0.55033523  0.14646022  1  0.080607  -3e-06  0.103995  0.106216  3e-06  1.040672  0.0
H  H46  1  0.92547208  0.95357319  0.36175106  1  0.452468  -0.000226  0.314824  0.300845  -0.00017  0.905557  0.0
H  H47  1  0.07451291  0.04640333  0.63826006  1  0.452251  -0.000226  0.314722  0.300673  -0.00017  0.9057  0.0
H  H48  1  0.80041602  0.96693163  0.28232496  1  0.521948  0.000144  0.299181  0.31021  -5e-05  0.976364  0.0
H  H49  1  0.19959331  0.03306998  0.71766906  1  0.521925  0.000143  0.299147  0.31007  -5.1e-05  0.976511  0.0
H  H50  1  0.52391636  0.02674606  0.85718087  1  0.506625  0.000447  0.293824  0.308452  -5.1e-05  0.971219  0.001
H  H51  1  0.47608962  0.97324197  0.14284798  1  0.506792  0.000449  0.293859  0.308427  -5.1e-05  0.971182  0.001
H  H52  1  0.67969968  0.02974008  0.77796300  1  0.477708  0.000407  0.297153  0.300293  -4e-06  0.960166  0.0
H  H53  1  0.32029602  0.97026157  0.22206134  1  0.477447  0.000404  0.297203  0.300295  -5e-06  0.96033  0.0
C  C54  1  0.83554454  0.86227695  0.10135579  1  1.577868  -1.6e-05  0.189031  0.558795  -5.7e-05  4.259334  0.0
C  C55  1  0.16450871  0.13770105  0.89865843  1  1.577635  -1.7e-05  0.188755  0.558515  -5.7e-05  4.259212  0.0
C  C56  1  0.87692679  0.88736259  0.00971886  1  -0.109463  0.002015  -0.026016  -0.034252  0.001926  4.006702  0.002
C  C57  1  0.12310268  0.11262599  0.99029592  1  -0.109403  0.002011  -0.026124  -0.034654  0.001923  4.006651  0.002
C  C58  1  0.04961645  0.87126341  0.97211301  1  -0.033589  -0.017711  -0.092448  -0.135116  -0.010649  3.969821  -0.011
C  C59  1  0.95041931  0.12871269  0.02789465  1  -0.033683  -0.017716  -0.092316  -0.134886  -0.010652  3.969873  -0.011
C  C60  1  0.08474249  0.89722653  0.88790591  1  0.035138  0.001261  -0.021222  -0.027305  0.001122  4.016546  0.002
C  C61  1  0.91528092  0.10275643  0.11210322  1  0.035361  0.001262  -0.021305  -0.027308  0.001122  4.016648  0.002
C  C62  1  0.26665903  0.88148908  0.84569672  1  1.516741  0.003194  0.200541  0.558574  0.002802  4.164544  0.005
C  C63  1  0.73337059  0.11849527  0.15430587  1  1.51661  0.003196  0.200541  0.558367  0.002802  4.165  0.005
C  C64  1  0.94688068  0.93946434  0.84204818  1  0.016999  -0.014709  -0.081809  -0.16602  -0.008608  3.900647  -0.009
C  C65  1  0.05313105  0.06053235  0.15796020  1  0.016047  -0.014704  -0.081884  -0.166152  -0.008605  3.900819  -0.009
C  C66  1  0.77344205  0.95367673  0.87853106  1  0.323766  0.005475  0.086137  0.276466  0.004622  4.027478  0.006
C  C67  1  0.22656701  0.04630163  0.12148263  1  0.326933  0.005484  0.086345  0.27675  0.004623  4.027918  0.006
C  C68  1  0.73918831  0.92709323  0.96235760  1  0.003252  -0.014752  -0.092347  -0.197856  -0.008515  3.92394  -0.009
C  C69  1  0.26083443  0.07288231  0.03766057  1  0.002534  -0.014766  -0.092255  -0.197507  -0.008522  3.923315  -0.009
C  C70  1  0.58268471  0.84120922  0.61678715  1  1.506377  0.004546  0.187781  0.549553  0.003801  4.194033  0.007
C  C71  1  0.41727918  0.15880187  0.38320350  1  1.505617  0.004544  0.188071  0.549717  0.003802  4.193384  0.007
C  C72  1  0.57162531  0.85367016  0.52506975  1  0.027872  -0.001359  -0.017711  -0.014088  -0.000875  4.000781  0.0
C  C73  1  0.42830809  0.14637008  0.47492647  1  0.028689  -0.001356  -0.017801  -0.013957  -0.000874  4.001104  0.0
C  C74  1  0.42010189  0.83533258  0.49171592  1  -0.066881  -0.011526  -0.085378  -0.129528  -0.006885  3.946356  -0.007
C  C75  1  0.57983302  0.16469772  0.50828193  1  -0.068535  -0.011523  -0.08526  -0.129594  -0.006882  3.94664  -0.007
C  C76  1  0.40186061  0.85311008  0.40683873  1  0.016272  -0.000565  -0.020803  -0.024775  -1.6e-05  3.992833  -0.001
C  C77  1  0.59810243  0.14689486  0.59315225  1  0.016774  -0.000566  -0.020636  -0.024416  -1.7e-05  3.992461  -0.001
C  C78  1  0.23725732  0.83156069  0.37429888  1  1.515743  0.001315  0.197637  0.545488  0.001781  4.18992  0.0
C  C79  1  0.76269247  0.16843987  0.62570340  1  1.515692  0.001313  0.19743  0.54498  0.001781  4.190061  0.0
C  C80  1  0.53957451  0.88472999  0.35466919  1  0.016125  -0.009069  -0.075215  -0.152045  -0.005167  3.876213  -0.006
C  C81  1  0.46038820  0.11527124  0.64532630  1  0.015895  -0.009065  -0.075058  -0.151773  -0.005165  3.87558  -0.006
C  C82  1  0.69424970  0.89899165  0.38741966  1  0.291328  0.0017  0.083444  0.255754  0.001534  4.004575  0.002
C  C83  1  0.30570927  0.10101346  0.61257767  1  0.291766  0.001701  0.08338  0.255444  0.001534  4.00454  0.002
C  C84  1  0.70871920  0.88647832  0.47275926  1  -0.066482  -0.010052  -0.08346  -0.190219  -0.006106  3.921752  -0.006
C  C85  1  0.29123556  0.11354603  0.52723922  1  -0.067512  -0.010051  -0.083593  -0.190455  -0.006105  3.922016  -0.006
C  C86  1  0.78716037  0.66317656  0.37175765  1  0.946094  0.00087  0.144997  0.071346  0.001911  3.916135  0.001
C  C87  1  0.21281792  0.33683179  0.62826406  1  0.945692  0.000867  0.145068  0.071662  0.001909  3.915422  0.001
C  C88  1  0.70144798  0.68608016  0.24659329  1  0.413535  -0.000543  0.005058  -0.028834  -8.6e-05  3.953994  -0.001
C  C89  1  0.29856571  0.31389070  0.75342549  1  0.414114  -0.000544  0.005342  -0.028278  -8.5e-05  3.953639  -0.001
C  C90  1  0.59763505  0.62254200  0.28919985  1  0.235749  0.001536  -0.002851  -0.102308  0.001255  3.914501  0.001
C  C91  1  0.40237990  0.37744214  0.71082507  1  0.236341  0.001538  -0.002896  -0.102578  0.001257  3.913831  0.001
C  C92  1  0.57587495  0.55298208  0.43487427  1  0.37767  0.000967  0.095969  0.164509  0.000921  4.018811  0.001
C  C93  1  0.42410072  0.44703492  0.56515457  1  0.377871  0.000966  0.095966  0.16432  0.00092  4.019105  0.001
C  C94  1  0.68144019  0.47846390  0.47825890  1  -0.013102  0.000323  -0.083202  -0.144062  0.000255  3.97998  0.0
C  C95  1  0.31852115  0.52153469  0.52177576  1  -0.012696  0.000324  -0.083176  -0.143898  0.000255  3.97943  0.0
C  C96  1  0.39484093  0.57514653  0.45598649  1  -0.074028  7e-05  -0.080357  -0.137417  9.8e-05  3.95984  0.0
C  C97  1  0.60514746  0.42484377  0.54404612  1  -0.073073  7e-05  -0.080404  -0.137631  9.8e-05  3.960202  0.0
C  C98  1  0.17206428  0.57558485  0.27558150  1  0.408859  -0.001618  0.003839  -0.038712  -0.001222  4.004328  -0.001
C  C99  1  0.82791227  0.42440204  0.72444376  1  0.409054  -0.001616  0.003717  -0.038752  -0.001222  4.004346  -0.001
C  C100  1  0.27501024  0.51032048  0.21997386  1  0.271898  -0.001444  0.001547  -0.11398  -0.000829  3.92415  -0.001
C  C101  1  0.72496438  0.48965489  0.78005263  1  0.270862  -0.001444  0.001507  -0.114151  -0.000829  3.924731  -0.001
C  C102  1  0.24597867  0.67005638  0.16832608  1  0.964544  -0.000943  0.160531  0.120721  -0.000424  3.826419  0.0
C  C103  1  0.75410004  0.32992174  0.83170928  1  0.966541  -0.000935  0.160496  0.120447  -0.00042  3.826497  0.0
C  C104  1  0.41306822  0.53587073  0.07526849  1  0.270137  -0.000684  0.094729  0.1611  -0.000439  4.022949  -0.001
C  C105  1  0.58695225  0.46410230  0.92476846  1  0.268957  -0.000685  0.094643  0.160863  -0.00044  4.022638  -0.001
C  C106  1  0.52737051  0.44266028  0.07316053  1  -0.007382  -0.000143  -0.086312  -0.157658  -8.8e-05  3.99294  0.0
C  C107  1  0.47262206  0.55730624  0.92687300  1  -0.005188  -0.000143  -0.0862  -0.15729  -8.7e-05  3.992244  0.0
C  C108  1  0.38571577  0.59330450  0.00212536  1  0.010568  -0.000612  -0.082107  -0.141259  -0.000396  3.968535  0.0
C  C109  1  0.61427501  0.40665900  0.99791086  1  0.011986  -0.000611  -0.082041  -0.140783  -0.000395  3.968729  0.0
C  C110  1  0.92528720  0.71960859  0.74673204  1  0.409766  0.001509  0.01033  -0.017065  0.001226  3.972978  0.001
C  C111  1  0.07471120  0.28040460  0.25319199  1  0.410912  0.001515  0.010152  -0.017123  0.00123  3.972676  0.001
C  C112  1  0.02555521  0.64848424  0.79283412  1  0.26468  -0.003009  0.003859  -0.101598  -0.00176  3.913631  -0.002
C  C113  1  0.97444891  0.35155088  0.20707565  1  0.264632  -0.00301  0.003452  -0.102049  -0.001761  3.913646  -0.002
C  C114  1  0.77552533  0.70813202  0.86759347  1  0.946004  0.005984  0.146344  0.087954  0.004843  3.915885  0.004
C  C115  1  0.22453637  0.29191292  0.13234362  1  0.945863  0.005971  0.146446  0.088978  0.004834  3.915696  0.004
C  C116  1  0.96816727  0.57098503  0.93569923  1  0.292605  -0.000878  0.094511  0.156983  -0.000577  4.018507  -0.001
C  C117  1  0.03188781  0.42907894  0.06423294  1  0.310595  -0.000868  0.09497  0.157807  -0.000577  4.018245  -0.001
C  C118  1  0.91182620  0.59892384  0.01797138  1  0.046766  -0.000255  -0.082895  -0.142085  -0.000137  3.953566  0.0
C  C119  1  0.08815809  0.40112019  0.98195866  1  0.05364  -0.000254  -0.082819  -0.141858  -0.000137  3.953868  0.0
C  C120  1  0.05616650  0.47223278  0.91773880  1  -0.086612  -0.000215  -0.087696  -0.145006  -0.000101  3.980469  0.0
C  C121  1  0.94386754  0.52782785  0.08219074  1  -0.041827  -0.000214  -0.087516  -0.14438  -0.000101  3.979534  0.0
N  N122  1  0.63640580  0.98543703  0.82717568  1  -1.209973  -0.076532  -0.596493  -0.589507  -0.046199  3.424786  -0.063
N  N123  1  0.36357579  0.01455113  0.17283939  1  -1.212716  -0.076533  -0.596615  -0.589537  -0.046194  3.425108  -0.063
N  N124  1  0.84128360  0.91892355  0.33155255  1  -1.188205  -0.028702  -0.592481  -0.549458  -0.01709  3.454695  -0.021
N  N125  1  0.15869260  0.08107101  0.66844699  1  -1.188301  -0.028694  -0.592355  -0.549032  -0.017084  3.45468  -0.021
N  N126  1  0.81734462  0.71085677  0.29918254  1  -1.155526  0.036758  -0.361473  -0.235274  0.030748  3.723623  0.027
N  N127  1  0.18266331  0.28912951  0.70083887  1  -1.156723  0.036764  -0.361778  -0.235817  0.030752  3.723447  0.027
N  N128  1  0.65337835  0.60844403  0.36800163  1  -1.289497  0.002728  -0.228477  0.00757  0.00209  3.834295  0.002
N  N129  1  0.34661277  0.39156455  0.63202383  1  -1.289094  0.002729  -0.22851  0.007626  0.00209  3.83405  0.002
N  N130  1  0.15519257  0.67423183  0.24260173  1  -1.173785  -0.027085  -0.352228  -0.225614  -0.016468  3.658312  -0.02
N  N131  1  0.84483250  0.32575779  0.75742310  1  -1.176384  -0.027073  -0.352185  -0.225294  -0.016459  3.658208  -0.02
N  N132  1  0.32035190  0.57107388  0.15158581  1  -1.254605  -0.001734  -0.229784  -0.000704  -0.000953  3.80613  -0.001
N  N133  1  0.67967799  0.42889370  0.84844664  1  -1.252659  -0.001733  -0.229625  -0.000182  -0.000953  3.806002  -0.001
N  N134  1  0.76943391  0.75508334  0.79386690  1  -1.190087  -0.057318  -0.358066  -0.283459  -0.035969  3.682385  -0.05
N  N135  1  0.23059588  0.24495519  0.20607128  1  -1.190102  -0.057295  -0.357987  -0.283487  -0.035958  3.681332  -0.05
N  N136  1  0.92945303  0.64185174  0.86976236  1  -1.254122  -0.001798  -0.228973  0.00253  -0.000936  3.812113  -0.002
N  N137  1  0.07061795  0.35820278  0.13015840  1  -1.2713  -0.00181  -0.228682  0.001523  -0.000936  3.813168  -0.002
O  O138  1  0.96620220  0.83270598  0.14281099  1  -1.182871  -0.010529  -0.329201  -0.583495  -0.006268  2.265818  -0.01
O  O139  1  0.03384903  0.16720705  0.85719334  1  -1.181979  -0.01055  -0.328984  -0.583207  -0.006281  2.265583  -0.01
O  O140  1  0.67446286  0.87053530  0.12926763  1  -1.198412  -0.000514  -0.34557  -0.58753  -0.000111  2.159304  0.0
O  O141  1  0.32559562  0.12948135  0.87077551  1  -1.198562  -0.000514  -0.345555  -0.58751  -0.000111  2.159072  0.0
O  O142  1  0.39054544  0.82059030  0.87610685  1  -1.159194  -0.074493  -0.321172  -0.540282  -0.044586  2.167053  -0.066
O  O143  1  0.60950435  0.17939236  0.12388503  1  -1.15937  -0.074497  -0.321052  -0.540124  -0.044586  2.167126  -0.066
O  O144  1  0.30089942  0.92930579  0.77682409  1  -1.148368  -0.061358  -0.305589  -0.520573  -0.036931  2.301717  -0.055
O  O145  1  0.69911864  0.07067378  0.22317677  1  -1.148034  -0.061361  -0.305702  -0.520608  -0.036932  2.301903  -0.055
O  O146  1  0.49627743  0.78002702  0.66000536  1  -1.135847  -0.076301  -0.333076  -0.543115  -0.045378  2.110145  -0.068
O  O147  1  0.50373896  0.21996375  0.33998452  1  -1.135491  -0.076297  -0.333143  -0.543223  -0.04538  2.109926  -0.068
O  O148  1  0.67533187  0.89706100  0.65180449  1  -1.122299  -0.094081  -0.321972  -0.532482  -0.055896  2.216821  -0.084
O  O149  1  0.32458512  0.10298273  0.34818487  1  -1.122021  -0.094055  -0.322137  -0.532542  -0.055887  2.216668  -0.084
O  O150  1  0.20398691  0.86419425  0.29970866  1  -1.112411  0.028091  -0.30701  -0.505617  0.023559  2.281458  0.023
O  O151  1  0.79595405  0.13581409  0.70029922  1  -1.112524  0.028103  -0.307114  -0.505703  0.023567  2.281458  0.023
O  O152  1  0.13691784  0.78073240  0.41913224  1  -1.171398  -0.003333  -0.32731  -0.563603  -0.001303  2.151454  -0.004
O  O153  1  0.86306105  0.21925693  0.58087175  1  -1.171547  -0.003347  -0.32723  -0.563417  -0.001312  2.151117  -0.004
