# generated using pymatgen
data_HgH10C12N4(ClO)2
_symmetry_space_group_name_H-M   'P 1'
_cell_length_a   4.64557406
_cell_length_b   7.24483126
_cell_length_c   21.36380590
_cell_angle_alpha   95.99562522
_cell_angle_beta   89.99994004
_cell_angle_gamma   90.00027085
_symmetry_Int_Tables_number   1
_chemical_formula_structural   HgH10C12N4(ClO)2
_chemical_formula_sum   'Hg2 H20 C24 N8 Cl4 O4'
_cell_volume   715.09562176
_cell_formula_units_Z   2
loop_
 _symmetry_equiv_pos_site_id
 _symmetry_equiv_pos_as_xyz
  1  'x, y, z'
loop_
 _atom_site_type_symbol
 _atom_site_label
 _atom_site_symmetry_multiplicity
 _atom_site_fract_x
 _atom_site_fract_y
 _atom_site_fract_z
 _atom_site_occupancy
 _atom_site_hle17_bader_spin_density
 _atom_site_hle17_ddec_charge
 _atom_site_hle17_ddec_spin_density
 _atom_site_hle17_ddec_sum_bond_order
 _atom_site_hle17_magmom
 _atom_site_hse06_10hf_bader_spin_density
 _atom_site_hse06_10hf_ddec_charge
 _atom_site_hse06_10hf_ddec_spin_density
 _atom_site_hse06_10hf_ddec_sum_bond_order
 _atom_site_hse06_10hf_magmom
 _atom_site_hse06_bader_spin_density
 _atom_site_hse06_ddec_charge
 _atom_site_hse06_ddec_spin_density
 _atom_site_hse06_ddec_sum_bond_order
 _atom_site_hse06_magmom
 _atom_site_pbe_bader_spin_density
 _atom_site_pbe_cm5_charge
 _atom_site_pbe_ddec_charge
 _atom_site_pbe_ddec_spin_density
 _atom_site_pbe_ddec_sum_bond_order
 _atom_site_pbe_magmom
Hg  Hg0  1  0.08289830  0.74999783  0.24999967  1  0  0.751088  0  2.101455  0  0  0.585366  0  2.607104  0  0  0.632387  0  2.576825  0  0  0.515954  0.553226  0  2.627302  0
Hg  Hg1  1  0.91710435  0.25000423  0.75000061  1  0  0.751104  0  2.101442  0  0  0.585383  0  2.607089  0  0  0.632408  0  2.576805  0  0  0.515958  0.55324  0  2.627286  0
H  H2  1  0.76236769  0.91819988  0.02372356  1  0  0.312921  0  0.921909  0  0  0.287924  0  0.99638  0  0  0.296752  0  0.98868  0  0  0.322513  0.281688  0  1.001806  0
H  H3  1  0.76236538  0.58180058  0.47627579  1  0  0.31294  0  0.921904  0  0  0.287939  0  0.99638  0  0  0.296763  0  0.988683  0  0  0.322521  0.281704  0  1.001806  0
H  H4  1  0.23763496  0.08180357  0.97627724  1  0  0.312942  0  0.921895  0  0  0.287919  0  0.996368  0  0  0.296739  0  0.988675  0  0  0.322532  0.281685  0  1.001792  0
H  H5  1  0.23763081  0.41819870  0.52372393  1  0  0.312945  0  0.921884  0  0  0.287925  0  0.996364  0  0  0.296748  0  0.988668  0  0  0.322518  0.281689  0  1.001788  0
H  H6  1  0.75068302  0.86961058  0.13076716  1  0  0.078504  0  0.969727  0  0  0.079494  0  1.04726  0  0  0.082906  0  1.04367  0  0  0.102313  0.077018  0  1.04985  0
H  H7  1  0.75067081  0.63038569  0.36923111  1  0  0.078514  0  0.969659  0  0  0.079484  0  1.047218  0  0  0.082898  0  1.043627  0  0  0.10228  0.077006  0  1.049815  0
H  H8  1  0.24931963  0.13039287  0.86923317  1  0  0.078506  0  0.969765  0  0  0.079495  0  1.047297  0  0  0.082911  0  1.043703  0  0  0.1023  0.077018  0  1.049889  0
H  H9  1  0.24932538  0.36960944  0.63076893  1  0  0.078472  0  0.969727  0  0  0.079458  0  1.047261  0  0  0.082872  0  1.04367  0  0  0.102278  0.07698  0  1.049852  0
H  H10  1  0.72742010  0.35522667  0.19799951  1  0  0.08644  0  0.943643  0  0  0.089035  0  1.016891  0  0  0.092073  0  1.013559  0  0  0.108303  0.086779  0  1.019355  0
H  H11  1  0.72740617  0.14476953  0.30199730  1  0  0.086457  0  0.9436  0  0  0.089056  0  1.016846  0  0  0.092096  0  1.013516  0  0  0.108287  0.086799  0  1.01931  0
H  H12  1  0.27259546  0.64477817  0.80200040  1  0  0.086505  0  0.943614  0  0  0.089092  0  1.01687  0  0  0.092137  0  1.013542  0  0  0.108302  0.086831  0  1.01934  0
H  H13  1  0.27258356  0.85522559  0.69800133  1  0  0.086475  0  0.94366  0  0  0.089075  0  1.0169  0  0  0.092112  0  1.013567  0  0  0.108327  0.086819  0  1.019363  0
H  H14  1  0.35507190  0.23768011  0.11868758  1  0  0.115245  0  0.959548  0  0  0.12452  0  1.017862  0  0  0.128115  0  1.016863  0  0  0.097794  0.121916  0  1.018869  0
H  H15  1  0.35507138  0.26231776  0.38131173  1  0  0.115299  0  0.959548  0  0  0.124544  0  1.017898  0  0  0.128144  0  1.016887  0  0  0.097806  0.121941  0  1.018905  0
H  H16  1  0.64493290  0.76232334  0.88131463  1  0  0.115172  0  0.959569  0  0  0.124427  0  1.017924  0  0  0.128024  0  1.016924  0  0  0.097759  0.121819  0  1.018926  0
H  H17  1  0.64492481  0.73767875  0.61868743  1  0  0.115245  0  0.959548  0  0  0.124519  0  1.017869  0  0  0.128113  0  1.016871  0  0  0.097797  0.121913  0  1.018874  0
H  H18  1  0.17630056  0.45136634  0.04152442  1  0  0.111618  0  0.945411  0  0  0.119104  0  1.010907  0  0  0.122613  0  1.008171  0  0  0.108582  0.116537  0  1.01291  0
H  H19  1  0.17630671  0.04863100  0.45847490  1  0  0.111666  0  0.945388  0  0  0.119187  0  1.010834  0  0  0.122696  0  1.008097  0  0  0.108603  0.116617  0  1.012839  0
H  H20  1  0.82369563  0.54863434  0.95847722  1  0  0.111653  0  0.945455  0  0  0.119194  0  1.010884  0  0  0.122703  0  1.008146  0  0  0.108597  0.11662  0  1.012892  0
H  H21  1  0.82369594  0.95136551  0.54152425  1  0  0.111658  0  0.945353  0  0  0.119147  0  1.01085  0  0  0.122656  0  1.008112  0  0  0.108609  0.11658  0  1.012854  0
C  C22  1  0.66149655  0.72950154  0.12480950  1  0  0.107658  0  3.725026  0  0  0.06622  0  3.979363  0  0  0.075639  0  3.996275  0  0  0.044701  0.060186  0  3.967911  0
C  C23  1  0.66148535  0.77049307  0.37518827  1  0  0.107707  0  3.724925  0  0  0.066263  0  3.979234  0  0  0.075679  0  3.996148  0  0  0.044742  0.060229  0  3.967783  0
C  C24  1  0.33850610  0.27050330  0.87519088  1  0  0.107658  0  3.72512  0  0  0.066202  0  3.979456  0  0  0.07562  0  3.996366  0  0  0.04466  0.060169  0  3.968004  0
C  C25  1  0.33851084  0.22950206  0.62481177  1  0  0.107717  0  3.725151  0  0  0.066291  0  3.979461  0  0  0.075707  0  3.996378  0  0  0.044755  0.060262  0  3.967997  0
C  C26  1  0.64520677  0.44214909  0.16328619  1  0  0.137644  0  3.692012  0  0  0.103544  0  3.949157  0  0  0.11281  0  3.965623  0  0  0.048292  0.097627  0  3.937914  0
C  C27  1  0.64520064  0.05784825  0.33671115  1  0  0.137655  0  3.691842  0  0  0.103511  0  3.94899  0  0  0.112772  0  3.96546  0  0  0.048248  0.097597  0  3.937747  0
C  C28  1  0.35480233  0.55785852  0.83671429  1  0  0.137572  0  3.691857  0  0  0.103454  0  3.949001  0  0  0.112709  0  3.965476  0  0  0.048238  0.097542  0  3.937757  0
C  C29  1  0.35479340  0.94214687  0.66328795  1  0  0.137633  0  3.691964  0  0  0.103508  0  3.949111  0  0  0.112777  0  3.965571  0  0  0.048262  0.097592  0  3.937867  0
C  C30  1  0.43969490  0.37778594  0.11869955  1  0  -0.104914  0  3.690829  0  0  -0.116511  0  3.943141  0  0  -0.124544  0  3.963312  0  0  -0.084985  -0.111562  0  3.929803  0
C  C31  1  0.43968903  0.12220802  0.38129866  1  0  -0.105001  0  3.690964  0  0  -0.116573  0  3.943289  0  0  -0.124605  0  3.963462  0  0  -0.084984  -0.111624  0  3.929953  0
C  C32  1  0.56030560  0.62221752  0.88130172  1  0  -0.104819  0  3.690855  0  0  -0.116395  0  3.94321  0  0  -0.124426  0  3.963383  0  0  -0.084942  -0.11144  0  3.929862  0
C  C33  1  0.56030716  0.87778571  0.61870040  1  0  -0.104929  0  3.690823  0  0  -0.116522  0  3.943143  0  0  -0.124553  0  3.963313  0  0  -0.084996  -0.111571  0  3.929802  0
C  C34  1  0.34114572  0.49640898  0.07614913  1  0  -0.00876  0  3.665068  0  0  -0.039491  0  3.916104  0  0  -0.0338  0  3.932998  0  0  -0.063017  -0.042838  0  3.904589  0
C  C35  1  0.34114093  0.00358746  0.42384966  1  0  -0.008801  0  3.6651  0  0  -0.039559  0  3.916111  0  0  -0.033866  0  3.933001  0  0  -0.062999  -0.042901  0  3.904595  0
C  C36  1  0.65885692  0.50359725  0.92385317  1  0  -0.008768  0  3.665145  0  0  -0.039556  0  3.91616  0  0  -0.03386  0  3.933042  0  0  -0.06302  -0.042898  0  3.904645  0
C  C37  1  0.65885526  0.99641044  0.57615048  1  0  -0.008756  0  3.665013  0  0  -0.039497  0  3.916059  0  0  -0.033805  0  3.93295  0  0  -0.062997  -0.042849  0  3.904552  0
C  C38  1  0.45768956  0.67522675  0.07828398  1  0  -0.108675  0  3.778997  0  0  -0.083211  0  4.017168  0  0  -0.095716  0  4.041353  0  0  -0.012752  -0.075421  0  4.001202  0
C  C39  1  0.45768286  0.82476725  0.42171382  1  0  -0.108703  0  3.779048  0  0  -0.083214  0  4.017223  0  0  -0.095718  0  4.041411  0  0  -0.012782  -0.075422  0  4.001256  0
C  C40  1  0.54231093  0.32477532  0.92171677  1  0  -0.108687  0  3.779062  0  0  -0.083199  0  4.017219  0  0  -0.095701  0  4.041404  0  0  -0.012708  -0.075412  0  4.001255  0
C  C41  1  0.54231118  0.17522926  0.57828580  1  0  -0.108684  0  3.779069  0  0  -0.083205  0  4.017235  0  0  -0.09571  0  4.041423  0  0  -0.012761  -0.075418  0  4.00127  0
C  C42  1  0.34995535  0.80683927  0.03493462  1  0  0.518174  0  3.848254  0  0  0.466158  0  4.142026  0  0  0.496104  0  4.141875  0  0  0.242695  0.446124  0  4.141537  0
C  C43  1  0.34995393  0.69315858  0.46506474  1  0  0.518308  0  3.848181  0  0  0.466235  0  4.142028  0  0  0.496174  0  4.141881  0  0  0.242736  0.446201  0  4.141538  0
C  C44  1  0.65004514  0.19316418  0.96506571  1  0  0.518169  0  3.848198  0  0  0.466109  0  4.141944  0  0  0.496042  0  4.141803  0  0  0.242684  0.44608  0  4.141453  0
C  C45  1  0.65004226  0.30683654  0.53493483  1  0  0.518246  0  3.848328  0  0  0.466173  0  4.142103  0  0  0.496114  0  4.141952  0  0  0.242686  0.446143  0  4.141611  0
N  N46  1  0.75077671  0.61557943  0.16624317  1  0  -0.315622  0  3.280174  0  0  -0.237613  0  3.54766  0  0  -0.259125  0  3.568233  0  0  -0.317189  -0.223014  0  3.533275  0
N  N47  1  0.75076870  0.88441405  0.33375314  1  0  -0.315677  0  3.279848  0  0  -0.237593  0  3.547289  0  0  -0.259106  0  3.567863  0  0  -0.317156  -0.222989  0  3.532895  0
N  N48  1  0.24922809  0.38442540  0.83375628  1  0  -0.315691  0  3.280033  0  0  -0.23764  0  3.547496  0  0  -0.259153  0  3.56807  0  0  -0.317151  -0.223035  0  3.533091  0
N  N49  1  0.24923179  0.11557968  0.66624545  1  0  -0.315695  0  3.280226  0  0  -0.237665  0  3.547703  0  0  -0.259178  0  3.568272  0  0  -0.317226  -0.223064  0  3.53331  0
N  N50  1  0.54189339  0.93606140  0.01980536  1  0  -0.276745  0  3.339745  0  0  -0.230939  0  3.585566  0  0  -0.249896  0  3.598329  0  0  -0.294259  -0.217919  0  3.576473  0
N  N51  1  0.54189094  0.56393841  0.48019496  1  0  -0.276764  0  3.339749  0  0  -0.230917  0  3.585582  0  0  -0.249864  0  3.598349  0  0  -0.294227  -0.217898  0  3.576488  0
N  N52  1  0.45810710  0.06394205  0.98019544  1  0  -0.276712  0  3.339716  0  0  -0.23074  0  3.585483  0  0  -0.249673  0  3.598247  0  0  -0.294193  -0.217735  0  3.576395  0
N  N53  1  0.45810740  0.43605810  0.51980560  1  0  -0.276757  0  3.339716  0  0  -0.230812  0  3.585521  0  0  -0.249758  0  3.598288  0  0  -0.294199  -0.217803  0  3.576431  0
Cl  Cl54  1  0.17913788  0.02711595  0.20216655  1  0  -0.463476  0  0.998954  0  0  -0.399903  0  1.279346  0  0  -0.418272  0  1.262723  0  0  -0.261544  -0.387209  0  1.290771  0
Cl  Cl55  1  0.17912854  0.47288001  0.29783273  1  0  -0.463503  0  0.999004  0  0  -0.399913  0  1.279377  0  0  -0.41829  0  1.262763  0  0  -0.261539  -0.38722  0  1.290806  0
Cl  Cl56  1  0.82086046  0.97288750  0.79783425  1  0  -0.463476  0  0.998967  0  0  -0.399903  0  1.279368  0  0  -0.418286  0  1.262771  0  0  -0.261555  -0.38721  0  1.290792  0
Cl  Cl57  1  0.82087195  0.52712066  0.70216704  1  0  -0.46351  0  0.999011  0  0  -0.399929  0  1.279386  0  0  -0.418299  0  1.262766  0  0  -0.26155  -0.387239  0  1.290813  0
O  O58  1  0.09738810  0.80104523  0.01442702  1  0  -0.565565  0  1.98305  0  0  -0.52109  0  2.216762  0  0  -0.54193  0  2.209396  0  0  -0.299458  -0.506596  0  2.221352  0
O  O59  1  0.09738662  0.69895326  0.48557336  1  0  -0.565652  0  1.983014  0  0  -0.521157  0  2.216754  0  0  -0.541994  0  2.209389  0  0  -0.299506  -0.506664  0  2.221346  0
O  O60  1  0.90261239  0.19895822  0.98557425  1  0  -0.565545  0  1.982916  0  0  -0.521071  0  2.216639  0  0  -0.541907  0  2.20928  0  0  -0.299458  -0.506579  0  2.221228  0
O  O61  1  0.90261172  0.30104603  0.51442729  1  0  -0.565622  0  1.983085  0  0  -0.521138  0  2.216822  0  0  -0.541978  0  2.209455  0  0  -0.299477  -0.506647  0  2.221411  0
