# generated using pymatgen
data_Zn2H19C11N13O2
_symmetry_space_group_name_H-M   'P 1'
_cell_length_a   10.23935100
_cell_length_b   11.08085900
_cell_length_c   21.45612883
_cell_angle_alpha   90.00012783
_cell_angle_beta   89.99990016
_cell_angle_gamma   91.57291483
_symmetry_Int_Tables_number   1
_chemical_formula_structural   Zn2H19C11N13O2
_chemical_formula_sum   'Zn8 H76 C44 N52 O8'
_cell_volume   2433.51235332
_cell_formula_units_Z   4
loop_
 _symmetry_equiv_pos_site_id
 _symmetry_equiv_pos_as_xyz
  1  'x, y, z'
loop_
 _atom_site_type_symbol
 _atom_site_label
 _atom_site_symmetry_multiplicity
 _atom_site_fract_x
 _atom_site_fract_y
 _atom_site_fract_z
 _atom_site_occupancy
 _atom_site_pbe_bader_charge
 _atom_site_pbe_bader_spin_density
 _atom_site_pbe_cm5_charge
 _atom_site_pbe_ddec_charge
 _atom_site_pbe_ddec_spin_density
 _atom_site_pbe_ddec_sum_bond_order
 _atom_site_pbe_magmom
Zn  Zn0  1  0.48564494  0.32009796  0.41463303  1  1.23939  0  0.74013  0.719192  0  2.4503  0
Zn  Zn1  1  0.51435544  0.67990175  0.91463348  1  1.239382  0  0.740158  0.719238  0  2.450284  0
Zn  Zn2  1  0.50470702  0.45896666  0.64954919  1  1.233218  0  0.722929  0.695015  0  2.436199  0
Zn  Zn3  1  0.49529437  0.54103464  0.14954898  1  1.233173  0  0.722914  0.694963  0  2.436281  0
Zn  Zn4  1  0.97965501  0.04639740  0.47057379  1  1.232347  0  0.726052  0.686954  0  2.457837  0
Zn  Zn5  1  0.02034322  0.95360254  0.97057357  1  1.232343  0  0.726057  0.686979  0  2.457807  0
Zn  Zn6  1  0.99640769  0.18586078  0.70742787  1  1.240632  0  0.743464  0.722971  0  2.456395  0
Zn  Zn7  1  0.00359249  0.81413985  0.20742791  1  1.240613  0  0.743435  0.722906  0  2.456406  0
H  H8  1  0.46356988  0.68592303  0.62848357  1  0.426098  0  0.310074  0.295187  0  0.927684  0
H  H9  1  0.53642670  0.31407817  0.12848399  1  0.426128  0  0.310058  0.295175  0  0.927752  0
H  H10  1  0.61066983  0.65468534  0.60649630  1  0.409858  0  0.299709  0.276316  0  0.963199  0
H  H11  1  0.38932685  0.34531666  0.10649641  1  0.409836  0  0.299697  0.276323  0  0.963176  0
H  H12  1  0.92689570  0.81988007  0.49413256  1  0.456183  0  0.299191  0.278173  0  0.984227  0
H  H13  1  0.07310340  0.18011906  0.99413141  1  0.456199  0  0.299161  0.278108  0  0.98426  0
H  H14  1  0.08022855  0.85719479  0.50880846  1  0.442554  0  0.302189  0.283784  0  0.947517  0
H  H15  1  0.91977036  0.14280410  0.00880884  1  0.442561  0  0.302205  0.283831  0  0.947531  0
H  H16  1  0.59984830  0.19109987  0.54664274  1  0.066634  0  0.102333  0.157713  0  1.006883  0
H  H17  1  0.40015162  0.80890549  0.04664338  1  0.066652  0  0.102339  0.15772  0  1.006929  0
H  H18  1  0.57695033  0.05600197  0.50326019  1  0.107083  0  0.100605  0.145075  0  1.030229  0
H  H19  1  0.42304776  0.94400231  0.00326004  1  0.10758  0  0.100593  0.145054  0  1.030237  0
H  H20  1  0.72224522  0.07910377  0.54943809  1  0.055983  0  0.097724  0.147034  0  1.005581  0
H  H21  1  0.27775369  0.92090071  0.04943850  1  0.055952  0  0.09769  0.146982  0  1.005598  0
H  H22  1  0.60581437  0.62513984  0.28775798  1  0.103214  0  0.099549  0.146119  0  1.015989  0
H  H23  1  0.39418357  0.37486113  0.78775819  1  0.10321  0  0.099542  0.146101  0  1.016018  0
H  H24  1  0.60014365  0.55718091  0.36269737  1  0.077969  0  0.100165  0.149126  0  1.027373  0
H  H25  1  0.39985693  0.44281948  0.86269765  1  0.077975  0  0.100176  0.149146  0  1.027335  0
H  H26  1  0.71327891  0.50595224  0.30669232  1  0.095331  0  0.102609  0.153624  0  0.998801  0
H  H27  1  0.28671995  0.49404881  0.80669415  1  0.095286  0  0.102582  0.153588  0  0.998828  0
H  H28  1  0.05259164  0.32272257  0.46152331  1  0.06869  0  0.10394  0.153061  0  1.014039  0
H  H29  1  0.94740858  0.67727733  0.96152060  1  0.068276  0  0.103943  0.153042  0  1.013982  0
H  H30  1  0.19477562  0.38815142  0.49778938  1  0.097779  0  0.103959  0.15644  0  0.974334  0
H  H31  1  0.80522346  0.61184774  0.99778672  1  0.097798  0  0.103974  0.156474  0  0.974305  0
H  H32  1  0.17972134  0.38907140  0.41536958  1  0.09049  0  0.112377  0.166029  0  0.965205  0
H  H33  1  0.82027709  0.61092830  0.91536784  1  0.090391  0  0.112372  0.166015  0  0.965222  0
H  H34  1  0.09697039  0.06538487  0.25618274  1  0.091704  0  0.100024  0.155305  0  1.013044  0
H  H35  1  0.90303159  0.93461688  0.75618177  1  0.091675  0  0.100024  0.15531  0  1.013045  0
H  H36  1  0.08270913  0.14037472  0.32929617  1  0.082295  0  0.099342  0.14522  0  1.017527  0
H  H37  1  0.91729353  0.85962553  0.82929510  1  0.082316  0  0.099333  0.145199  0  1.017564  0
H  H38  1  0.20887156  0.03505717  0.31705620  1  0.085201  0  0.103192  0.15586  0  0.989146  0
H  H39  1  0.79112818  0.96494212  0.81705489  1  0.085203  0  0.103186  0.155836  0  0.989192  0
H  H40  1  0.88439880  0.29467004  0.57547687  1  0.103816  0  0.100298  0.16044  0  1.018647  0
H  H41  1  0.11559996  0.70533274  0.07547763  1  0.103814  0  0.100304  0.160439  0  1.018615  0
H  H42  1  0.75348146  0.39690483  0.56429369  1  0.065321  0  0.097977  0.154886  0  1.01057  0
H  H43  1  0.24651826  0.60309520  0.06429236  1  0.065286  0  0.097975  0.154865  0  1.010551  0
H  H44  1  0.89371293  0.43988242  0.60988716  1  0.089904  0  0.100977  0.150706  0  1.037325  0
H  H45  1  0.10628660  0.56011690  0.10988869  1  0.089909  0  0.100988  0.150714  0  1.037312  0
H  H46  1  0.25963547  0.09556394  0.66827660  1  0.064145  0  0.102853  0.152328  0  1.006345  0
H  H47  1  0.74036581  0.90443563  0.16827754  1  0.064134  0  0.102855  0.152347  0  1.006337  0
H  H48  1  0.37173409  0.16202863  0.61361669  1  0.079787  0  0.105419  0.159436  0  0.97183  0
H  H49  1  0.62826743  0.83797251  0.11361718  1  0.079815  0  0.10543  0.159461  0  0.971815  0
H  H50  1  0.40919748  0.16628816  0.69443554  1  0.110242  0  0.10599  0.155324  0  1.011241  0
H  H51  1  0.59080370  0.83371152  0.19443605  1  0.110248  0  0.106014  0.155353  0  1.011211  0
H  H52  1  0.36633403  0.64063545  0.53742755  1  0.072732  0  0.11956  0.087735  0  0.962457  0
H  H53  1  0.63366484  0.35936627  0.03742934  1  0.072761  0  0.119567  0.087762  0  0.96239  0
H  H54  1  0.54935837  0.80131755  0.52854665  1  0.00191  0  0.090782  0.050579  0  0.959102  0
H  H55  1  0.45064437  0.19868143  0.02854702  1  0.00189  0  0.090763  0.050562  0  0.959106  0
H  H56  1  0.52228024  0.82854903  0.41423528  1  0.036859  0  0.090858  0.129981  0  0.99068  0
H  H57  1  0.47772402  0.17144979  0.91423611  1  0.036902  0  0.09083  0.129971  0  0.990682  0
H  H58  1  0.45132278  0.68055390  0.40827609  1  0.041488  0  0.087582  0.13171  0  1.02414  0
H  H59  1  0.54868053  0.31944489  0.90827610  1  0.041511  0  0.087554  0.131643  0  1.024087  0
H  H60  1  0.37271530  0.79384045  0.45215363  1  0.060029  0  0.08005  0.106021  0  1.038425  0
H  H61  1  0.62728788  0.20615942  0.95215484  1  0.060352  0  0.080043  0.105988  0  1.038485  0
H  H62  1  0.74020825  0.66520942  0.52547977  1  0.007203  0  0.076265  0.095613  0  1.049859  0
H  H63  1  0.25979246  0.33478593  0.02547998  1  0.007092  0  0.076254  0.095599  0  1.049861  0
H  H64  1  0.68442748  0.60312386  0.45391839  1  0.045835  0  0.089998  0.130265  0  1.008704  0
H  H65  1  0.31557166  0.39687150  0.95391821  1  0.045893  0  0.089989  0.130249  0  1.008633  0
H  H66  1  0.73598755  0.75589857  0.45697679  1  0.072535  0  0.08561  0.115612  0  1.069637  0
H  H67  1  0.26401446  0.24409500  0.95697741  1  0.072494  0  0.085604  0.115601  0  1.069659  0
H  H68  1  0.85444366  0.87037759  0.59116503  1  0.070636  0  0.121331  0.087882  0  0.937319  0
H  H69  1  0.14555594  0.12962165  0.09116418  1  0.070664  0  0.121336  0.087894  0  0.937293  0
H  H70  1  0.01252429  0.81073585  0.67213709  1  0.063918  0  0.106792  0.085792  0  0.952056  0
H  H71  1  0.98747504  0.18926463  0.17213653  1  0.063945  0  0.10678  0.085777  0  0.952019  0
H  H72  1  0.22209879  0.88104306  0.62377091  1  0.063204  0  0.085847  0.118959  0  1.010414  0
H  H73  1  0.77790069  0.11895632  0.12376998  1  0.063218  0  0.085844  0.118945  0  1.010389  0
H  H74  1  0.22290748  0.72401522  0.64281852  1  0.068107  0  0.089956  0.123702  0  1.025324  0
H  H75  1  0.77709193  0.27598423  0.14281777  1  0.068137  0  0.08996  0.123691  0  1.025364  0
H  H76  1  0.20452216  0.76954025  0.56437197  1  0.021392  0  0.080056  0.096509  0  1.03981  0
H  H77  1  0.79547953  0.23046068  0.06437115  1  0.021373  0  0.08006  0.096491  0  1.03984  0
H  H78  1  0.01493153  0.59524256  0.63901263  1  0.06202  0  0.091002  0.124942  0  1.063187  0
H  H79  1  0.98506889  0.40475778  0.13901232  1  0.062024  0  0.090994  0.124898  0  1.063251  0
H  H80  1  0.86426722  0.66230226  0.62140056  1  0.006905  0  0.080201  0.101853  0  1.033974  0
H  H81  1  0.13573326  0.33769801  0.12140042  1  0.006895  0  0.080158  0.101839  0  1.034015  0
H  H82  1  0.98031479  0.63704516  0.56096648  1  0.037282  0  0.080944  0.109746  0  1.006265  0
H  H83  1  0.01968494  0.36295485  0.06096646  1  0.037274  0  0.080949  0.109739  0  1.006273  0
C  C84  1  0.71758676  0.18025902  0.46538618  1  1.026585  0  0.232574  0.386528  0  3.978137  0
C  C85  1  0.28241352  0.81974361  0.96538746  1  1.026546  0  0.232599  0.386461  0  3.978113  0
C  C86  1  0.65078515  0.12270744  0.51953061  1  -0.067103  0  -0.232817  -0.470052  0  3.925465  0
C  C87  1  0.34921382  0.87729510  0.01953044  1  -0.067618  0  -0.232807  -0.469986  0  3.925626  0
C  C88  1  0.51518159  0.44974835  0.29058881  1  1.0131  0  0.229565  0.388176  0  3.972693  0
C  C89  1  0.48481732  0.55025263  0.79058914  1  1.012802  0  0.229579  0.388207  0  3.972705  0
C  C90  1  0.61428666  0.53977087  0.31297636  1  -0.089876  0  -0.232554  -0.475013  0  3.934795  0
C  C91  1  0.38571308  0.46022751  0.81297574  1  -0.089812  0  -0.23255  -0.474995  0  3.934796  0
C  C92  1  0.22294935  0.21758511  0.45482625  1  1.006394  0  0.234211  0.378146  0  3.982968  0
C  C93  1  0.77705091  0.78241567  0.95482475  1  1.006408  0  0.234213  0.37812  0  3.982936  0
C  C94  1  0.15852476  0.33586312  0.45750996  1  -0.056581  0  -0.223908  -0.460842  0  3.922024  0
C  C95  1  0.84147350  0.66413587  0.95750687  1  -0.056069  0  -0.22393  -0.460836  0  3.921918  0
C  C96  1  0.01822153  0.95597922  0.32933675  1  0.996473  0  0.232092  0.390563  0  3.965568  0
C  C97  1  0.98177727  0.04402282  0.82933701  1  0.996539  0  0.232051  0.390472  0  3.965806  0
C  C98  1  0.10654687  0.05500884  0.30672121  1  -0.051432  0  -0.232203  -0.472395  0  3.932407  0
C  C99  1  0.89345394  0.94499222  0.80672025  1  -0.051409  0  -0.232183  -0.472318  0  3.932469  0
C  C100  1  0.76123413  0.31609305  0.65401113  1  0.981321  0  0.231611  0.387036  0  3.982979  0
C  C101  1  0.23876527  0.68390736  0.15400990  1  0.981083  0  0.231584  0.386973  0  3.983115  0
C  C102  1  0.82646538  0.36502599  0.59733409  1  -0.069897  0  -0.237683  -0.479243  0  3.907205  0
C  C103  1  0.17353619  0.63497509  0.09733472  1  -0.069639  0  -0.237678  -0.479216  0  3.907251  0
C  C104  1  0.26274570  0.28768436  0.66600184  1  0.963176  0  0.234574  0.381429  0  3.978711  0
C  C105  1  0.73725563  0.71231700  0.16600162  1  0.963479  0  0.234631  0.381501  0  3.97867  0
C  C106  1  0.32924842  0.17085580  0.66039915  1  -0.062933  0  -0.225684  -0.461041  0  3.911901  0
C  C107  1  0.67075289  0.82914373  0.16039959  1  -0.063244  0  -0.225726  -0.461127  0  3.911893  0
C  C108  1  0.48462603  0.49392993  0.51187900  1  1.572822  0  0.212007  0.566656  0  4.14707  0
C  C109  1  0.51537294  0.50607167  0.01188013  1  1.572808  0  0.211866  0.566462  0  4.147311  0
C  C110  1  0.47161622  0.62291171  0.53746664  1  0.285539  0  0.003509  0.008179  0  3.797482  0
C  C111  1  0.52838166  0.37708910  0.03746715  1  0.285539  0  0.003509  0.008166  0  3.797473  0
C  C112  1  0.54375286  0.72104795  0.49792272  1  0.030622  0  -0.087689  0.092483  0  3.863475  0
C  C113  1  0.45624916  0.27895121  0.99792323  1  0.030587  0  -0.087618  0.092563  0  3.863456  0
C  C114  1  0.46798736  0.75732169  0.43970118  1  -0.076432  0  -0.248697  -0.400413  0  3.917408  0
C  C115  1  0.53201681  0.24267723  0.93970252  1  -0.0768  0  -0.248643  -0.400322  0  3.917359  0
C  C116  1  0.68357361  0.68455846  0.48312967  1  -0.116955  0  -0.253537  -0.40425  0  3.915993  0
C  C117  1  0.31642743  0.31543883  0.98312987  1  -0.116814  0  -0.25353  -0.404218  0  3.915963  0
C  C118  1  0.98563790  0.01490865  0.60867836  1  1.57673  0  0.210857  0.558942  0  4.161209  0
C  C119  1  0.01436158  0.98508886  0.10867767  1  1.577092  0  0.210839  0.558837  0  4.161439  0
C  C120  1  0.96078763  0.88532550  0.58485538  1  0.272003  0  0.004988  0.016032  0  3.820773  0
C  C121  1  0.03921198  0.11467371  0.08485506  1  0.27166  0  0.004987  0.016066  0  3.820746  0
C  C122  1  0.03016204  0.78850200  0.62299959  1  0.029231  0  -0.09028  0.076194  0  3.869922  0
C  C123  1  0.96983744  0.21149737  0.12299907  1  0.029311  0  -0.090244  0.076252  0  3.869786  0
C  C124  1  0.17834877  0.79184986  0.61279872  1  -0.163741  0  -0.24508  -0.387711  0  3.915389  0
C  C125  1  0.82165175  0.20815037  0.11279785  1  -0.163781  0  -0.245071  -0.387668  0  3.915406  0
C  C126  1  0.96919298  0.66378511  0.61011982  1  -0.087345  0  -0.25131  -0.402853  0  3.947463  0
C  C127  1  0.03080755  0.33621511  0.11011930  1  -0.087411  0  -0.251291  -0.402836  0  3.947497  0
N  N128  1  0.84056224  0.16157819  0.44704264  1  -0.814486  0  -0.253528  -0.281641  0  3.509561  0
N  N129  1  0.15943615  0.83842436  0.94704264  1  -0.814511  0  -0.253517  -0.281615  0  3.509406  0
N  N130  1  0.86314387  0.23068880  0.39533297  1  -0.104228  0  -0.094925  -0.07772  0  3.248963  0
N  N131  1  0.13685851  0.76930992  0.89533384  1  -0.104185  0  -0.094918  -0.077701  0  3.248979  0
N  N132  1  0.75853965  0.28944980  0.38273245  1  -0.095085  0  -0.092532  -0.068072  0  3.229824  0
N  N133  1  0.24145986  0.71054977  0.88273410  1  -0.095138  0  -0.09253  -0.068058  0  3.229818  0
N  N134  1  0.66533973  0.25961273  0.42579663  1  -0.790831  0  -0.252713  -0.281767  0  3.507525  0
N  N135  1  0.33466061  0.74038702  0.92579730  1  -0.790738  0  -0.252733  -0.281776  0  3.507482  0
N  N136  1  0.45799935  0.36169784  0.32516166  1  -0.810891  0  -0.254535  -0.27958  0  3.509801  0
N  N137  1  0.54200039  0.63830239  0.82516204  1  -0.810642  0  -0.254548  -0.279634  0  3.50984  0
N  N138  1  0.37546227  0.29759082  0.28724195  1  -0.11491  0  -0.106537  -0.081132  0  3.237781  0
N  N139  1  0.62453761  0.70240925  0.78724234  1  -0.114937  0  -0.10654  -0.081117  0  3.237873  0
N  N140  1  0.38203914  0.34484778  0.23169934  1  -0.114242  0  -0.120583  -0.113401  0  3.276467  0
N  N141  1  0.61796001  0.65515386  0.73169968  1  -0.114236  0  -0.120571  -0.113408  0  3.276542  0
N  N142  1  0.46871215  0.44041339  0.23242502  1  -0.799545  0  -0.24969  -0.292634  0  3.459137  0
N  N143  1  0.53128602  0.55958825  0.73242533  1  -0.799488  0  -0.249667  -0.292606  0  3.459111  0
N  N144  1  0.35048738  0.20104137  0.44404932  1  -0.806184  0  -0.251584  -0.280503  0  3.522335  0
N  N145  1  0.64951094  0.79895845  0.94404840  1  -0.806247  0  -0.251588  -0.28049  0  3.52223  0
N  N146  1  0.37058446  0.08045976  0.44726510  1  -0.095412  0  -0.08812  -0.067612  0  3.25161  0
N  N147  1  0.62941485  0.91954099  0.94726527  1  -0.095365  0  -0.08809  -0.067591  0  3.251495  0
N  N148  1  0.25965125  0.02542464  0.45944532  1  -0.138829  0  -0.100305  -0.093837  0  3.247993  0
N  N149  1  0.74034897  0.97457526  0.95944546  1  -0.138839  0  -0.100317  -0.093846  0  3.247999  0
N  N150  1  0.16546606  0.10908054  0.46410375  1  -0.784981  0  -0.250534  -0.266775  0  3.508217  0
N  N151  1  0.83453317  0.89091937  0.96410279  1  -0.784982  0  -0.250559  -0.266804  0  3.508301  0
N  N152  1  0.97374651  0.86068025  0.29572259  1  -0.789484  0  -0.253467  -0.277164  0  3.517883  0
N  N153  1  0.02625243  0.13932256  0.79572236  1  -0.789516  0  -0.253371  -0.277071  0  3.517915  0
N  N154  1  0.89880024  0.78993877  0.33389535  1  -0.094932  0  -0.106552  -0.083777  0  3.224139  0
N  N155  1  0.10119854  0.21006330  0.83389561  1  -0.095251  0  -0.106658  -0.083894  0  3.22425  0
N  N156  1  0.89754691  0.84034635  0.38866855  1  -0.152617  0  -0.102295  -0.089024  0  3.320196  0
N  N157  1  0.10245164  0.15965414  0.88866828  1  -0.152307  0  -0.102173  -0.088895  0  3.320238  0
N  N158  1  0.97089595  0.94439313  0.38727876  1  -0.797652  0  -0.247725  -0.292969  0  3.455239  0
N  N159  1  0.02910260  0.05560735  0.88727797  1  -0.797714  0  -0.247814  -0.293041  0  3.455417  0
N  N160  1  0.81583049  0.24352552  0.69627545  1  -0.803538  0  -0.254889  -0.284319  0  3.5138  0
N  N161  1  0.18416976  0.75647597  0.19627575  1  -0.803509  0  -0.254873  -0.284277  0  3.513782  0
N  N162  1  0.72411678  0.21833665  0.74076672  1  -0.075647  0  -0.096484  -0.071854  0  3.215851  0
N  N163  1  0.27588229  0.78166322  0.24076791  1  -0.075703  0  -0.096493  -0.07184  0  3.215764  0
N  N164  1  0.61822873  0.27373092  0.72640494  1  -0.118026  0  -0.094262  -0.07792  0  3.259471  0
N  N165  1  0.38177138  0.72626979  0.22640597  1  -0.118043  0  -0.094317  -0.078008  0  3.259427  0
N  N166  1  0.63832836  0.33576976  0.67212397  1  -0.787707  0  -0.252732  -0.281193  0  3.488498  0
N  N167  1  0.36167295  0.66423162  0.17212448  1  -0.787636  0  -0.252661  -0.281072  0  3.488435  0
N  N168  1  0.13611167  0.30225062  0.67956259  1  -0.758261  0  -0.246996  -0.276619  0  3.522712  0
N  N169  1  0.86388954  0.69774809  0.17956226  1  -0.758243  0  -0.246954  -0.276528  0  3.522705  0
N  N170  1  0.11516155  0.42277961  0.67972673  1  -0.127471  0  -0.088973  -0.069127  0  3.251072  0
N  N171  1  0.88483966  0.57721910  0.17972623  1  -0.127498  0  -0.088965  -0.069149  0  3.251096  0
N  N172  1  0.22449221  0.47974628  0.66677237  1  -0.114159  0  -0.093865  -0.078829  0  3.239378  0
N  N173  1  0.77550806  0.52025238  0.16677144  1  -0.114183  0  -0.093897  -0.078864  0  3.239433  0
N  N174  1  0.31883785  0.39751888  0.65805683  1  -0.773261  0  -0.250862  -0.275673  0  3.504347  0
N  N175  1  0.68116246  0.60247974  0.15805607  1  -0.773234  0  -0.250914  -0.275732  0  3.504466  0
N  N176  1  0.51517243  0.62551962  0.60311081  1  -1.101601  0  -0.618671  -0.57712  0  3.4395  0
N  N177  1  0.48482717  0.37448147  0.10311135  1  -1.101618  0  -0.618689  -0.577185  0  3.439624  0
N  N178  1  0.98584062  0.88101185  0.51730963  1  -1.1626  0  -0.620516  -0.562811  0  3.408423  0
N  N179  1  0.01415726  0.11898617  0.01730980  1  -1.162624  0  -0.620516  -0.5628  0  3.408472  0
O  O180  1  0.51889261  0.41021997  0.54765473  1  -1.188472  0  -0.312909  -0.549293  0  2.283105  0
O  O181  1  0.48110714  0.58977908  0.04765412  1  -1.188486  0  -0.312807  -0.549118  0  2.283282  0
O  O182  1  0.45748143  0.48024130  0.45402374  1  -1.183875  0  -0.317263  -0.526695  0  2.365945  0
O  O183  1  0.54251783  0.51975857  0.95402445  1  -1.183833  0  -0.317235  -0.526667  0  2.365929  0
O  O184  1  0.97590627  0.10211429  0.57143451  1  -1.191777  0  -0.312284  -0.544482  0  2.292337  0
O  O185  1  0.02409244  0.89788576  0.07143511  1  -1.191816  0  -0.312281  -0.544477  0  2.292535  0
O  O186  1  0.00856834  0.02490351  0.66710124  1  -1.168912  0  -0.318109  -0.531214  0  2.38275  0
O  O187  1  0.99143004  0.97509695  0.16710112  1  -1.168919  0  -0.318092  -0.531136  0  2.382726  0
