# generated using pymatgen
data_CdH4C6(N3O2)2
_symmetry_space_group_name_H-M   'P 1'
_cell_length_a   15.83776706
_cell_length_b   15.65530000
_cell_length_c   15.83759545
_cell_angle_alpha   109.23800234
_cell_angle_beta   109.70346354
_cell_angle_gamma   109.23844090
_symmetry_Int_Tables_number   1
_chemical_formula_structural   CdH4C6(N3O2)2
_chemical_formula_sum   'Cd6 H24 C36 N36 O24'
_cell_volume   3031.53163325
_cell_formula_units_Z   6
loop_
 _symmetry_equiv_pos_site_id
 _symmetry_equiv_pos_as_xyz
  1  'x, y, z'
loop_
 _atom_site_type_symbol
 _atom_site_label
 _atom_site_symmetry_multiplicity
 _atom_site_fract_x
 _atom_site_fract_y
 _atom_site_fract_z
 _atom_site_occupancy
 _atom_site_hle17_bader_spin_density
 _atom_site_hle17_ddec_charge
 _atom_site_hle17_ddec_spin_density
 _atom_site_hle17_ddec_sum_bond_order
 _atom_site_hle17_magmom
 _atom_site_hse06_10hf_bader_spin_density
 _atom_site_hse06_10hf_ddec_charge
 _atom_site_hse06_10hf_ddec_spin_density
 _atom_site_hse06_10hf_ddec_sum_bond_order
 _atom_site_hse06_10hf_magmom
 _atom_site_hse06_bader_spin_density
 _atom_site_hse06_ddec_charge
 _atom_site_hse06_ddec_spin_density
 _atom_site_hse06_ddec_sum_bond_order
 _atom_site_hse06_magmom
 _atom_site_pbe_bader_charge
 _atom_site_pbe_bader_spin_density
 _atom_site_pbe_cm5_charge
 _atom_site_pbe_ddec_charge
 _atom_site_pbe_ddec_spin_density
 _atom_site_pbe_ddec_sum_bond_order
 _atom_site_pbe_magmom
Cd  Cd0  1  0.24920361  0.49943206  0.75054346  1  0  1.030359  0  1.861146  0  0  0.803675  0  2.332672  0  0  0.854653  0  2.28815  0  1.252392  0  0.804413  0.767604  0  2.362979  0
Cd  Cd1  1  0.75054706  0.49943276  0.24920103  1  0  1.03035  0  1.861144  0  0  0.803649  0  2.332674  0  0  0.854627  0  2.288151  0  1.252356  0  0.804391  0.767576  0  2.362981  0
Cd  Cd2  1  0.50134575  0.25023118  0.75079829  1  0  1.030347  0  1.861126  0  0  0.803664  0  2.332645  0  0  0.854643  0  2.288121  0  1.252106  0  0.804408  0.767592  0  2.362953  0
Cd  Cd3  1  0.49865975  0.74888822  0.24945508  1  0  1.0303  0  1.861161  0  0  0.803602  0  2.332687  0  0  0.854584  0  2.288163  0  1.2527  0  0.804355  0.76753  0  2.362994  0
Cd  Cd4  1  0.75080217  0.25023200  0.50134576  1  0  1.030335  0  1.861098  0  0  0.803641  0  2.332615  0  0  0.85462  0  2.288094  0  1.252083  0  0.804369  0.767568  0  2.362923  0
Cd  Cd5  1  0.24945622  0.74888548  0.49865471  1  0  1.030307  0  1.861108  0  0  0.803614  0  2.332627  0  0  0.854595  0  2.288105  0  1.252629  0  0.80436  0.767542  0  2.362933  0
H  H6  1  0.13081102  0.56484275  0.89209924  1  0  0.101333  0  0.939097  0  0  0.109445  0  0.999465  0  0  0.111909  0  0.998645  0  0.09783  0  0.118571  0.107646  0  1.000147  0
H  H7  1  0.86907727  0.76085057  0.43363745  1  0  0.101389  0  0.939553  0  0  0.109419  0  0.999997  0  0  0.111928  0  0.99911  0  0.126813  0  0.118491  0.107608  0  1.000704  0
H  H8  1  0.32643624  0.43590797  0.56539374  1  0  0.100908  0  0.940504  0  0  0.109506  0  1.000415  0  0  0.11191  0  0.999636  0  0.082871  0  0.118303  0.107738  0  1.001089  0
H  H9  1  0.67248908  0.23673764  0.10782913  1  0  0.101515  0  0.939808  0  0  0.10987  0  0.999699  0  0  0.11237  0  0.99883  0  0.110947  0  0.118811  0.108008  0  1.000464  0
H  H10  1  0.23896336  0.10947810  0.67355839  1  0  0.100876  0  0.940529  0  0  0.109472  0  1.000442  0  0  0.111876  0  0.999664  0  0.114932  0  0.118306  0.107686  0  1.001136  0
H  H11  1  0.43534729  0.56425494  0.32751186  1  0  0.101557  0  0.939899  0  0  0.109941  0  0.999747  0  0  0.112443  0  0.998877  0  0.111192  0  0.118833  0.108084  0  1.000506  0
H  H12  1  0.76129467  0.43404036  0.86919188  1  0  0.101345  0  0.939135  0  0  0.109487  0  0.999488  0  0  0.111954  0  0.998665  0  0.124659  0  0.118577  0.107685  0  1.00017  0
H  H13  1  0.56457062  0.89177851  0.13092231  1  0  0.10142  0  0.939489  0  0  0.109432  0  0.999963  0  0  0.111941  0  0.999077  0  0.099271  0  0.118508  0.107621  0  1.000669  0
H  H14  1  0.56636590  0.32721804  0.43543997  1  0  0.101429  0  0.939537  0  0  0.109478  0  0.999945  0  0  0.111986  0  0.999059  0  0.087041  0  0.118535  0.107667  0  1.000651  0
H  H15  1  0.10789824  0.67274162  0.23870833  1  0  0.101352  0  0.939135  0  0  0.109476  0  0.99949  0  0  0.111941  0  0.998669  0  0.110536  0  0.118588  0.107677  0  1.000172  0
H  H16  1  0.89217739  0.12891094  0.56466412  1  0  0.10156  0  0.939842  0  0  0.109907  0  0.99973  0  0  0.112407  0  0.998862  0  0.109857  0  0.118842  0.108038  0  1.000503  0
H  H17  1  0.43461099  0.87051651  0.76103932  1  0  0.100947  0  0.940523  0  0  0.109547  0  1.000432  0  0  0.111952  0  0.999652  0  0.114555  0  0.118328  0.107792  0  1.001091  0
H  H18  1  0.13092536  0.89177858  0.56455899  1  0  0.10142  0  0.93953  0  0  0.109468  0  0.999951  0  0  0.111977  0  0.999065  0  0.099486  0  0.118554  0.107657  0  1.000658  0
H  H19  1  0.86919051  0.43403462  0.76129253  1  0  0.101351  0  0.939182  0  0  0.109483  0  0.999532  0  0  0.111949  0  0.998709  0  0.124818  0  0.118594  0.107684  0  1.000213  0
H  H20  1  0.32751378  0.56424773  0.43533686  1  0  0.101529  0  0.939823  0  0  0.109875  0  0.999716  0  0  0.112377  0  0.998846  0  0.111352  0  0.118828  0.108005  0  1.000491  0
H  H21  1  0.67357183  0.10947720  0.23895981  1  0  0.100929  0  0.940551  0  0  0.109534  0  1.000457  0  0  0.111939  0  0.999676  0  0.114865  0  0.118328  0.107779  0  1.001115  0
H  H22  1  0.23870841  0.67274015  0.10789522  1  0  0.101383  0  0.939167  0  0  0.109517  0  0.999512  0  0  0.111982  0  0.998692  0  0.110625  0  0.118595  0.107714  0  1.000192  0
H  H23  1  0.43544059  0.32721497  0.56636420  1  0  0.101436  0  0.939509  0  0  0.109475  0  0.999936  0  0  0.111983  0  0.999051  0  0.086954  0  0.118519  0.107664  0  1.000643  0
H  H24  1  0.76104348  0.87051415  0.43460821  1  0  0.100866  0  0.940546  0  0  0.109457  0  1.000472  0  0  0.111862  0  0.99969  0  0.114637  0  0.118288  0.107687  0  1.001147  0
H  H25  1  0.56466003  0.12890845  0.89216944  1  0  0.101611  0  0.939779  0  0  0.109969  0  0.999661  0  0  0.112468  0  0.998794  0  0.109922  0  0.118861  0.1081  0  1.000434  0
H  H26  1  0.56540430  0.43591747  0.32644062  1  0  0.100845  0  0.940568  0  0  0.109443  0  1.000484  0  0  0.111846  0  0.999707  0  0.082899  0  0.118291  0.10767  0  1.001163  0
H  H27  1  0.10783475  0.23674338  0.67248852  1  0  0.101573  0  0.939905  0  0  0.109957  0  0.999751  0  0  0.112459  0  0.99888  0  0.110769  0  0.118839  0.108092  0  1.00052  0
H  H28  1  0.89210394  0.56484831  0.13080954  1  0  0.101327  0  0.939213  0  0  0.109471  0  0.999554  0  0  0.111937  0  0.998731  0  0.097698  0  0.118577  0.107668  0  1.000234  0
H  H29  1  0.43364690  0.76085452  0.86907669  1  0  0.101407  0  0.939459  0  0  0.109405  0  0.999952  0  0  0.111915  0  0.999065  0  0.12689  0  0.118484  0.107594  0  1.000659  0
C  C30  1  0.36988825  0.63774115  0.99999880  1  0  0.307973  0  3.794324  0  0  0.25968  0  4.070229  0  0  0.264038  0  4.093881  0  1.365894  0  0.282576  0.256427  0  4.054403  0
C  C31  1  0.63016681  0.63005526  0.26779386  1  0  0.307179  0  3.800692  0  0  0.259195  0  4.076173  0  0  0.26346  0  4.099919  0  1.389312  0  0.282235  0.256001  0  4.060288  0
C  C32  1  0.36237145  0.36226043  0.73220545  1  0  0.307143  0  3.800571  0  0  0.259126  0  4.076108  0  0  0.263392  0  4.099853  0  1.366664  0  0.282213  0.255932  0  4.060224  0
C  C33  1  0.63789441  0.37028322  0.99999940  1  0  0.310184  0  3.792244  0  0  0.262317  0  4.067628  0  0  0.266815  0  4.091177  0  1.36765  0  0.283011  0.258973  0  4.051874  0
C  C34  1  0.36983536  0.99988967  0.63762933  1  0  0.307055  0  3.800741  0  0  0.259099  0  4.076191  0  0  0.263364  0  4.099936  0  1.366966  0  0.282223  0.255905  0  4.060306  0
C  C35  1  0.36210663  0.73239012  0.36210432  1  0  0.31025  0  3.79221  0  0  0.262379  0  4.067582  0  0  0.266876  0  4.09113  0  1.349947  0  0.283072  0.259035  0  4.051829  0
C  C36  1  0.63011394  0.26785502  0.63011394  1  0  0.307931  0  3.794446  0  0  0.259638  0  4.070337  0  0  0.263997  0  4.093987  0  1.373821  0  0.282589  0.256385  0  4.05451  0
C  C37  1  0.63762918  0.99989083  0.36983211  1  0  0.307039  0  3.800767  0  0  0.259044  0  4.076285  0  0  0.263309  0  4.100031  0  1.367088  0  0.282155  0.255851  0  4.060399  0
C  C38  1  0.73220754  0.36226216  0.36237199  1  0  0.307099  0  3.80072  0  0  0.259154  0  4.07615  0  0  0.263419  0  4.099895  0  1.366651  0  0.282243  0.255961  0  4.060265  0
C  C39  1  0.00000030  0.63773994  0.36988681  1  0  0.308008  0  3.794334  0  0  0.259705  0  4.070232  0  0  0.264065  0  4.093879  0  1.365897  0  0.282589  0.256452  0  4.054407  0
C  C40  1  0.00000211  0.37028577  0.63789650  1  0  0.310231  0  3.792186  0  0  0.262385  0  4.067537  0  0  0.266885  0  4.091083  0  1.367573  0  0.283056  0.25904  0  4.051786  0
C  C41  1  0.26779730  0.63005768  0.63016717  1  0  0.306985  0  3.800717  0  0  0.258958  0  4.076279  0  0  0.263223  0  4.100026  0  1.389312  0  0.282135  0.255765  0  4.060391  0
C  C42  1  0.21163419  0.59671842  0.94589444  1  0  0.044268  0  3.693496  0  0  0.003876  0  3.964797  0  0  0.00509  0  3.985668  0  0.509594  0  0.01599  0.003066  0  3.950528  0
C  C43  1  0.78832034  0.73421060  0.38483053  1  0  0.046189  0  3.690624  0  0  0.005662  0  3.962059  0  0  0.006899  0  3.982853  0  0.366593  0  0.016738  0.004823  0  3.947858  0
C  C44  1  0.34867526  0.40372265  0.61461285  1  0  0.045524  0  3.691423  0  0  0.004136  0  3.963483  0  0  0.005417  0  3.984304  0  0.505405  0  0.016664  0.00328  0  3.949268  0
C  C45  1  0.65071120  0.26448737  0.05408812  1  0  0.045287  0  3.692499  0  0  0.004644  0  3.963766  0  0  0.00585  0  3.98463  0  0.388723  0  0.016533  0.003874  0  3.949511  0
C  C46  1  0.26594157  0.05505136  0.65132084  1  0  0.045574  0  3.691333  0  0  0.004173  0  3.963416  0  0  0.005455  0  3.984235  0  0.475152  0  0.01666  0.003332  0  3.949208  0
C  C47  1  0.40338301  0.61378100  0.34928923  1  0  0.045129  0  3.692653  0  0  0.004457  0  3.963903  0  0  0.005661  0  3.984771  0  0.50589  0  0.01648  0.003684  0  3.949645  0
C  C48  1  0.73426568  0.38509095  0.78836872  1  0  0.044055  0  3.693567  0  0  0.00362  0  3.964901  0  0  0.00483  0  3.985773  0  0.344705  0  0.015893  0.002815  0  3.95063  0
C  C49  1  0.59651811  0.94589438  0.21167937  1  0  0.046234  0  3.690635  0  0  0.005737  0  3.962067  0  0  0.006974  0  3.982862  0  0.350977  0  0.016699  0.004897  0  3.947869  0
C  C50  1  0.61517380  0.34938475  0.40349138  1  0  0.046085  0  3.690574  0  0  0.005552  0  3.962024  0  0  0.00679  0  3.982817  0  0.399623  0  0.016628  0.004713  0  3.947823  0
C  C51  1  0.05410444  0.65082345  0.26573590  1  0  0.044068  0  3.693655  0  0  0.003653  0  3.964982  0  0  0.004864  0  3.985852  0  0.493133  0  0.015877  0.002842  0  3.950715  0
C  C52  1  0.94591621  0.21040151  0.59662442  1  0  0.045258  0  3.692434  0  0  0.004624  0  3.963708  0  0  0.005829  0  3.984573  0  0.481562  0  0.016526  0.003861  0  3.949456  0
C  C53  1  0.38539279  0.78911224  0.73406141  1  0  0.045445  0  3.691586  0  0  0.00404  0  3.96365  0  0  0.00532  0  3.984471  0  0.468398  0  0.016617  0.003172  0  3.94943  0
C  C54  1  0.21168219  0.94589343  0.59650779  1  0  0.046215  0  3.690618  0  0  0.005679  0  3.962082  0  0  0.006917  0  3.982874  0  0.38963  0  0.016663  0.00484  0  3.947878  0
C  C55  1  0.78836823  0.38508840  0.73426441  1  0  0.044082  0  3.693685  0  0  0.003653  0  3.965011  0  0  0.004863  0  3.985884  0  0.483635  0  0.0159  0.002844  0  3.950743  0
C  C56  1  0.34929245  0.61377730  0.40337619  1  0  0.045324  0  3.692332  0  0  0.004698  0  3.963595  0  0  0.005902  0  3.984461  0  0.367445  0  0.016537  0.003936  0  3.949345  0
C  C57  1  0.65133153  0.05505168  0.26593836  1  0  0.045475  0  3.69164  0  0  0.004065  0  3.963712  0  0  0.005345  0  3.984531  0  0.514816  0  0.016608  0.003197  0  3.949492  0
C  C58  1  0.26573733  0.65082250  0.05410279  1  0  0.043875  0  3.693715  0  0  0.003436  0  3.965055  0  0  0.004648  0  3.985924  0  0.354095  0  0.015817  0.002635  0  3.95078  0
C  C59  1  0.40349064  0.34938118  0.61517075  1  0  0.046115  0  3.690582  0  0  0.005593  0  3.962019  0  0  0.00683  0  3.982813  0  0.399657  0  0.016664  0.004754  0  3.947817  0
C  C60  1  0.73406348  0.78911026  0.38538869  1  0  0.045661  0  3.691359  0  0  0.004276  0  3.963415  0  0  0.005557  0  3.984236  0  0.468444  0  0.016687  0.003421  0  3.949202  0
C  C61  1  0.59662269  0.21039845  0.94591062  1  0  0.045028  0  3.69249  0  0  0.004375  0  3.963771  0  0  0.00558  0  3.984635  0  0.48525  0  0.016425  0.003611  0  3.94952  0
C  C62  1  0.61461980  0.40372954  0.34867835  1  0  0.045701  0  3.691304  0  0  0.004303  0  3.963374  0  0  0.005585  0  3.984195  0  0.505488  0  0.016694  0.003451  0  3.94916  0
C  C63  1  0.05409321  0.26449139  0.65071089  1  0  0.045082  0  3.692714  0  0  0.004404  0  3.963979  0  0  0.005609  0  3.984845  0  0.392573  0  0.016445  0.003638  0  3.949726  0
C  C64  1  0.94589786  0.59672181  0.21163221  1  0  0.044096  0  3.693629  0  0  0.003656  0  3.964954  0  0  0.004866  0  3.985825  0  0.370903  0  0.015912  0.002853  0  3.950682  0
C  C65  1  0.38483830  0.73421391  0.78832040  1  0  0.046243  0  3.690547  0  0  0.005754  0  3.961985  0  0  0.006991  0  3.982779  0  0.366721  0  0.016738  0.004914  0  3.947787  0
N  N66  1  0.27868757  0.58908069  0.91255800  1  0  -0.406098  0  3.245312  0  0  -0.330319  0  3.525571  0  0  -0.348324  0  3.544051  0  -1.18374  0  -0.352106  -0.31772  0  3.51271  0
N  N67  1  0.72140258  0.63334510  0.30983859  1  0  -0.406157  0  3.249953  0  0  -0.330575  0  3.530596  0  0  -0.348593  0  3.549117  0  -1.202189  0  -0.352646  -0.31797  0  3.517719  0
N  N68  1  0.32291234  0.41115257  0.68917103  1  0  -0.405923  0  3.24714  0  0  -0.330527  0  3.527579  0  0  -0.348458  0  3.54609  0  -1.181036  0  -0.35245  -0.31797  0  3.51469  0
N  N69  1  0.67659229  0.36592617  0.08741327  1  0  -0.407785  0  3.247038  0  0  -0.332066  0  3.52788  0  0  -0.350162  0  3.546317  0  -1.205653  0  -0.353123  -0.319404  0  3.515037  0
N  N70  1  0.36626328  0.08824373  0.67708610  1  0  -0.405936  0  3.247127  0  0  -0.330536  0  3.527529  0  0  -0.348467  0  3.546041  0  -1.197051  0  -0.352478  -0.317978  0  3.514633  0
N  N71  1  0.41082546  0.68933844  0.32340869  1  0  -0.407741  0  3.24704  0  0  -0.332011  0  3.527877  0  0  -0.350108  0  3.546318  0  -1.199928  0  -0.353098  -0.319349  0  3.515035  0
N  N72  1  0.63387631  0.31039805  0.72131470  1  0  -0.406001  0  3.24512  0  0  -0.330201  0  3.52537  0  0  -0.348207  0  3.543853  0  -1.189465  0  -0.352077  -0.317601  0  3.512507  0
N  N73  1  0.58844082  0.91194476  0.27859485  1  0  -0.406193  0  3.249775  0  0  -0.330625  0  3.53044  0  0  -0.348642  0  3.54896  0  -1.183994  0  -0.352682  -0.31802  0  3.517563  0
N  N74  1  0.69016195  0.32350696  0.41156404  1  0  -0.406106  0  3.249689  0  0  -0.330556  0  3.530345  0  0  -0.348573  0  3.548867  0  -1.191978  0  -0.352602  -0.31795  0  3.517468  0
N  N75  1  0.08743976  0.67651914  0.36612570  1  0  -0.406026  0  3.24516  0  0  -0.33023  0  3.525402  0  0  -0.348237  0  3.543885  0  -1.190648  0  -0.352036  -0.31763  0  3.512541  0
N  N76  1  0.91258930  0.27851415  0.58918184  1  0  -0.407777  0  3.246971  0  0  -0.332076  0  3.527813  0  0  -0.350172  0  3.546248  0  -1.206983  0  -0.353114  -0.319415  0  3.514969  0
N  N77  1  0.31083062  0.72198347  0.63374000  1  0  -0.405806  0  3.247223  0  0  -0.33039  0  3.52764  0  0  -0.348322  0  3.546154  0  -1.192239  0  -0.35235  -0.317833  0  3.514753  0
N  N78  1  0.27859803  0.91194373  0.58843706  1  0  -0.406133  0  3.249772  0  0  -0.330582  0  3.530436  0  0  -0.348599  0  3.548958  0  -1.183537  0  -0.352644  -0.317977  0  3.51756  0
N  N79  1  0.72131395  0.31039531  0.63387555  1  0  -0.40602  0  3.245225  0  0  -0.330215  0  3.525464  0  0  -0.348221  0  3.543948  0  -1.189541  0  -0.352056  -0.317614  0  3.512601  0
N  N80  1  0.32340891  0.68933276  0.41081873  1  0  -0.407829  0  3.246979  0  0  -0.332124  0  3.527825  0  0  -0.35022  0  3.546263  0  -1.199712  0  -0.353095  -0.319462  0  3.514979  0
N  N81  1  0.67708996  0.08824303  0.36625864  1  0  -0.40585  0  3.247257  0  0  -0.330451  0  3.527672  0  0  -0.348381  0  3.546185  0  -1.197424  0  -0.352359  -0.317894  0  3.514787  0
N  N82  1  0.36612593  0.67652055  0.08743845  1  0  -0.405958  0  3.245261  0  0  -0.330151  0  3.525488  0  0  -0.348157  0  3.543973  0  -1.190433  0  -0.352031  -0.317551  0  3.512623  0
N  N83  1  0.41156391  0.32350638  0.69016181  1  0  -0.406091  0  3.249725  0  0  -0.330509  0  3.530394  0  0  -0.348526  0  3.548916  0  -1.192033  0  -0.352593  -0.317904  0  3.517518  0
N  N84  1  0.63374162  0.72198194  0.31082915  1  0  -0.406034  0  3.247172  0  0  -0.33065  0  3.527599  0  0  -0.348582  0  3.546111  0  -1.192199  0  -0.352488  -0.318092  0  3.51471  0
N  N85  1  0.58917882  0.27851281  0.91258550  1  0  -0.407694  0  3.246908  0  0  -0.331975  0  3.527738  0  0  -0.350069  0  3.546174  0  -1.207081  0  -0.353099  -0.319313  0  3.514893  0
N  N86  1  0.68917701  0.41115735  0.32291446  1  0  -0.405965  0  3.247123  0  0  -0.330569  0  3.527522  0  0  -0.348499  0  3.546034  0  -1.181141  0  -0.35246  -0.318011  0  3.51463  0
N  N87  1  0.08741680  0.36593038  0.67659196  1  0  -0.407742  0  3.247034  0  0  -0.332028  0  3.527866  0  0  -0.350125  0  3.546305  0  -1.205638  0  -0.353128  -0.319366  0  3.515022  0
N  N88  1  0.91256172  0.58908254  0.27868589  1  0  -0.406063  0  3.24513  0  0  -0.330255  0  3.525379  0  0  -0.34826  0  3.543859  0  -1.183776  0  -0.352103  -0.317655  0  3.512516  0
N  N89  1  0.30984600  0.63334886  0.72140459  1  0  -0.406152  0  3.249788  0  0  -0.330572  0  3.53045  0  0  -0.348589  0  3.548971  0  -1.202254  0  -0.352676  -0.317966  0  3.517573  0
N  N90  1  0.46269253  0.64953995  0.00000002  1  0  0.44839  0  3.950265  0  0  0.483302  0  4.24549  0  0  0.504498  0  4.252953  0  0.261079  0  0.046038  0.469141  0  4.240313  0
N  N91  1  0.53739751  0.53704966  0.18677830  1  0  0.44691  0  3.948846  0  0  0.481355  0  4.244301  0  0  0.502549  0  4.251921  0  0.262571  0  0.044999  0.4672  0  4.239017  0
N  N92  1  0.35061877  0.35027123  0.81322248  1  0  0.44698  0  3.948841  0  0  0.481444  0  4.244296  0  0  0.502638  0  4.251915  0  0.261105  0  0.045079  0.467289  0  4.239011  0
N  N93  1  0.64977475  0.46424597  0.99999998  1  0  0.443864  0  3.953801  0  0  0.478648  0  4.249135  0  0  0.49977  0  4.256735  0  0.287218  0  0.043924  0.464541  0  4.243864  0
N  N94  1  0.46260273  0.99965066  0.64938152  1  0  0.447053  0  3.948708  0  0  0.481494  0  4.244153  0  0  0.50269  0  4.25177  0  0.260874  0  0.045106  0.467338  0  4.23887  0
N  N95  1  0.35022679  0.81447280  0.35022601  1  0  0.444069  0  3.953703  0  0  0.478864  0  4.249018  0  0  0.499987  0  4.256615  0  0.295621  0  0.044028  0.464757  0  4.243747  0
N  N96  1  0.53730896  0.18684869  0.53730896  1  0  0.448351  0  3.950319  0  0  0.483262  0  4.245554  0  0  0.504459  0  4.253018  0  0.260379  0  0.046032  0.469101  0  4.240375  0
N  N97  1  0.64938230  0.99965245  0.46260119  1  0  0.447026  0  3.948834  0  0  0.481459  0  4.244306  0  0  0.502654  0  4.251923  0  0.260791  0  0.045054  0.467303  0  4.239022  0
N  N98  1  0.81322161  0.35026996  0.35061791  1  0  0.447015  0  3.948828  0  0  0.481464  0  4.244265  0  0  0.502659  0  4.251882  0  0.261177  0  0.0451  0.467308  0  4.238981  0
N  N99  1  0.99999955  0.64953906  0.46269206  1  0  0.448381  0  3.950327  0  0  0.483292  0  4.245562  0  0  0.504489  0  4.253025  0  0.261105  0  0.046039  0.469131  0  4.240384  0
N  N100  1  0.00000027  0.46424712  0.64977427  1  0  0.443893  0  3.953721  0  0  0.478672  0  4.249055  0  0  0.499793  0  4.256656  0  0.28719  0  0.043934  0.464565  0  4.243783  0
N  N101  1  0.18677934  0.53705036  0.53739855  1  0  0.447065  0  3.948744  0  0  0.481511  0  4.244211  0  0  0.502705  0  4.251829  0  0.262016  0  0.045062  0.467355  0  4.238927  0
O  O102  1  0.54406196  0.69784760  0.08528144  1  0  -0.375762  0  1.750431  0  0  -0.356  0  1.958184  0  0  -0.367163  0  1.951712  0  -0.465307  0  -0.14778  -0.348291  0  1.96268  0
O  O103  1  0.45594431  0.54157096  0.15430070  1  0  -0.378171  0  1.755363  0  0  -0.356916  0  1.964285  0  0  -0.368401  0  1.957708  0  -0.48398  0  -0.148483  -0.348984  0  1.968844  0
O  O104  1  0.38820273  0.30183090  0.84703730  1  0  -0.37283  0  1.74864  0  0  -0.352878  0  1.956352  0  0  -0.363885  0  1.949932  0  -0.476365  0  -0.146391  -0.345266  0  1.960807  0
O  O105  1  0.61281111  0.46079169  0.91471727  1  0  -0.373212  0  1.749954  0  0  -0.353351  0  1.957204  0  0  -0.364485  0  1.950762  0  -0.485685  0  -0.146501  -0.345662  0  1.961678  0
O  O106  1  0.45883220  0.91362616  0.61179842  1  0  -0.372915  0  1.748585  0  0  -0.352951  0  1.956303  0  0  -0.363959  0  1.949881  0  -0.486249  0  -0.146428  -0.345339  0  1.96076  0
O  O107  1  0.30190684  0.84797890  0.38718924  1  0  -0.373316  0  1.750022  0  0  -0.35344  0  1.957254  0  0  -0.364575  0  1.950811  0  -0.483794  0  -0.146544  -0.34575  0  1.96173  0
O  O108  1  0.54121914  0.15378530  0.45593829  1  0  -0.375705  0  1.750396  0  0  -0.355943  0  1.958145  0  0  -0.367106  0  1.951675  0  -0.479356  0  -0.147757  -0.348234  0  1.96264  0
O  O109  1  0.69835690  0.08562753  0.54405553  1  0  -0.378183  0  1.755376  0  0  -0.35691  0  1.964288  0  0  -0.368395  0  1.957707  0  -0.467283  0  -0.148471  -0.348977  0  1.968846  0
O  O110  1  0.84569915  0.38726669  0.30164088  1  0  -0.378166  0  1.755362  0  0  -0.356921  0  1.96429  0  0  -0.368407  0  1.957711  0  -0.481429  0  -0.148505  -0.34899  0  1.968849  0
O  O111  1  0.91471839  0.61256605  0.45877959  1  0  -0.37575  0  1.750423  0  0  -0.355984  0  1.958172  0  0  -0.367148  0  1.951702  0  -0.486079  0  -0.147774  -0.348275  0  1.962668  0
O  O112  1  0.08528176  0.54607593  0.69809182  1  0  -0.373252  0  1.749891  0  0  -0.35339  0  1.957135  0  0  -0.364523  0  1.950694  0  -0.476104  0  -0.14652  -0.345701  0  1.96161  0
O  O113  1  0.15296637  0.45479631  0.54117037  1  0  -0.372902  0  1.748565  0  0  -0.352915  0  1.956265  0  0  -0.363924  0  1.949844  0  -0.475022  0  -0.146391  -0.345303  0  1.960721  0
O  O114  1  0.54405777  0.08562580  0.69835836  1  0  -0.378185  0  1.75528  0  0  -0.356939  0  1.964205  0  0  -0.368425  0  1.957626  0  -0.468044  0  -0.148528  -0.349006  0  1.968763  0
O  O115  1  0.45593930  0.15378721  0.54122092  1  0  -0.375717  0  1.750353  0  0  -0.355966  0  1.958111  0  0  -0.367129  0  1.95164  0  -0.479358  0  -0.147767  -0.348257  0  1.962606  0
O  O116  1  0.38719119  0.84798433  0.30190879  1  0  -0.373329  0  1.749907  0  0  -0.353468  0  1.957146  0  0  -0.364603  0  1.950703  0  -0.48365  0  -0.146559  -0.345779  0  1.961621  0
O  O117  1  0.61179986  0.91362687  0.45882978  1  0  -0.37288  0  1.748566  0  0  -0.352903  0  1.956277  0  0  -0.363911  0  1.949855  0  -0.485311  0  -0.146408  -0.34529  0  1.960732  0
O  O118  1  0.45878112  0.61256605  0.91471837  1  0  -0.375746  0  1.75036  0  0  -0.355975  0  1.958099  0  0  -0.367138  0  1.951627  0  -0.48611  0  -0.147767  -0.348266  0  1.962595  0
O  O119  1  0.30164251  0.38726963  0.84569924  1  0  -0.378235  0  1.755391  0  0  -0.35698  0  1.964306  0  0  -0.368465  0  1.957728  0  -0.481346  0  -0.148526  -0.349047  0  1.968864  0
O  O120  1  0.54116516  0.45479428  0.15296425  1  0  -0.372815  0  1.748636  0  0  -0.352855  0  1.956352  0  0  -0.363861  0  1.949931  0  -0.475025  0  -0.146376  -0.345243  0  1.960807  0
O  O121  1  0.69809357  0.54607395  0.08528273  1  0  -0.373205  0  1.749987  0  0  -0.35333  0  1.957223  0  0  -0.364465  0  1.950782  0  -0.476082  0  -0.146487  -0.34564  0  1.961697  0
O  O122  1  0.84703466  0.30182854  0.38820241  1  0  -0.372882  0  1.748595  0  0  -0.35293  0  1.95631  0  0  -0.363939  0  1.949889  0  -0.476396  0  -0.146413  -0.345318  0  1.960767  0
O  O123  1  0.91471702  0.46078972  0.61281086  1  0  -0.37323  0  1.750034  0  0  -0.353355  0  1.957276  0  0  -0.364491  0  1.950836  0  -0.48568  0  -0.146509  -0.345666  0  1.961751  0
O  O124  1  0.08528014  0.69784670  0.54406219  1  0  -0.37572  0  1.75038  0  0  -0.355958  0  1.958126  0  0  -0.367121  0  1.951656  0  -0.465301  0  -0.147758  -0.348249  0  1.962621  0
O  O125  1  0.15430133  0.54157103  0.45594417  1  0  -0.378201  0  1.755358  0  0  -0.356945  0  1.964278  0  0  -0.36843  0  1.957698  0  -0.483369  0  -0.1485  -0.349013  0  1.968836  0
