# generated using pymatgen
data_ZnH9C15NO8
_symmetry_space_group_name_H-M   'P 1'
_cell_length_a   9.54729347
_cell_length_b   10.82987174
_cell_length_c   10.84706103
_cell_angle_alpha   91.56606144
_cell_angle_beta   85.95594056
_cell_angle_gamma   91.43472784
_symmetry_Int_Tables_number   1
_chemical_formula_structural   ZnH9C15NO8
_chemical_formula_sum   'Zn2 H18 C30 N2 O16'
_cell_volume   1118.03152737
_cell_formula_units_Z   2
loop_
 _symmetry_equiv_pos_site_id
 _symmetry_equiv_pos_as_xyz
  1  'x, y, z'
loop_
 _atom_site_type_symbol
 _atom_site_label
 _atom_site_symmetry_multiplicity
 _atom_site_fract_x
 _atom_site_fract_y
 _atom_site_fract_z
 _atom_site_occupancy
 _atom_site_pbe_bader_charge
 _atom_site_pbe_bader_spin_density
 _atom_site_pbe_cm5_charge
 _atom_site_pbe_ddec_charge
 _atom_site_pbe_ddec_spin_density
 _atom_site_pbe_ddec_sum_bond_order
 _atom_site_pbe_magmom
Zn  Zn0  1  0.64681150  0.50755334  0.49194536  1  1.27516  0  0.663302  0.806888  0  2.441237  0
Zn  Zn1  1  0.35318663  0.49244320  0.50806104  1  1.279214  0  0.663347  0.806963  0  2.441304  0
H  H2  1  0.64366343  0.93087745  0.31595414  1  0.043087  0  0.090023  0.071394  0  1.008695  0
H  H3  1  0.35634425  0.06911766  0.68401870  1  0.043448  0  0.090067  0.071454  0  1.008745  0
H  H4  1  0.74753827  0.06187952  0.52259498  1  0.055649  0  0.095858  0.094513  0  1.003375  0
H  H5  1  0.25247047  0.93811374  0.47737689  1  0.055828  0  0.095883  0.094566  0  1.003187  0
H  H6  1  0.58169441  0.90080087  0.68090389  1  0.04296  0  0.095176  0.081916  0  0.99367  0
H  H7  1  0.41831428  0.09919148  0.31906890  1  0.042449  0  0.095233  0.082062  0  0.993657  0
H  H8  1  0.56680830  0.71249229  0.94496464  1  0.050878  0  0.104089  0.096466  0  0.982443  0
H  H9  1  0.43318338  0.28750053  0.05504472  1  0.051103  0  0.104074  0.096453  0  0.982495  0
H  H10  1  0.74135461  0.54321423  0.05859158  1  0.102716  0  0.106399  0.109116  0  0.980358  0
H  H11  1  0.25863723  0.45677851  0.94141315  1  0.10259  0  0.106368  0.109061  0  0.980291  0
H  H12  1  0.12635950  0.48744440  0.29879869  1  0.19716  0  0.127309  0.130703  0  0.98448  0
H  H13  1  0.87363848  0.51258103  0.70122179  1  0.196823  0  0.127295  0.130693  0  0.984329  0
H  H14  1  0.89500115  0.32522343  0.39347530  1  0.164151  0  0.133957  0.127104  0  0.944393  0
H  H15  1  0.10500009  0.67480012  0.60654137  1  0.163943  0  0.134023  0.127151  0  0.944257  0
H  H16  1  0.68547520  0.20499657  0.74808052  1  0.62601  0  0.342547  0.386323  0  0.855086  0
H  H17  1  0.31453648  0.79500018  0.25192818  1  0.627964  0  0.342571  0.386376  0  0.85511  0
H  H18  1  0.84174769  0.76528526  0.23934979  1  0.627937  0  0.353934  0.385273  0  0.843613  0
H  H19  1  0.15823143  0.23471019  0.76066002  1  0.627904  0  0.353911  0.385247  0  0.843639  0
C  C20  1  0.50822705  0.47499720  0.25926318  1  1.613562  0  0.211263  0.586149  0  4.206885  0
C  C21  1  0.49176157  0.52499461  0.74074351  1  1.614128  0  0.211296  0.586103  0  4.207343  0
C  C22  1  0.59097681  0.42049113  0.93924517  1  0.01993  0  -0.000939  -0.046608  0  3.643127  0
C  C23  1  0.40901708  0.57950259  0.06076135  1  0.019975  0  -0.000933  -0.04649  0  3.642779  0
C  C24  1  0.06411363  0.49165416  0.38702831  1  0.18304  0  0.037476  0.036351  0  3.491429  0
C  C25  1  0.93588754  0.50836663  0.61298925  1  0.183704  0  0.037431  0.03624  0  3.491173  0
C  C26  1  0.97594162  0.60248316  0.43968312  1  0.206242  0  0.101398  0.048693  0  3.577426  0
C  C27  1  0.02405210  0.39753760  0.56033747  1  0.206666  0  0.101582  0.049183  0  3.577136  0
C  C28  1  0.94810967  0.40198027  0.43962702  1  0.200209  0  0.036287  0.030527  0  3.528246  0
C  C29  1  0.05188729  0.59804234  0.56039163  1  0.199948  0  0.03622  0.030755  0  3.527906  0
C  C30  1  0.51482129  0.26156974  0.52138554  1  1.59887  0  0.210417  0.58867  0  4.202908  0
C  C31  1  0.48518785  0.73842387  0.47860477  1  1.598872  0  0.210412  0.588636  0  4.202701  0
C  C32  1  0.63773833  0.03414610  0.51278404  1  -0.010807  0  -0.083422  -0.0817  0  3.640036  0
C  C33  1  0.36227347  0.96584817  0.48719050  1  -0.011084  0  -0.083408  -0.081692  0  3.640107  0
C  C34  1  0.58050908  0.96302188  0.39820994  1  -0.010998  0  -0.078162  -0.060938  0  3.643487  0
C  C35  1  0.41949957  0.03697236  0.60176470  1  -0.011101  0  -0.078091  -0.060889  0  3.643558  0
C  C36  1  0.48781989  0.87549114  0.48588731  1  -0.04175  0  -0.012021  -0.034346  0  3.663472  0
C  C37  1  0.51218774  0.12450307  0.51408645  1  -0.041753  0  -0.012083  -0.03457  0  3.663587  0
C  C38  1  0.54578432  0.94737192  0.60096966  1  -0.024546  0  -0.076125  -0.062766  0  3.630447  0
C  C39  1  0.45422216  0.05262140  0.39900690  1  -0.023383  0  -0.07635  -0.063224  0  3.630819  0
C  C40  1  0.63456265  0.52509998  0.03147134  1  -0.025638  0  -0.071874  -0.076096  0  3.622374  0
C  C41  1  0.36543023  0.47489371  0.96853430  1  -0.02621  0  -0.071815  -0.075936  0  3.622165  0
C  C42  1  0.53839516  0.61772246  0.97072917  1  0.005845  0  -0.063448  -0.066202  0  3.596201  0
C  C43  1  0.46159983  0.38226939  0.02927545  1  0.005983  0  -0.063532  -0.066327  0  3.596191  0
C  C44  1  0.49158812  0.51324514  0.87746869  1  0.001077  0  0.005964  -0.017496  0  3.609113  0
C  C45  1  0.50840469  0.48674766  0.12253878  1  0.000872  0  0.005918  -0.017389  0  3.608744  0
C  C46  1  0.68746028  0.33988820  0.86279102  1  1.462721  0  0.229832  0.582865  0  4.13197  0
C  C47  1  0.31253783  0.66010928  0.13721631  1  1.462975  0  0.229828  0.582766  0  4.13191  0
C  C48  1  0.94327360  0.71590799  0.37205254  1  1.56768  0  0.240666  0.571226  0  4.136714  0
C  C49  1  0.05671725  0.28410795  0.62795888  1  1.566961  0  0.240646  0.571117  0  4.136471  0
N  N50  1  0.86009589  0.51137282  0.49210369  1  -0.81005  0  -0.296684  -0.177454  0  3.007351  0
N  N51  1  0.13990092  0.48864523  0.50791770  1  -0.809956  0  -0.296702  -0.177652  0  3.007612  0
O  O52  1  0.62628942  0.47232391  0.30579134  1  -1.15531  0  -0.314776  -0.531818  0  2.310791  0
O  O53  1  0.37370004  0.52766059  0.69421894  1  -1.155856  0  -0.314853  -0.531814  0  2.310996  0
O  O54  1  0.38735150  0.47039111  0.31701975  1  -1.173232  0  -0.318624  -0.55796  0  2.33115  0
O  O55  1  0.61263726  0.52961457  0.68298797  1  -1.173264  0  -0.318609  -0.557943  0  2.331313  0
O  O56  1  0.63345210  0.31837489  0.51745798  1  -1.170182  0  -0.320166  -0.55595  0  2.322313  0
O  O57  1  0.36655538  0.68161995  0.48254992  1  -1.170137  0  -0.320159  -0.555992  0  2.32228  0
O  O58  1  0.39473692  0.31143933  0.52757301  1  -1.168201  0  -0.323947  -0.553335  0  2.344134  0
O  O59  1  0.60527099  0.68855529  0.47242288  1  -1.168456  0  -0.323972  -0.553393  0  2.344241  0
O  O60  1  0.81477634  0.35629368  0.84676792  1  -1.115686  0  -0.295273  -0.506185  0  2.115863  0
O  O61  1  0.61725264  0.24484830  0.80738442  1  -1.125996  0  -0.337466  -0.483457  0  2.206932  0
O  O62  1  0.18522285  0.64371216  0.15324129  1  -1.115999  0  -0.295263  -0.506125  0  2.115848  0
O  O63  1  0.38275384  0.75514464  0.19262166  1  -1.127924  0  -0.337529  -0.483557  0  2.206945  0
O  O64  1  0.98899007  0.81885699  0.39790591  1  -1.114012  0  -0.280935  -0.476893  0  2.064831  0
O  O65  1  0.86124952  0.68782967  0.27879042  1  -1.10081  0  -0.311975  -0.445002  0  2.27163  0
O  O66  1  0.01099808  0.18115959  0.60209269  1  -1.113434  0  -0.280902  -0.476839  0  2.064726  0
O  O67  1  0.13874001  0.31217244  0.72122370  1  -1.100462  0  -0.311963  -0.444969  0  2.271735  0
