# generated using pymatgen
data_Hf3H20C33N3O16
_symmetry_space_group_name_H-M   'P 1'
_cell_length_a   14.13509816
_cell_length_b   14.13661599
_cell_length_c   14.14051671
_cell_angle_alpha   88.75835948
_cell_angle_beta   88.75952121
_cell_angle_gamma   88.79576777
_symmetry_Int_Tables_number   1
_chemical_formula_structural   Hf3H20C33N3O16
_chemical_formula_sum   'Hf6 H40 C66 N6 O32'
_cell_volume   2823.67044836
_cell_formula_units_Z   2
loop_
 _symmetry_equiv_pos_site_id
 _symmetry_equiv_pos_as_xyz
  1  'x, y, z'
loop_
 _atom_site_type_symbol
 _atom_site_label
 _atom_site_symmetry_multiplicity
 _atom_site_fract_x
 _atom_site_fract_y
 _atom_site_fract_z
 _atom_site_occupancy
 _atom_site_pbe_bader_charge
 _atom_site_pbe_bader_spin_density
 _atom_site_pbe_cm5_charge
 _atom_site_pbe_ddec_charge
 _atom_site_pbe_ddec_spin_density
 _atom_site_pbe_ddec_sum_bond_order
 _atom_site_pbe_magmom
Hf  Hf0  1  0.18222690  0.19260464  0.04726117  1  2.618872  0  1.500211  2.146906  0  3.310608  0
Hf  Hf1  1  0.28254748  0.98621891  0.15299034  1  2.621777  0  1.50052  2.147047  0  3.311074  0
Hf  Hf2  1  0.96575350  0.08144047  0.03406181  1  2.614101  0  1.499748  2.147375  0  3.309075  0
Hf  Hf3  1  0.07618892  0.09192192  0.25343601  1  2.621837  0  1.500042  2.146962  0  3.31048  0
Hf  Hf4  1  0.17147290  0.97335513  0.93653001  1  2.614921  0  1.49902  2.147855  0  3.306695  0
Hf  Hf5  1  0.06311298  0.87561023  0.14212157  1  2.618967  0  1.498727  2.147312  0  3.306855  0
H  H6  1  0.83140530  0.46461600  0.79349316  1  0.082915  0  0.117066  0.135167  0  0.986769  0
H  H7  1  0.85098767  0.64872722  0.80358777  1  0.072354  0  0.103863  0.116649  0  1.060256  0
H  H8  1  0.40881829  0.60439623  0.38984686  1  0.085438  0  0.116824  0.135502  0  0.986427  0
H  H9  1  0.38792085  0.41959782  0.37869971  1  0.100866  0  0.104042  0.118002  0  1.047523  0
H  H10  1  0.82282026  0.74151056  0.52594767  1  0.094203  0  0.117524  0.136027  0  0.986006  0
H  H11  1  0.83329475  0.76159535  0.70985128  1  0.080374  0  0.104063  0.116494  0  1.059708  0
H  H12  1  0.41893678  0.31879692  0.66493119  1  0.088667  0  0.116959  0.1354  0  0.986213  0
H  H13  1  0.40723375  0.29748410  0.48037205  1  0.086236  0  0.103817  0.117383  0  1.048734  0
H  H14  1  0.55429978  0.73192105  0.80231423  1  0.095617  0  0.117289  0.135581  0  0.986052  0
H  H15  1  0.73836111  0.74238361  0.82166327  1  0.089146  0  0.103847  0.116516  0  1.059965  0
H  H16  1  0.69466240  0.32909114  0.37983364  1  0.101511  0  0.116775  0.135762  0  0.986033  0
H  H17  1  0.50993144  0.31778171  0.35904647  1  0.082937  0  0.103984  0.11791  0  1.048461  0
H  H18  1  0.25839181  0.16822804  0.22954009  1  0.581596  0  0.326791  0.391617  0  0.897057  0
H  H19  1  0.08797825  0.14008760  0.88114448  1  0.599822  0  0.3375  0.41729  0  0.858212  0
H  H20  1  0.91013238  0.99785903  0.20074729  1  0.646957  0  0.337682  0.418094  0  0.856812  0
H  H21  1  0.22985410  0.82028245  0.05868030  1  0.620364  0  0.337169  0.417598  0  0.859259  0
H  H22  1  0.78038257  0.34871415  0.11480775  1  0.09805  0  0.117766  0.126905  0  0.972855  0
H  H23  1  0.83424433  0.29101835  0.31902628  1  0.029405  0  0.106889  0.123635  0  0.993027  0
H  H24  1  0.50650932  0.20868426  0.21868017  1  0.082371  0  0.10686  0.12783  0  0.995731  0
H  H25  1  0.42211393  0.38184647  0.10954584  1  0.107563  0  0.11696  0.129078  0  0.977066  0
H  H26  1  0.75388161  0.85337986  0.95166567  1  0.090516  0  0.105785  0.124246  0  1.005735  0
H  H27  1  0.82366170  0.68414359  0.07603326  1  0.124432  0  0.117805  0.13004  0  0.974765  0
H  H28  1  0.42951949  0.79195461  0.86624463  1  0.097733  0  0.108147  0.126256  0  0.993336  0
H  H29  1  0.46813337  0.71985930  0.07003412  1  0.101615  0  0.116713  0.125345  0  0.975847  0
H  H30  1  0.38126592  0.25853541  0.80480748  1  0.029442  0  0.107198  0.124045  0  0.991773  0
H  H31  1  0.43831431  0.05402975  0.75124261  1  0.08857  0  0.117878  0.127006  0  0.973386  0
H  H32  1  0.47162526  0.04817688  0.39278415  1  0.109659  0  0.116991  0.129096  0  0.976644  0
H  H33  1  0.29844189  0.15698357  0.47741980  1  0.082817  0  0.107137  0.128343  0  0.995891  0
H  H34  1  0.94345952  0.89163535  0.72463565  1  0.082873  0  0.105672  0.123515  0  1.004897  0
H  H35  1  0.77416724  0.01579898  0.79460070  1  0.137833  0  0.117739  0.129665  0  0.97512  0
H  H36  1  0.88125205  0.80514033  0.40006413  1  0.080818  0  0.10819  0.126604  0  0.992764  0
H  H37  1  0.80976820  0.00903877  0.43916674  1  0.114432  0  0.11681  0.125964  0  0.975199  0
H  H38  1  0.34824902  0.74383082  0.35143086  1  0.070814  0  0.106812  0.122996  0  0.992237  0
H  H39  1  0.14379415  0.69015989  0.40892140  1  0.119104  0  0.11787  0.127361  0  0.971936  0
H  H40  1  0.13861174  0.33145668  0.44287833  1  0.129765  0  0.117038  0.129426  0  0.976561  0
H  H41  1  0.24750141  0.41633205  0.26979642  1  0.059606  0  0.107366  0.128538  0  0.996292  0
H  H42  1  0.10554198  0.73368261  0.74483317  1  0.121424  0  0.117723  0.129943  0  0.975466  0
H  H43  1  0.98096020  0.66405393  0.91406889  1  0.100093  0  0.105664  0.124227  0  1.00536  0
H  H44  1  0.09921520  0.37813059  0.78015938  1  0.07878  0  0.116388  0.125048  0  0.975531  0
H  H45  1  0.89551921  0.34044100  0.85352387  1  0.045228  0  0.108061  0.12632  0  0.993329  0
C  C46  1  0.97729984  0.46336340  0.73502756  1  0.250314  0  0.074566  0.108391  0  3.917971  0
C  C47  1  0.89024807  0.50345801  0.76264337  1  -0.020045  0  -0.092675  -0.162973  0  3.978084  0
C  C48  1  0.90058692  0.60161712  0.76774902  1  -0.025954  0  -0.102874  -0.192101  0  4.035387  0
C  C49  1  0.99182781  0.62514410  0.73885940  1  0.279294  0  0.078774  0.118481  0  3.914484  0
C  C50  1  0.26551292  0.60567946  0.45411600  1  0.272016  0  0.076707  0.117631  0  3.92068  0
C  C51  1  0.35111445  0.56518046  0.42244620  1  -0.009898  0  -0.093232  -0.164344  0  3.974167  0
C  C52  1  0.33977163  0.46720614  0.41603463  1  -0.017178  0  -0.102746  -0.191318  0  4.034743  0
C  C53  1  0.24901095  0.44427216  0.44729383  1  0.268732  0  0.075882  0.120687  0  3.917274  0
C  C54  1  0.76414161  0.88727843  0.52431480  1  0.306617  0  0.07496  0.108941  0  3.917006  0
C  C55  1  0.79193173  0.80038718  0.56463914  1  -0.049328  0  -0.093233  -0.165077  0  3.978412  0
C  C56  1  0.79719145  0.81095727  0.66270672  1  -0.014996  0  -0.102785  -0.189973  0  4.034014  0
C  C57  1  0.76820005  0.90218902  0.68598613  1  0.260283  0  0.079191  0.119148  0  3.914586  0
C  C58  1  0.48343983  0.17559477  0.66639667  1  0.253056  0  0.076074  0.116511  0  3.923578  0
C  C59  1  0.45151792  0.26106121  0.62582244  1  -0.017176  0  -0.09293  -0.163842  0  3.974328  0
C  C60  1  0.44477534  0.24950022  0.52794686  1  -0.076181  0  -0.103326  -0.191368  0  4.035216  0
C  C61  1  0.47607131  0.15878130  0.50514900  1  0.349676  0  0.077222  0.122762  0  3.916288  0
C  C62  1  0.55313135  0.67393095  0.94830829  1  0.32563  0  0.075395  0.10968  0  3.915876  0
C  C63  1  0.59320829  0.70126941  0.86116948  1  -0.04018  0  -0.09228  -0.162984  0  3.978095  0
C  C64  1  0.69137780  0.70651626  0.87138302  1  -0.037044  0  -0.10291  -0.191324  0  4.034622  0
C  C65  1  0.71492241  0.67795090  0.96265550  1  0.251353  0  0.078803  0.118481  0  3.915262  0
C  C66  1  0.69595108  0.39353856  0.23657831  1  0.309383  0  0.076161  0.108744  0  3.922241  0
C  C67  1  0.65546466  0.36171706  0.32216544  1  -0.075494  0  -0.092871  -0.164688  0  3.977912  0
C  C68  1  0.55752462  0.35507558  0.31083599  1  0.049207  0  -0.103233  -0.193185  0  4.038221  0
C  C69  1  0.53457049  0.38624743  0.22008289  1  0.210681  0  0.076754  0.116015  0  3.915635  0
C  C70  1  0.00838167  0.28049911  0.93330508  1  1.530813  0  0.221365  0.655047  0  4.143871  0
C  C71  1  0.39079005  0.18715269  0.12347752  1  1.54372  0  0.224687  0.658343  0  4.132372  0
C  C72  1  0.15234603  0.30054788  0.24823702  1  1.526839  0  0.225305  0.660111  0  4.12929  0
C  C73  1  0.29401701  0.14687058  0.85644224  1  1.547091  0  0.228531  0.672635  0  4.114119  0
C  C74  1  0.23662956  0.79525303  0.26430541  1  1.563642  0  0.228404  0.671636  0  4.114166  0
C  C75  1  0.86070373  0.87752707  0.05528462  1  1.543946  0  0.229029  0.669915  0  4.114551  0
C  C76  1  0.27700546  0.06191766  0.36165457  1  1.562509  0  0.225339  0.660733  0  4.130024  0
C  C77  1  0.37039139  0.87236249  0.97905101  1  1.495822  0  0.222913  0.656236  0  4.145365  0
C  C78  1  0.96774557  0.99508953  0.83149663  1  1.576717  0  0.229114  0.668501  0  4.116148  0
C  C79  1  0.88550600  0.20379651  0.20741286  1  1.547794  0  0.228723  0.673127  0  4.115082  0
C  C80  1  0.96199130  0.91797405  0.34105895  1  1.532103  0  0.221855  0.656081  0  4.147604  0
C  C81  1  0.08463479  0.77082034  0.93829985  1  1.5258  0  0.228682  0.66904  0  4.116541  0
C  C82  1  0.77780641  0.34881139  0.19212210  1  -0.090439  0  -0.065641  -0.082089  0  3.982432  0
C  C83  1  0.83421112  0.28790843  0.24199061  1  0.072116  0  -0.101217  -0.241034  0  3.903034  0
C  C84  1  0.45833881  0.24722041  0.17177967  1  -0.04046  0  -0.092105  -0.22912  0  3.8786  0
C  C85  1  0.46374004  0.34286118  0.16229535  1  0.001987  0  -0.06817  -0.089679  0  3.948694  0
C  C86  1  0.79738909  0.81593569  0.00362512  1  -0.016141  0  -0.089602  -0.221639  0  3.871935  0
C  C87  1  0.78682944  0.72148063  0.01878943  1  -0.05308  0  -0.06672  -0.090026  0  3.948679  0
C  C88  1  0.42478583  0.79077659  0.94336062  1  -0.070618  0  -0.103645  -0.244381  0  3.920166  0
C  C89  1  0.47420648  0.72365121  0.99289306  1  0.001359  0  -0.069042  -0.087752  0  3.990336  0
C  C90  1  0.62322993  0.49555133  0.11393448  1  0.197445  0  0.069286  -0.048429  0  4.145751  0
C  C91  1  0.62554496  0.57171702  0.07121838  1  0.677698  0  0.069041  -0.048831  0  4.146845  0
C  C92  1  0.37802074  0.18145798  0.80485770  1  0.074388  0  -0.101042  -0.240719  0  3.901949  0
C  C93  1  0.43870972  0.13134608  0.74842497  1  -0.043861  0  -0.065747  -0.081987  0  3.980578  0
C  C94  1  0.43266446  0.10082967  0.43449999  1  0.009129  0  -0.067641  -0.087998  0  3.945182  0
C  C95  1  0.33701268  0.11016546  0.42922430  1  -0.091202  0  -0.093147  -0.231339  0  3.881299  0
C  C96  1  0.90607599  0.94359866  0.76820472  1  -0.050134  0  -0.089456  -0.219881  0  3.870869  0
C  C97  1  0.81157223  0.95859840  0.75774486  1  -0.040677  0  -0.066788  -0.090639  0  3.947094  0
C  C98  1  0.88033694  0.88228231  0.39539446  1  0.001524  0  -0.103253  -0.245019  0  3.91943  0
C  C99  1  0.81346423  0.93186856  0.44512954  1  -0.079949  0  -0.068898  -0.087375  0  3.989306  0
C  C100  1  0.58574314  0.05309678  0.59389247  1  0.31333  0  0.069389  -0.03809  0  4.151532  0
C  C101  1  0.66191974  0.01039990  0.59632016  1  0.559404  0  0.068515  -0.050902  0  4.14438  0
C  C102  1  0.27117371  0.74378994  0.34829360  1  -0.031639  0  -0.099608  -0.237228  0  3.901421  0
C  C103  1  0.22113742  0.68750042  0.40920644  1  -0.055335  0  -0.066516  -0.084471  0  3.980246  0
C  C104  1  0.19120591  0.37337011  0.40394658  1  -0.085869  0  -0.067841  -0.088166  0  3.945627  0
C  C105  1  0.20067717  0.36804672  0.30832372  1  0.016957  0  -0.09264  -0.231245  0  3.880884  0
C  C106  1  0.04816696  0.69700606  0.78221222  1  -0.036614  0  -0.067444  -0.091118  0  3.948521  0
C  C107  1  0.03302250  0.70754451  0.87665979  1  -0.015993  0  -0.089232  -0.221129  0  3.871216  0
C  C108  1  0.02204855  0.38433524  0.78445242  1  0.045911  0  -0.068528  -0.087378  0  3.989511  0
C  C109  1  0.97264253  0.33523187  0.85195733  1  -0.023581  0  -0.102652  -0.243447  0  3.918685  0
C  C110  1  0.14305477  0.53310432  0.55657630  1  0.48335  0  0.068613  -0.040515  0  4.154139  0
C  C111  1  0.10029706  0.53560863  0.63271320  1  0.388407  0  0.068993  -0.049543  0  4.143767  0
N  N112  1  0.03516924  0.54045587  0.70430079  1  -1.182116  0  -0.203604  0.041898  0  3.711152  0
N  N113  1  0.20761816  0.52869606  0.48451999  1  -1.169042  0  -0.203875  0.018461  0  3.752667  0
N  N114  1  0.73348002  0.94529692  0.60127027  1  -1.164341  0  -0.20368  0.041379  0  3.714048  0
N  N115  1  0.51365485  0.11762395  0.58949560  1  -1.188443  0  -0.204102  0.016514  0  3.755914  0
N  N116  1  0.63027038  0.64335561  0.00619008  1  -1.185489  0  -0.204429  0.040181  0  3.713115  0
N  N117  1  0.61892589  0.42365321  0.17872847  1  -1.175695  0  -0.204422  0.042052  0  3.720594  0
O  O118  1  0.94864819  0.22181069  0.96877611  1  -1.163492  0  -0.35428  -0.591657  0  2.316521  0
O  O119  1  0.39812350  0.09760005  0.13783125  1  -1.1484  0  -0.330513  -0.579653  0  2.193119  0
O  O120  1  0.16676008  0.30800945  0.15869801  1  -1.146251  0  -0.331026  -0.580479  0  2.191372  0
O  O121  1  0.25546903  0.20828587  0.91167952  1  -1.17746  0  -0.363086  -0.604716  0  2.317211  0
O  O122  1  0.25982328  0.06562626  0.84034862  1  -1.172432  0  -0.344928  -0.588505  0  2.219833  0
O  O123  1  0.10408037  0.23655592  0.29112906  1  -1.177739  0  -0.354479  -0.590996  0  2.325737  0
O  O124  1  0.32685150  0.23013409  0.07531629  1  -1.178696  0  -0.354127  -0.590477  0  2.327722  0
O  O125  1  0.09092078  0.29420065  0.96593581  1  -1.176779  0  -0.343793  -0.581878  0  2.214213  0
O  O126  1  0.23344625  0.05464995  0.03496943  1  -1.194857  0  -0.762057  -1.056209  0  2.235447  0
O  O127  1  0.06411673  0.14334438  0.11548874  1  -1.195827  0  -0.762288  -1.056383  0  2.236246  0
O  O128  1  0.21969264  0.12956551  0.19070812  1  -1.217863  0  -0.655705  -0.982426  0  2.439069  0
O  O129  1  0.09713041  0.11199182  0.94352972  1  -1.223559  0  -0.662919  -0.995285  0  2.440291  0
O  O130  1  0.29811037  0.85040743  0.22559887  1  -1.172394  0  -0.364142  -0.604943  0  2.318478  0
O  O131  1  0.85229054  0.96670279  0.03873912  1  -1.154736  0  -0.334085  -0.587468  0  2.203426  0
O  O132  1  0.18742735  0.07637435  0.36891755  1  -1.176572  0  -0.330919  -0.581175  0  2.193367  0
O  O133  1  0.31180492  0.90799394  0.91934034  1  -1.161635  0  -0.354642  -0.592463  0  2.316096  0
O  O134  1  0.05692138  0.97844018  0.82297175  1  -1.170901  0  -0.333902  -0.587064  0  2.201875  0
O  O135  1  0.94046862  0.16491805  0.26888564  1  -1.174841  0  -0.363798  -0.604872  0  2.318117  0
O  O136  1  0.99773082  0.85831859  0.28245504  1  -1.170808  0  -0.35464  -0.593092  0  2.315413  0
O  O137  1  0.06804970  0.76225443  0.02746012  1  -1.15953  0  -0.333976  -0.58702  0  2.2033  0
O  O138  1  0.99469006  0.00047347  0.35494470  1  -1.173564  0  -0.344137  -0.582754  0  2.216658  0
O  O139  1  0.14133650  0.82939864  0.89824180  1  -1.177501  0  -0.35863  -0.599214  0  2.319132  0
O  O140  1  0.31996427  0.01376329  0.29767982  1  -1.176535  0  -0.35413  -0.591172  0  2.327441  0
O  O141  1  0.86942385  0.16976238  0.12613591  1  -1.178961  0  -0.344638  -0.588575  0  2.220439  0
O  O142  1  0.92769459  0.05175378  0.89006624  1  -1.188952  0  -0.359164  -0.599068  0  2.319424  0
O  O143  1  0.38422202  0.90507398  0.06150388  1  -1.174178  0  -0.344645  -0.582619  0  2.214415  0
O  O144  1  0.15531667  0.77922341  0.23022620  1  -1.176089  0  -0.344463  -0.588152  0  2.219239  0
O  O145  1  0.91913467  0.83738354  0.11203187  1  -1.178156  0  -0.358708  -0.599323  0  2.318369  0
O  O146  1  0.05108742  0.96113603  0.02184675  1  -1.205962  0  -0.751112  -1.062846  0  2.191251  0
O  O147  1  0.14449209  0.97392145  0.20420061  1  -1.196245  0  -0.762151  -1.054455  0  2.232872  0
O  O148  1  0.97253474  0.00688452  0.17259442  1  -1.270388  0  -0.663412  -0.997449  0  2.440084  0
O  O149  1  0.20177932  0.88269023  0.06772728  1  -1.242974  0  -0.662917  -0.996506  0  2.441878  0
