# generated using pymatgen
data_PrZnH16C26N2ClO11
_symmetry_space_group_name_H-M   'P 1'
_cell_length_a   8.47935352
_cell_length_b   12.73990119
_cell_length_c   13.33478068
_cell_angle_alpha   107.62225931
_cell_angle_beta   104.92824129
_cell_angle_gamma   93.36686818
_symmetry_Int_Tables_number   1
_chemical_formula_structural   PrZnH16C26N2ClO11
_chemical_formula_sum   'Pr2 Zn2 H32 C52 N4 Cl2 O22'
_cell_volume   1311.86915595
_cell_formula_units_Z   2
loop_
 _symmetry_equiv_pos_site_id
 _symmetry_equiv_pos_as_xyz
  1  'x, y, z'
loop_
 _atom_site_type_symbol
 _atom_site_label
 _atom_site_symmetry_multiplicity
 _atom_site_fract_x
 _atom_site_fract_y
 _atom_site_fract_z
 _atom_site_occupancy
 _atom_site_hle17_bader_spin_density
 _atom_site_hle17_ddec_charge
 _atom_site_hle17_ddec_spin_density
 _atom_site_hle17_ddec_sum_bond_order
 _atom_site_hle17_magmom
 _atom_site_hse06_10hf_bader_spin_density
 _atom_site_hse06_10hf_ddec_charge
 _atom_site_hse06_10hf_ddec_spin_density
 _atom_site_hse06_10hf_ddec_sum_bond_order
 _atom_site_hse06_10hf_magmom
 _atom_site_hse06_bader_spin_density
 _atom_site_hse06_ddec_charge
 _atom_site_hse06_ddec_spin_density
 _atom_site_hse06_ddec_sum_bond_order
 _atom_site_hse06_magmom
 _atom_site_pbe_bader_spin_density
 _atom_site_pbe_cm5_charge
 _atom_site_pbe_ddec_charge
 _atom_site_pbe_ddec_spin_density
 _atom_site_pbe_ddec_sum_bond_order
 _atom_site_pbe_magmom
Pr  Pr0  1  0.24482362  0.49114231  0.98759195  1  0  2.317008  0  1.618592  0  0  2.162111  0  2.067408  0  0  2.247952  0  1.938103  0  0  1.515894  2.132568  0  2.099249  0
Pr  Pr1  1  0.75517966  0.50886159  0.01240742  1  0  2.316983  0  1.618589  0  0  2.162067  0  2.067453  0  0  2.247938  0  1.938097  0  0  1.515901  2.132522  0  2.099296  0
Zn  Zn2  1  0.32080946  0.21490677  0.16148393  1  0  1.002697  0  1.899071  0  0  0.822296  0  2.386582  0  0  0.870165  0  2.328286  0  0  0.629463  0.789016  0  2.426334  0
Zn  Zn3  1  0.67918966  0.78509462  0.83851779  1  0  1.002727  0  1.899045  0  0  0.822347  0  2.386563  0  0  0.870213  0  2.328264  0  0  0.629457  0.789063  0  2.426313  0
H  H4  1  0.13150091  0.58836603  0.78901663  1  0  0.401008  0  0.916458  0  0  0.357959  0  0.999809  0  0  0.36991  0  0.983116  0  0  0.285061  0.349685  0  1.011383  0
H  H5  1  0.86850184  0.41163538  0.21097968  1  0  0.401033  0  0.916437  0  0  0.358003  0  0.999756  0  0  0.369952  0  0.983065  0  0  0.285098  0.349727  0  1.011332  0
H  H6  1  0.99575107  0.58586539  0.85368713  1  0  0.439205  0  0.853182  0  0  0.412005  0  0.911041  0  0  0.4221  0  0.896325  0  0  0.304175  0.404738  0  0.921783  0
H  H7  1  0.00425290  0.41413603  0.14631013  1  0  0.439165  0  0.853242  0  0  0.411988  0  0.911094  0  0  0.422085  0  0.896374  0  0  0.304151  0.404717  0  0.92184  0
H  H8  1  0.67871967  0.18491831  0.67670906  1  0  0.09938  0  0.974802  0  0  0.10723  0  1.040872  0  0  0.109256  0  1.041373  0  0  0.102624  0.105814  0  1.040471  0
H  H9  1  0.32128293  0.81508227  0.32329149  1  0  0.099382  0  0.97483  0  0  0.107233  0  1.040901  0  0  0.10926  0  1.041398  0  0  0.102622  0.105816  0  1.040501  0
H  H10  1  0.76563485  0.03862667  0.53697426  1  0  0.089505  0  0.940439  0  0  0.104755  0  0.99147  0  0  0.107358  0  0.990511  0  0  0.104624  0.102873  0  0.992302  0
H  H11  1  0.23436480  0.96137140  0.46302808  1  0  0.089527  0  0.940415  0  0  0.104767  0  0.991449  0  0  0.107372  0  0.990487  0  0  0.104623  0.102884  0  0.99228  0
H  H12  1  0.04251420  0.97756890  0.59180148  1  0  0.107339  0  0.947926  0  0  0.118944  0  1.009043  0  0  0.121884  0  1.00769  0  0  0.107482  0.116856  0  1.010045  0
H  H13  1  0.95748511  0.02242750  0.40820108  1  0  0.107302  0  0.947989  0  0  0.118946  0  1.009067  0  0  0.121886  0  1.007714  0  0  0.107485  0.116858  0  1.01007  0
H  H14  1  0.51400391  0.95929437  0.78200399  1  0  0.100835  0  0.959811  0  0  0.106945  0  1.026078  0  0  0.110711  0  1.022476  0  0  0.111053  0.104149  0  1.028728  0
H  H15  1  0.48599906  0.04070787  0.21800010  1  0  0.100862  0  0.959821  0  0  0.106939  0  1.026117  0  0  0.110688  0  1.022534  0  0  0.111047  0.104147  0  1.028763  0
H  H16  1  0.07402865  0.97667017  0.89025881  1  0  0.128229  0  0.958459  0  0  0.135987  0  1.020722  0  0  0.139508  0  1.018038  0  0  0.107349  0.13336  0  1.022809  0
H  H17  1  0.92597011  0.02332955  0.10974087  1  0  0.12823  0  0.958473  0  0  0.135986  0  1.020739  0  0  0.139508  0  1.01805  0  0  0.107343  0.133359  0  1.022827  0
H  H18  1  0.16011095  0.83131169  0.97403792  1  0  0.117882  0  0.941544  0  0  0.126792  0  0.999585  0  0  0.129888  0  0.998521  0  0  0.11214  0.124591  0  1.000369  0
H  H19  1  0.83988397  0.16868718  0.02596090  1  0  0.117903  0  0.941567  0  0  0.126832  0  0.999584  0  0  0.129924  0  0.998528  0  0  0.112134  0.124633  0  1.000368  0
H  H20  1  0.42148858  0.75388187  0.95664893  1  0  0.096387  0  0.939151  0  0  0.10393  0  1.004502  0  0  0.107197  0  1.001425  0  0  0.126896  0.101431  0  1.007152  0
H  H21  1  0.57850758  0.24611701  0.04335234  1  0  0.096378  0  0.939158  0  0  0.103918  0  1.00451  0  0  0.107185  0  1.001434  0  0  0.126905  0.10142  0  1.007161  0
H  H22  1  0.73004522  0.78552772  0.35980776  1  0  0.104043  0  0.949509  0  0  0.114029  0  1.010462  0  0  0.117372  0  1.008842  0  0  0.104397  0.111657  0  1.011617  0
H  H23  1  0.26995266  0.21447367  0.64019076  1  0  0.104045  0  0.949563  0  0  0.114004  0  1.010543  0  0  0.117349  0  1.008921  0  0  0.104372  0.111631  0  1.011698  0
H  H24  1  0.63606594  0.86191129  0.52890669  1  0  0.090947  0  0.972198  0  0  0.100001  0  1.034814  0  0  0.102788  0  1.033253  0  0  0.093438  0.097987  0  1.036032  0
H  H25  1  0.36393404  0.13808844  0.47109319  1  0  0.090961  0  0.972172  0  0  0.100011  0  1.034793  0  0  0.102798  0  1.033231  0  0  0.093437  0.097994  0  1.036013  0
H  H26  1  0.42018994  0.75020876  0.56179267  1  0  0.111559  0  0.954554  0  0  0.120843  0  1.015098  0  0  0.124041  0  1.014153  0  0  0.105674  0.118566  0  1.015856  0
H  H27  1  0.57981372  0.24979099  0.43820856  1  0  0.111584  0  0.954539  0  0  0.120855  0  1.015091  0  0  0.124055  0  1.014149  0  0  0.105685  0.118577  0  1.01585  0
H  H28  1  0.29166425  0.50704415  0.60854828  1  0  0.09488  0  0.959203  0  0  0.100221  0  1.028579  0  0  0.102123  0  1.027901  0  0  0.115369  0.098836  0  1.029094  0
H  H29  1  0.70834097  0.49295727  0.39145444  1  0  0.094882  0  0.959234  0  0  0.10025  0  1.028569  0  0  0.102148  0  1.027903  0  0  0.115364  0.098867  0  1.029087  0
H  H30  1  0.04547344  0.68884820  0.40479722  1  0  0.129123  0  0.925778  0  0  0.140175  0  0.983682  0  0  0.143084  0  0.982092  0  0  0.11659  0.138086  0  0.984791  0
H  H31  1  0.95452688  0.31114737  0.59519926  1  0  0.129095  0  0.925782  0  0  0.140157  0  0.983684  0  0  0.143067  0  0.982092  0  0  0.116556  0.138069  0  0.98479  0
H  H32  1  0.90356035  0.76956905  0.55121226  1  0  0.100947  0  0.978554  0  0  0.110614  0  1.040384  0  0  0.11255  0  1.041425  0  0  0.101505  0.109163  0  1.039879  0
H  H33  1  0.09642984  0.23042481  0.44878134  1  0  0.100964  0  0.978613  0  0  0.110614  0  1.040436  0  0  0.112532  0  1.041504  0  0  0.101527  0.109164  0  1.03993  0
H  H34  1  0.96790070  0.71575469  0.71851634  1  0  0.074251  0  0.964187  0  0  0.080716  0  1.034297  0  0  0.083466  0  1.031498  0  0  0.104393  0.078648  0  1.036413  0
H  H35  1  0.03209351  0.28424085  0.28147915  1  0  0.074229  0  0.964161  0  0  0.080688  0  1.034287  0  0  0.083438  0  1.031488  0  0  0.104371  0.078616  0  1.036411  0
C  C36  1  0.10530489  0.09144864  0.75647798  1  0  0.250684  0  3.752986  0  0  0.234583  0  4.021203  0  0  0.242817  0  4.036856  0  0  0.089108  0.228724  0  4.0106  0
C  C37  1  0.89469248  0.90855025  0.24352273  1  0  0.250624  0  3.753063  0  0  0.234568  0  4.021296  0  0  0.242784  0  4.036959  0  0  0.089095  0.228707  0  4.010696  0
C  C38  1  0.06128101  0.17604768  0.83441479  1  0  -0.128456  0  3.669709  0  0  -0.124071  0  3.91046  0  0  -0.128148  0  3.927303  0  0  0.003169  -0.121464  0  3.899582  0
C  C39  1  0.93872020  0.82395206  0.16558529  1  0  -0.128435  0  3.669734  0  0  -0.124114  0  3.910511  0  0  -0.128186  0  3.927364  0  0  0.003155  -0.121506  0  3.899634  0
C  C40  1  0.90561408  0.20920282  0.80361843  1  0  -0.049646  0  3.713765  0  0  -0.034269  0  3.945469  0  0  -0.03989  0  3.965084  0  0  -0.000495  -0.030536  0  3.932082  0
C  C41  1  0.09438835  0.79079692  0.19638260  1  0  -0.049683  0  3.713776  0  0  -0.034265  0  3.945485  0  0  -0.039888  0  3.965095  0  0  -0.000482  -0.030535  0  3.932099  0
C  C42  1  0.79881171  0.15806289  0.69768666  1  0  -0.063045  0  3.718178  0  0  -0.091837  0  3.971694  0  0  -0.091486  0  3.991346  0  0  -0.079758  -0.091901  0  3.958167  0
C  C43  1  0.20118967  0.84193768  0.30231444  1  0  -0.063023  0  3.718219  0  0  -0.091826  0  3.971714  0  0  -0.091475  0  3.99137  0  0  -0.079761  -0.091888  0  3.958188  0
C  C44  1  0.84777711  0.07645044  0.62026509  1  0  -0.054229  0  3.785719  0  0  -0.069282  0  4.046129  0  0  -0.071221  0  4.066488  0  0  -0.08942  -0.068045  0  4.032315  0
C  C45  1  0.15221993  0.92354678  0.37973734  1  0  -0.054257  0  3.785695  0  0  -0.069283  0  4.046089  0  0  -0.071224  0  4.066451  0  0  -0.089405  -0.068046  0  4.032276  0
C  C46  1  0.00152197  0.04260764  0.64969855  1  0  -0.147281  0  3.738297  0  0  -0.175829  0  4.000732  0  0  -0.177586  0  4.018581  0  0  -0.090098  -0.174479  0  3.988629  0
C  C47  1  0.99847679  0.95739208  0.35030189  1  0  -0.147249  0  3.738322  0  0  -0.175838  0  4.00075  0  0  -0.177595  0  4.018607  0  0  -0.090124  -0.174489  0  3.988648  0
C  C48  1  0.17785960  0.22309397  0.94938499  1  0  0.701068  0  3.876495  0  0  0.642276  0  4.183638  0  0  0.678413  0  4.173949  0  0  0.226106  0.617268  0  4.191572  0
C  C49  1  0.82213795  0.77690575  0.05061600  1  0  0.700951  0  3.876523  0  0  0.642249  0  4.183553  0  0  0.678365  0  4.173892  0  0  0.226071  0.61724  0  4.191487  0
C  C50  1  0.85641560  0.30501881  0.87954101  1  0  0.690296  0  3.875671  0  0  0.642822  0  4.167137  0  0  0.677146  0  4.161478  0  0  0.219526  0.619169  0  4.173878  0
C  C51  1  0.14358733  0.69498343  0.12045783  1  0  0.690335  0  3.875535  0  0  0.642811  0  4.167086  0  0  0.677143  0  4.161413  0  0  0.219542  0.619159  0  4.173828  0
C  C52  1  0.43215054  0.93242508  0.82353684  1  0  0.008514  0  3.695977  0  0  -0.030857  0  3.945789  0  0  -0.026644  0  3.962972  0  0  0.030805  -0.033364  0  3.934184  0
C  C53  1  0.56785120  0.06757716  0.17646780  1  0  0.008361  0  3.69609  0  0  -0.030939  0  3.945875  0  0  -0.026713  0  3.963069  0  0  0.03081  -0.033447  0  3.934268  0
C  C54  1  0.28889064  0.97904142  0.83008043  1  0  0.232574  0  3.791606  0  0  0.227723  0  4.053279  0  0  0.232819  0  4.071222  0  0  0.090831  0.223637  0  4.0413  0
C  C55  1  0.71110987  0.02096081  0.16992251  1  0  0.23266  0  3.791441  0  0  0.227774  0  4.053176  0  0  0.232855  0  4.071116  0  0  0.090819  0.223687  0  4.041197  0
C  C56  1  0.18769790  0.94310491  0.88463121  1  0  -0.122384  0  3.69684  0  0  -0.152479  0  3.950788  0  0  -0.151963  0  3.968639  0  0  -0.078187  -0.15247  0  3.938836  0
C  C57  1  0.81230103  0.05689565  0.11536874  1  0  -0.122416  0  3.696788  0  0  -0.152497  0  3.950768  0  0  -0.15198  0  3.968619  0  0  -0.078219  -0.152487  0  3.938816  0
C  C58  1  0.23627360  0.86168566  0.93135701  1  0  -0.075189  0  3.707942  0  0  -0.084775  0  3.962611  0  0  -0.089954  0  3.982291  0  0  -0.074253  -0.081465  0  3.949236  0
C  C59  1  0.76372412  0.13831490  0.06864424  1  0  -0.075243  0  3.707994  0  0  -0.084846  0  3.962668  0  0  -0.090024  0  3.982352  0  0  -0.074187  -0.081533  0  3.949291  0
C  C60  1  0.38001615  0.81772508  0.92157978  1  0  0.115415  0  3.671805  0  0  0.074424  0  3.932787  0  0  0.081737  0  3.949335  0  0  0.041766  0.069236  0  3.922236  0
C  C61  1  0.61998122  0.18227381  0.07842019  1  0  0.115508  0  3.671681  0  0  0.07451  0  3.932669  0  0  0.081816  0  3.94923  0  0  0.041729  0.069323  0  3.922116  0
C  C62  1  0.38335368  0.61442561  0.41018450  1  0  0.260106  0  3.757239  0  0  0.243106  0  4.021658  0  0  0.253354  0  4.036145  0  0  0.09129  0.235887  0  4.011887  0
C  C63  1  0.61664752  0.38557413  0.58981483  1  0  0.260136  0  3.757166  0  0  0.243085  0  4.021655  0  0  0.253332  0  4.036138  0  0  0.091293  0.235866  0  4.011884  0
C  C64  1  0.43334901  0.57072587  0.31522262  1  0  -0.156038  0  3.682184  0  0  -0.150662  0  3.927539  0  0  -0.156039  0  3.94384  0  0  -0.00786  -0.14715  0  3.91682  0
C  C65  1  0.56665308  0.42927220  0.68477863  1  0  -0.155954  0  3.682104  0  0  -0.150588  0  3.927469  0  0  -0.155952  0  3.943753  0  0  -0.007824  -0.147078  0  3.916749  0
C  C66  1  0.56103273  0.63325271  0.29929286  1  0  -0.052895  0  3.743352  0  0  -0.039317  0  3.97887  0  0  -0.043318  0  3.997477  0  0  -0.005827  -0.036602  0  3.966072  0
C  C67  1  0.43896760  0.36674869  0.70070756  1  0  -0.053052  0  3.743457  0  0  -0.039431  0  3.978963  0  0  -0.043436  0  3.997565  0  0  -0.005877  -0.036713  0  3.966164  0
C  C68  1  0.63247518  0.73881815  0.37525376  1  0  -0.082184  0  3.733202  0  0  -0.111455  0  3.990208  0  0  -0.111739  0  4.007237  0  0  -0.08898  -0.111153  0  3.978477  0
C  C69  1  0.36752165  0.26118405  0.62474483  1  0  -0.08213  0  3.733298  0  0  -0.111382  0  3.990278  0  0  -0.111666  0  4.007302  0  0  -0.088903  -0.111081  0  3.978547  0
C  C70  1  0.57942834  0.78114938  0.46786655  1  0  -0.051007  0  3.800805  0  0  -0.063451  0  4.055468  0  0  -0.063392  0  4.073734  0  0  -0.090833  -0.063514  0  4.043134  0
C  C71  1  0.42057077  0.21885201  0.53213367  1  0  -0.051049  0  3.800802  0  0  -0.063485  0  4.055443  0  0  -0.063426  0  4.073708  0  0  -0.090851  -0.063549  0  4.043109  0
C  C72  1  0.45654521  0.71858482  0.48688027  1  0  -0.167173  0  3.747098  0  0  -0.191803  0  4.003418  0  0  -0.195064  0  4.021374  0  0  -0.096125  -0.189539  0  3.991384  0
C  C73  1  0.54345827  0.28141409  0.51312069  1  0  -0.167206  0  3.747061  0  0  -0.191808  0  4.003394  0  0  -0.195071  0  4.021352  0  0  -0.096171  -0.189543  0  3.99136  0
C  C74  1  0.34721981  0.45792346  0.23593693  1  0  0.730902  0  3.855681  0  0  0.668485  0  4.166325  0  0  0.705568  0  4.154405  0  0  0.234782  0.64291  0  4.175474  0
C  C75  1  0.65277895  0.54207626  0.76406350  1  0  0.730864  0  3.855588  0  0  0.668504  0  4.16616  0  0  0.705583  0  4.15424  0  0  0.23483  0.642934  0  4.175306  0
C  C76  1  0.62766017  0.58997435  0.20425956  1  0  0.691572  0  3.861638  0  0  0.647123  0  4.146883  0  0  0.68099  0  4.141457  0  0  0.218329  0.623672  0  4.15378  0
C  C77  1  0.37233982  0.41002538  0.79574032  1  0  0.691829  0  3.861446  0  0  0.647308  0  4.146771  0  0  0.681177  0  4.141339  0  0  0.218386  0.623853  0  4.153672  0
C  C78  1  0.20760451  0.56602190  0.59481581  1  0  0.035579  0  3.691725  0  0  -0.006335  0  3.953861  0  0  -0.001068  0  3.969226  0  0  0.040877  -0.009722  0  3.943495  0
C  C79  1  0.79239793  0.43397784  0.40518597  1  0  0.035578  0  3.691862  0  0  -0.006379  0  3.954032  0  0  -0.001115  0  3.969395  0  0  0.040892  -0.009769  0  3.943671  0
C  C80  1  0.18185019  0.59558088  0.50010679  1  0  0.207539  0  3.807094  0  0  0.204567  0  4.069139  0  0  0.208447  0  4.087081  0  0  0.084598  0.201467  0  4.057131  0
C  C81  1  0.81815328  0.40441803  0.49989267  1  0  0.207539  0  3.807252  0  0  0.204617  0  4.069261  0  0  0.208499  0  4.0872  0  0  0.084593  0.201516  0  4.057254  0
C  C82  1  0.07097342  0.66888251  0.48087444  1  0  -0.118855  0  3.711645  0  0  -0.146505  0  3.962845  0  0  -0.146363  0  3.981679  0  0  -0.07318  -0.146141  0  3.949872  0
C  C83  1  0.92902586  0.33111389  0.51912436  1  0  -0.118877  0  3.711622  0  0  -0.146551  0  3.96282  0  0  -0.146408  0  3.981647  0  0  -0.073203  -0.146189  0  3.949854  0
C  C84  1  0.99295769  0.71295307  0.56098002  1  0  -0.108328  0  3.76068  0  0  -0.119006  0  4.011568  0  0  -0.126098  0  4.036057  0  0  -0.086619  -0.11443  0  3.99511  0
C  C85  1  0.00703898  0.28704249  0.43901662  1  0  -0.108309  0  3.760708  0  0  -0.118961  0  4.011604  0  0  -0.126042  0  4.036097  0  0  -0.086584  -0.114385  0  3.995143  0
C  C86  1  0.02704907  0.68133228  0.65471672  1  0  0.11645  0  3.718639  0  0  0.082094  0  3.974239  0  0  0.087849  0  3.992789  0  0  0.039851  0.078432  0  3.961535  0
C  C87  1  0.97294672  0.31866493  0.34528100  1  0  0.116518  0  3.718675  0  0  0.082171  0  3.974256  0  0  0.087927  0  3.992802  0  0  0.039876  0.078511  0  3.961551  0
N  N88  1  0.47557488  0.85284938  0.86785922  1  0  -0.317901  0  3.358647  0  0  -0.230047  0  3.637065  0  0  -0.24957  0  3.654568  0  0  -0.332047  -0.216766  0  3.624879  0
N  N89  1  0.52442548  0.14715202  0.13214495  1  0  -0.317875  0  3.358638  0  0  -0.230012  0  3.63702  0  0  -0.249533  0  3.654516  0  0  -0.332031  -0.216732  0  3.624838  0
N  N90  1  0.13078849  0.60855600  0.67106904  1  0  -0.289116  0  3.187168  0  0  -0.22424  0  3.435713  0  0  -0.238255  0  3.452394  0  0  -0.302874  -0.214601  0  3.42402  0
N  N91  1  0.86921272  0.39144373  0.32893179  1  0  -0.289126  0  3.187227  0  0  -0.22426  0  3.435789  0  0  -0.238274  0  3.452473  0  0  -0.302896  -0.214623  0  3.4241  0
Cl  Cl92  1  0.22664454  0.12210248  0.25594831  1  0  -0.580836  0  0.961092  0  0  -0.517115  0  1.242955  0  0  -0.535943  0  1.219585  0  0  -0.293536  -0.503446  0  1.258909  0
Cl  Cl93  1  0.77335370  0.87789475  0.74405057  1  0  -0.580831  0  0.961093  0  0  -0.517114  0  1.242958  0  0  -0.535943  0  1.21959  0  0  -0.293534  -0.503447  0  1.258911  0
O  O94  1  0.26201342  0.06026057  0.78172858  1  0  -0.290996  0  2.33286  0  0  -0.223646  0  2.553583  0  0  -0.2405  0  2.555691  0  0  -0.153792  -0.211417  0  2.551686  0
O  O95  1  0.73798657  0.93973916  0.21827355  1  0  -0.290921  0  2.332859  0  0  -0.223627  0  2.553643  0  0  -0.240446  0  2.555734  0  0  -0.153752  -0.211395  0  2.551746  0
O  O96  1  0.14636750  0.17898865  0.01758093  1  0  -0.601691  0  2.040175  0  0  -0.526339  0  2.306662  0  0  -0.555402  0  2.291357  0  0  -0.295828  -0.505893  0  2.316533  0
O  O97  1  0.85363388  0.82101192  0.98241942  1  0  -0.601668  0  2.039994  0  0  -0.526348  0  2.306452  0  0  -0.555403  0  2.291154  0  0  -0.295825  -0.5059  0  2.316318  0
O  O98  1  0.29880114  0.29751170  0.97182179  1  0  -0.69986  0  2.005569  0  0  -0.653614  0  2.260838  0  0  -0.682246  0  2.247192  0  0  -0.371779  -0.637025  0  2.269223  0
O  O99  1  0.70119919  0.70248970  0.02817863  1  0  -0.69979  0  2.005674  0  0  -0.653575  0  2.260919  0  0  -0.682204  0  2.247283  0  0  -0.371768  -0.636986  0  2.269304  0
O  O100  1  0.97057875  0.38773209  0.94243550  1  0  -0.817164  0  2.126528  0  0  -0.753462  0  2.386306  0  0  -0.788062  0  2.373147  0  0  -0.444632  -0.736168  0  2.394366  0
O  O101  1  0.02942225  0.61227263  0.05756074  1  0  -0.817189  0  2.126475  0  0  -0.753455  0  2.386248  0  0  -0.788061  0  2.373087  0  0  -0.44465  -0.73616  0  2.394307  0
O  O102  1  0.70835086  0.30807818  0.88043231  1  0  -0.651997  0  1.920099  0  0  -0.60728  0  2.148328  0  0  -0.634419  0  2.138583  0  0  -0.348377  -0.591612  0  2.153842  0
O  O103  1  0.29165381  0.69192657  0.11956678  1  0  -0.651993  0  1.920078  0  0  -0.607253  0  2.148321  0  0  -0.634391  0  2.138571  0  0  -0.348353  -0.591588  0  2.15384  0
O  O104  1  0.26272255  0.54643047  0.42355947  1  0  -0.28288  0  2.34093  0  0  -0.216641  0  2.563547  0  0  -0.233248  0  2.566431  0  0  -0.150797  -0.204714  0  2.561225  0
O  O105  1  0.73728565  0.45356764  0.57644277  1  0  -0.282958  0  2.34108  0  0  -0.216716  0  2.563704  0  0  -0.233323  0  2.566589  0  0  -0.150818  -0.204791  0  2.561384  0
O  O106  1  0.40645691  0.37384478  0.25356546  1  0  -0.594899  0  2.041859  0  0  -0.523592  0  2.31518  0  0  -0.551549  0  2.297897  0  0  -0.294157  -0.504009  0  2.32641  0
O  O107  1  0.59354568  0.62615579  0.74643433  1  0  -0.594902  0  2.041883  0  0  -0.523634  0  2.315206  0  0  -0.551589  0  2.297923  0  0  -0.294167  -0.504053  0  2.326437  0
O  O108  1  0.21957826  0.45507010  0.15933666  1  0  -0.736602  0  2.061386  0  0  -0.679378  0  2.311779  0  0  -0.709198  0  2.297747  0  0  -0.367573  -0.661863  0  2.320428  0
O  O109  1  0.78042607  0.54493298  0.84066264  1  0  -0.736606  0  2.061345  0  0  -0.679399  0  2.311702  0  0  -0.709229  0  2.29769  0  0  -0.367644  -0.661888  0  2.320346  0
O  O110  1  0.53285203  0.51849188  0.11254886  1  0  -0.834215  0  2.049898  0  0  -0.771195  0  2.300561  0  0  -0.806081  0  2.287357  0  0  -0.445361  -0.754167  0  2.308682  0
O  O111  1  0.46714828  0.48150951  0.88744930  1  0  -0.834297  0  2.049836  0  0  -0.771248  0  2.300518  0  0  -0.806136  0  2.287312  0  0  -0.445358  -0.754218  0  2.308638  0
O  O112  1  0.77566053  0.62135368  0.21334145  1  0  -0.645738  0  1.960844  0  0  -0.601381  0  2.192527  0  0  -0.628027  0  2.184087  0  0  -0.342785  -0.585808  0  2.197539  0
O  O113  1  0.22433963  0.37864688  0.78665945  1  0  -0.645808  0  1.960784  0  0  -0.601426  0  2.192482  0  0  -0.628069  0  2.184044  0  0  -0.342797  -0.585856  0  2.197494  0
O  O114  1  0.11558653  0.59113492  0.86315951  1  0  -0.925315  0  1.88784  0  0  -0.872894  0  2.092054  0  0  -0.898029  0  2.057711  0  0  -0.653989  -0.858957  0  2.113525  0
O  O115  1  0.88441745  0.40886649  0.13683851  1  0  -0.92531  0  1.88791  0  0  -0.872938  0  2.092024  0  0  -0.89807  0  2.057655  0  0  -0.653985  -0.858996  0  2.113511  0
