# generated using pymatgen
data_ZnH16C26(NO2)2
_symmetry_space_group_name_H-M   'P 1'
_cell_length_a   9.35085061
_cell_length_b   9.87907387
_cell_length_c   13.08697029
_cell_angle_alpha   71.46207554
_cell_angle_beta   70.21926063
_cell_angle_gamma   68.59649553
_symmetry_Int_Tables_number   1
_chemical_formula_structural   ZnH16C26(NO2)2
_chemical_formula_sum   'Zn2 H32 C52 N4 O8'
_cell_volume   1032.74136084
_cell_formula_units_Z   2
loop_
 _symmetry_equiv_pos_site_id
 _symmetry_equiv_pos_as_xyz
  1  'x, y, z'
loop_
 _atom_site_type_symbol
 _atom_site_label
 _atom_site_symmetry_multiplicity
 _atom_site_fract_x
 _atom_site_fract_y
 _atom_site_fract_z
 _atom_site_occupancy
 _atom_site_pbe_bader_spin_density
 _atom_site_pbe_cm5_charge
 _atom_site_pbe_ddec_charge
 _atom_site_pbe_ddec_spin_density
 _atom_site_pbe_ddec_sum_bond_order
 _atom_site_pbe_magmom
Zn  Zn0  1  0.88710228  0.04983150  0.25453972  1  0  0.697766  0.777573  0  2.343264  0
Zn  Zn1  1  0.11289545  0.95017080  0.74546172  1  0  0.697764  0.777541  0  2.343287  0
H  H2  1  0.78569495  0.35917210  0.95230012  1  0  0.102378  0.102228  0  1.039347  0
H  H3  1  0.21430275  0.64082222  0.04769186  1  0  0.102375  0.102227  0  1.03931  0
H  H4  1  0.34168051  0.45546696  0.19658540  1  0  0.102237  0.10518  0  1.00216  0
H  H5  1  0.65831834  0.54452739  0.80340782  1  0  0.102238  0.105203  0  1.002127  0
H  H6  1  0.39713351  0.21472801  0.09088285  1  0  0.098122  0.1014  0  1.03925  0
H  H7  1  0.60286695  0.78527647  0.90911508  1  0  0.098131  0.101426  0  1.039203  0
H  H8  1  0.58122180  0.87330275  0.64230327  1  0  0.109844  0.133578  0  1.047554  0
H  H9  1  0.41878287  0.12669176  0.35770068  1  0  0.109815  0.133523  0  1.047596  0
H  H10  1  0.59364300  0.72155073  0.57032319  1  0  0.111082  0.140388  0  1.049054  0
H  H11  1  0.40635688  0.27844823  0.42967856  1  0  0.111104  0.140425  0  1.049023  0
H  H12  1  0.32459212  0.84534110  0.03054391  1  0  0.098952  0.10283  0  1.04771  0
H  H13  1  0.67540602  0.15466333  0.96945078  1  0  0.09894  0.102809  0  1.047747  0
H  H14  1  0.98592767  0.23928705  0.32126279  1  0  0.107433  0.133758  0  1.066918  0
H  H15  1  0.01407563  0.76071189  0.67873887  1  0  0.107414  0.133736  0  1.066935  0
H  H16  1  0.94881894  0.87453089  0.10384887  1  0  0.112476  0.13263  0  1.00037  0
H  H17  1  0.05117368  0.12547697  0.89615016  1  0  0.112475  0.132609  0  1.000403  0
H  H18  1  0.70673922  0.25420001  0.72025808  1  0  0.109401  0.118283  0  0.998279  0
H  H19  1  0.29326284  0.74579563  0.27974624  1  0  0.109428  0.118337  0  0.998277  0
H  H20  1  0.59177130  0.55520309  0.46459770  1  0  0.108696  0.105159  0  1.003035  0
H  H21  1  0.40823495  0.44479361  0.53540302  1  0  0.108677  0.105154  0  1.00307  0
H  H22  1  0.59421163  0.05241571  0.73218279  1  0  0.111662  0.110985  0  1.003833  0
H  H23  1  0.40579383  0.94757990  0.26781993  1  0  0.111688  0.111007  0  1.003757  0
H  H24  1  0.96198753  0.70184311  0.99661287  1  0  0.107717  0.112146  0  1.0256  0
H  H25  1  0.03799835  0.29816807  0.00338395  1  0  0.107716  0.112165  0  1.025592  0
H  H26  1  0.66789525  0.47980888  0.28247063  1  0  0.103061  0.110035  0  1.01668  0
H  H27  1  0.33210920  0.52019007  0.71753151  1  0  0.103054  0.110036  0  1.016694  0
H  H28  1  0.81898217  0.50890999  0.08376323  1  0  0.10599  0.105144  0  1.016113  0
H  H29  1  0.18101193  0.49109676  0.91623647  1  0  0.105969  0.10508  0  1.016093  0
H  H30  1  0.01712097  0.41035145  0.40983886  1  0  0.102141  0.097363  0  1.004861  0
H  H31  1  0.98288030  0.58964310  0.59016746  1  0  0.102151  0.097356  0  1.004763  0
H  H32  1  0.87764943  0.41904843  0.60880192  1  0  0.100855  0.097339  0  1.01143  0
H  H33  1  0.12235558  0.58094498  0.39120299  1  0  0.100854  0.0973  0  1.011459  0
C  C34  1  0.64476185  0.28371374  0.17373768  1  0  0.204382  0.563382  0  4.225233  0
C  C35  1  0.35523764  0.71628622  0.82625780  1  0  0.204286  0.563273  0  4.225306  0
C  C36  1  0.57125537  0.39656437  0.08362685  1  0  -0.014258  -0.033611  0  3.964132  0
C  C37  1  0.42874639  0.60343558  0.91636730  1  0  -0.014237  -0.033538  0  3.964258  0
C  C38  1  0.80115500  0.77521746  0.25558933  1  0  0.116303  0.208886  0  3.984612  0
C  C39  1  0.19884616  0.22478485  0.74441278  1  0  0.116254  0.208838  0  3.984529  0
C  C40  1  0.66063230  0.42135279  0.97263055  1  0  -0.081534  -0.094155  0  3.967199  0
C  C41  1  0.33936863  0.57864601  0.02736180  1  0  -0.081534  -0.094227  0  3.967242  0
C  C42  1  0.41013278  0.47635020  0.11019269  1  0  -0.080865  -0.090341  0  3.964622  0
C  C43  1  0.58986735  0.52364749  0.88980014  1  0  -0.080913  -0.090473  0  3.964737  0
C  C44  1  0.73008239  0.95489103  0.48182527  1  0  0.129911  0.183184  0  3.981751  0
C  C45  1  0.26991636  0.04510794  0.51817751  1  0  0.129851  0.183119  0  3.981811  0
C  C46  1  0.34599524  0.03263609  0.06838159  1  0  -0.020777  -0.041445  0  3.996438  0
C  C47  1  0.65400245  0.96736614  0.93161530  1  0  -0.020774  -0.041473  0  3.996526  0
C  C48  1  0.44406187  0.12079635  0.05077081  1  0  -0.086396  -0.095908  0  3.97234  0
C  C49  1  0.55593630  0.87920811  0.94922616  1  0  -0.086412  -0.095944  0  3.972356  0
C  C50  1  0.82866620  0.14754817  0.47062134  1  0  0.115314  0.209438  0  3.973219  0
C  C51  1  0.17133416  0.85245303  0.52938125  1  0  0.115325  0.209434  0  3.973362  0
C  C52  1  0.65008088  0.95185469  0.59530918  1  0  -0.081948  -0.158201  0  3.914014  0
C  C53  1  0.34992277  0.04814317  0.40469419  1  0  -0.081863  -0.158054  0  3.914049  0
C  C54  1  0.72453141  0.85054982  0.42411865  1  0  0.126355  0.177626  0  3.998963  0
C  C55  1  0.27546667  0.14945138  0.57588374  1  0  0.126319  0.177501  0  3.998992  0
C  C56  1  0.65047518  0.73597153  0.48148050  1  0  -0.088585  -0.179057  0  3.942188  0
C  C57  1  0.34952503  0.26402630  0.51852068  1  0  -0.088612  -0.179084  0  3.942107  0
C  C58  1  0.18148168  0.06943463  0.14201318  1  0  0.197102  0.549937  0  4.240212  0
C  C59  1  0.81851308  0.93056988  0.85798615  1  0  0.19705  0.549957  0  4.240169  0
C  C60  1  0.40255071  0.91180042  0.01706320  1  0  -0.08965  -0.097428  0  3.971679  0
C  C61  1  0.59744925  0.08820180  0.98293312  1  0  -0.089658  -0.097423  0  3.971689  0
C  C62  1  0.72343558  0.66000889  0.30740595  1  0  -0.00405  0.028991  0  4.014049  0
C  C63  1  0.27656658  0.33999007  0.69259598  1  0  -0.004034  0.028989  0  4.014044  0
C  C64  1  0.92446559  0.24356897  0.40810343  1  0  -0.091175  -0.176331  0  3.93164  0
C  C65  1  0.07553953  0.75642775  0.59189909  1  0  -0.091153  -0.176305  0  3.931632  0
C  C66  1  0.88709575  0.78902727  0.14239132  1  0  -0.08295  -0.163504  0  3.920808  0
C  C67  1  0.11289869  0.21097838  0.85760933  1  0  -0.082956  -0.16352  0  3.920795  0
C  C68  1  0.76685928  0.25223701  0.63316341  1  0  -0.082662  -0.115428  0  3.961357  0
C  C69  1  0.23314277  0.74775863  0.36684091  1  0  -0.082696  -0.115558  0  3.961321  0
C  C70  1  0.64867386  0.64382774  0.42241027  1  0  -0.06258  -0.061038  0  3.966812  0
C  C71  1  0.35132912  0.35617233  0.57759195  1  0  -0.062541  -0.060997  0  3.966688  0
C  C72  1  0.65791838  0.05103765  0.64548619  1  0  -0.054877  -0.04185  0  3.915807  0
C  C73  1  0.34208348  0.94896247  0.35451860  1  0  -0.054927  -0.041916  0  3.91591  0
C  C74  1  0.74929610  0.15112876  0.58508322  1  0  -0.002659  0.033474  0  3.988596  0
C  C75  1  0.25070642  0.84886911  0.41492043  1  0  -0.00262  0.033559  0  3.988475  0
C  C76  1  0.89457631  0.69206116  0.08338470  1  0  -0.075263  -0.049423  0  3.961105  0
C  C77  1  0.10541631  0.30794670  0.91661434  1  0  -0.075238  -0.04938  0  3.961085  0
C  C78  1  0.72910301  0.56575733  0.24320999  1  0  -0.08351  -0.122883  0  3.958886  0
C  C79  1  0.27089700  0.43424496  0.75679089  1  0  -0.083534  -0.122928  0  3.958818  0
C  C80  1  0.81365013  0.58168706  0.13315544  1  0  -0.074716  -0.047879  0  3.946808  0
C  C81  1  0.18634465  0.41831747  0.86684541  1  0  -0.07472  -0.047826  0  3.946667  0
C  C82  1  0.94182373  0.33787768  0.45847496  1  0  -0.085235  -0.057292  0  4.007189  0
C  C83  1  0.05818061  0.66211796  0.54152956  1  0  -0.085272  -0.057273  0  4.007098  0
C  C84  1  0.86279795  0.34297019  0.57102868  1  0  -0.089731  -0.085957  0  4.020834  0
C  C85  1  0.13720624  0.65702210  0.42897595  1  0  -0.089739  -0.085917  0  4.020804  0
N  N86  1  0.79545286  0.86914317  0.31518842  1  0  -0.319378  -0.308421  0  3.513746  0
N  N87  1  0.20454602  0.13085914  0.68481349  1  0  -0.319237  -0.308217  0  3.513577  0
N  N88  1  0.81413429  0.05133302  0.42155746  1  0  -0.316966  -0.309368  0  3.522993  0
N  N89  1  0.18586524  0.94866703  0.57844257  1  0  -0.316981  -0.30937  0  3.523146  0
O  O90  1  0.79039036  0.20572623  0.14040432  1  0  -0.327626  -0.54072  0  2.328425  0
O  O91  1  0.20961141  0.79427373  0.85959059  1  0  -0.32764  -0.540685  0  2.328478  0
O  O92  1  0.56607451  0.26964942  0.27349271  1  0  -0.327164  -0.570461  0  2.191549  0
O  O93  1  0.43392477  0.73035500  0.72650171  1  0  -0.327105  -0.570441  0  2.191597  0
O  O94  1  0.12495552  0.18793811  0.17623210  1  0  -0.319106  -0.546689  0  2.162812  0
O  O95  1  0.87504264  0.81206635  0.82376487  1  0  -0.319093  -0.546707  0  2.162752  0
O  O96  1  0.10454818  0.97205220  0.16728060  1  0  -0.335472  -0.553465  0  2.322986  0
O  O97  1  0.89545168  0.02794672  0.83271886  1  0  -0.335434  -0.553428  0  2.322991  0
