# generated using pymatgen
data_HgH14C18I2(N2O)2
_symmetry_space_group_name_H-M   'P 1'
_cell_length_a   5.49802779
_cell_length_b   16.08426045
_cell_length_c   27.84694645
_cell_angle_alpha   86.30006788
_cell_angle_beta   84.18771217
_cell_angle_gamma   79.97843021
_symmetry_Int_Tables_number   1
_chemical_formula_structural   HgH14C18I2(N2O)2
_chemical_formula_sum   'Hg4 H56 C72 I8 N16 O8'
_cell_volume   2409.74639248
_cell_formula_units_Z   4
loop_
 _symmetry_equiv_pos_site_id
 _symmetry_equiv_pos_as_xyz
  1  'x, y, z'
loop_
 _atom_site_type_symbol
 _atom_site_label
 _atom_site_symmetry_multiplicity
 _atom_site_fract_x
 _atom_site_fract_y
 _atom_site_fract_z
 _atom_site_occupancy
 _atom_site_pbe_bader_charge
 _atom_site_pbe_bader_spin_density
 _atom_site_pbe_cm5_charge
 _atom_site_pbe_ddec_charge
 _atom_site_pbe_ddec_spin_density
 _atom_site_pbe_ddec_sum_bond_order
 _atom_site_pbe_magmom
Hg  Hg0  1  0.09023990  0.24241850  0.02001465  1  0.54215  0  0.406393  0.391942  0  2.704037  0
Hg  Hg1  1  0.35156933  0.25816231  0.47970377  1  0.541634  0  0.406221  0.391948  0  2.704322  0
Hg  Hg2  1  0.90977732  0.75757035  0.97998204  1  0.542125  0  0.406437  0.391973  0  2.704082  0
Hg  Hg3  1  0.64843558  0.74185612  0.52030049  1  0.54209  0  0.406281  0.392034  0  2.704166  0
H  H4  1  0.15380126  0.49136130  0.88991608  1  0.469783  0  0.29475  0.252947  0  1.001883  0
H  H5  1  0.53595188  0.00902516  0.60995549  1  0.474843  0  0.295228  0.253479  0  1.000739  0
H  H6  1  0.84619437  0.50864236  0.11009532  1  0.46999  0  0.294737  0.25291  0  1.002022  0
H  H7  1  0.46407449  0.99097888  0.39004124  1  0.474821  0  0.295167  0.253212  0  1.000983  0
H  H8  1  0.51977332  0.53582797  0.68009627  1  0.464377  0  0.329426  0.28626  0  0.913905  0
H  H9  1  0.73477548  0.96393419  0.82033566  1  0.457302  0  0.329971  0.286347  0  0.913866  0
H  H10  1  0.48024353  0.46416932  0.31990391  1  0.461691  0  0.32937  0.286236  0  0.914004  0
H  H11  1  0.26519911  0.03605960  0.17965840  1  0.457009  0  0.329977  0.286282  0  0.91403  0
H  H12  1  0.79396938  0.43609794  0.98839118  1  0.086122  0  0.093725  0.062566  0  1.052371  0
H  H13  1  0.21933931  0.06477910  0.51112493  1  0.11028  0  0.094114  0.062815  0  1.051967  0
H  H14  1  0.20604408  0.56390266  0.01161139  1  0.086252  0  0.093738  0.062681  0  1.05241  0
H  H15  1  0.78062251  0.93523742  0.48886810  1  0.11021  0  0.094165  0.062939  0  1.052056  0
H  H16  1  0.45649675  0.50633822  0.93902363  1  0.058203  0  0.093389  0.115577  0  1.044671  0
H  H17  1  0.90351919  0.99429921  0.56056647  1  0.066137  0  0.092254  0.115009  0  1.046013  0
H  H18  1  0.54351337  0.49365409  0.06097805  1  0.057971  0  0.093298  0.115494  0  1.044676  0
H  H19  1  0.09643682  0.00571800  0.43942736  1  0.065736  0  0.092295  0.115037  0  1.045908  0
H  H20  1  0.40241708  0.25938307  0.89202999  1  0.145795  0  0.107564  0.138428  0  1.033351  0
H  H21  1  0.55089373  0.24096219  0.60821379  1  0.153826  0  0.108003  0.138391  0  1.034364  0
H  H22  1  0.59762388  0.74061731  0.10796916  1  0.145535  0  0.107555  0.13837  0  1.033266  0
H  H23  1  0.44912666  0.75905455  0.39179420  1  0.153869  0  0.108044  0.138496  0  1.034249  0
H  H24  1  0.74572085  0.19981019  0.94272408  1  0.103731  0  0.095111  0.069101  0  1.044418  0
H  H25  1  0.88499865  0.30075226  0.55745936  1  0.090578  0  0.095105  0.069007  0  1.045436  0
H  H26  1  0.25431645  0.80018637  0.05727465  1  0.103805  0  0.095126  0.06911  0  1.044639  0
H  H27  1  0.11501300  0.69925973  0.44254297  1  0.090941  0  0.09513  0.069072  0  1.045297  0
H  H28  1  0.74957092  0.35670153  0.80287869  1  0.095384  0  0.113849  0.122784  0  0.983321  0
H  H29  1  0.90566327  0.14337615  0.69706204  1  0.14266  0  0.113561  0.121676  0  0.984179  0
H  H30  1  0.25039112  0.64329633  0.19715240  1  0.095661  0  0.113883  0.122853  0  0.98334  0
H  H31  1  0.09436229  0.85662601  0.30294559  1  0.142569  0  0.113487  0.121632  0  0.984224  0
H  H32  1  0.45830819  0.45077834  0.75171395  1  0.069637  0  0.106549  0.10777  0  0.996924  0
H  H33  1  0.65866272  0.04933212  0.74848104  1  0.053972  0  0.107305  0.108377  0  0.997177  0
H  H34  1  0.54163165  0.54920856  0.24831354  1  0.070191  0  0.106525  0.107639  0  0.997035  0
H  H35  1  0.34131847  0.95067471  0.25151969  1  0.054056  0  0.107307  0.108328  0  0.997174  0
H  H36  1  0.79663469  0.66352850  0.77996474  1  0.12167  0  0.110542  0.122608  0  1.021166  0
H  H37  1  0.24320402  0.83672121  0.72024161  1  0.157678  0  0.110588  0.123392  0  1.019074  0
H  H38  1  0.20340340  0.33645861  0.22002409  1  0.121399  0  0.11058  0.122706  0  1.021013  0
H  H39  1  0.75672550  0.16327120  0.27975021  1  0.158052  0  0.110546  0.123401  0  1.01928  0
H  H40  1  0.09182848  0.56929630  0.82874269  1  0.07709  0  0.097916  0.094754  0  1.031228  0
H  H41  1  0.49202175  0.93104564  0.67137104  1  0.099265  0  0.098916  0.096434  0  1.028164  0
H  H42  1  0.90821467  0.43069564  0.17125295  1  0.074165  0  0.097914  0.094765  0  1.031021  0
H  H43  1  0.50792762  0.06893962  0.32861790  1  0.098615  0  0.098921  0.096396  0  1.028281  0
H  H44  1  0.73827656  0.77291353  0.63384229  1  0.108114  0  0.097923  0.071651  0  1.030087  0
H  H45  1  0.14635929  0.72698644  0.86629283  1  0.108541  0  0.098573  0.072694  0  1.03028  0
H  H46  1  0.26175120  0.22710303  0.36616269  1  0.108183  0  0.097919  0.071613  0  1.030095  0
H  H47  1  0.85362685  0.27300236  0.13370271  1  0.108591  0  0.098573  0.072696  0  1.030325  0
H  H48  1  0.00859308  0.72143593  0.69940322  1  0.162945  0  0.109359  0.135131  0  1.06648  0
H  H49  1  0.42986238  0.77905322  0.80066818  1  0.167736  0  0.109402  0.134555  0  1.065201  0
H  H50  1  0.99145333  0.27857983  0.30059891  1  0.163168  0  0.109416  0.135139  0  1.066348  0
H  H51  1  0.57010892  0.22093209  0.19932175  1  0.168388  0  0.109312  0.134354  0  1.065328  0
H  H52  1  0.43168917  0.54143886  0.59959546  1  0.078001  0  0.102802  0.126586  0  1.004604  0
H  H53  1  0.57113965  0.95769383  0.90087040  1  0.096871  0  0.102638  0.126757  0  1.005177  0
H  H54  1  0.56831261  0.45856335  0.40041302  1  0.077919  0  0.102772  0.126555  0  1.004732  0
H  H55  1  0.42889720  0.04228444  0.09911895  1  0.096348  0  0.102616  0.126748  0  1.005304  0
H  H56  1  0.13800527  0.59998235  0.53907395  1  0.114709  0  0.091969  0.076042  0  1.048114  0
H  H57  1  0.27501211  0.89910652  0.96137720  1  0.109957  0  0.092254  0.075061  0  1.048334  0
H  H58  1  0.86199195  0.40001027  0.46093300  1  0.114913  0  0.091981  0.076012  0  1.048071  0
H  H59  1  0.72502590  0.10087704  0.03861578  1  0.109822  0  0.092265  0.07506  0  1.048744  0
C  C60  1  0.70211705  0.39909279  0.96654457  1  0.470628  0  0.028594  0.093352  0  4.0111  0
C  C61  1  0.06795099  0.10164934  0.53316512  1  0.505736  0  0.027917  0.092278  0  4.010491  0
C  C62  1  0.29789089  0.60090411  0.03345976  1  0.470005  0  0.02852  0.093074  0  4.010678  0
C  C63  1  0.93201694  0.89837730  0.46682758  1  0.505953  0  0.027973  0.092132  0  4.010835  0
C  C64  1  0.51404230  0.43793933  0.93907110  1  0.035667  0  -0.104103  -0.239387  0  3.954619  0
C  C65  1  0.89150754  0.06268622  0.56064143  1  -0.023538  0  -0.102733  -0.237614  0  3.953642  0
C  C66  1  0.48599004  0.56206008  0.06093296  1  0.036476  0  -0.103869  -0.239138  0  3.953941  0
C  C67  1  0.10848443  0.93732849  0.43935325  1  -0.022864  0  -0.102872  -0.237642  0  3.953707  0
C  C68  1  0.40217112  0.38835101  0.91095078  1  0.334461  0  0.115275  0.293121  0  4.010832  0
C  C69  1  0.70091807  0.11213169  0.58897966  1  0.335314  0  0.115749  0.293032  0  4.008618  0
C  C70  1  0.59783126  0.61164994  0.08905775  1  0.331427  0  0.115122  0.29288  0  4.011025  0
C  C71  1  0.29907681  0.88788093  0.41102262  1  0.33397  0  0.115802  0.293238  0  4.008474  0
C  C72  1  0.48577189  0.30063940  0.91228944  1  0.043814  0  -0.09611  -0.230088  0  3.927637  0
C  C73  1  0.69671577  0.19984086  0.58778968  1  -0.003721  0  -0.097813  -0.23032  0  3.930095  0
C  C74  1  0.51425598  0.69935774  0.08770837  1  0.04405  0  -0.096084  -0.229851  0  3.927524  0
C  C75  1  0.30327299  0.80017310  0.41221373  1  -0.003136  0  -0.097866  -0.230632  0  3.930212  0
C  C76  1  0.67590728  0.26770139  0.94086826  1  0.462376  0  0.037479  0.105097  0  3.981286  0
C  C77  1  0.88239590  0.23287836  0.55918976  1  0.533217  0  0.037659  0.104476  0  3.983059  0
C  C78  1  0.32411050  0.73229779  0.05913180  1  0.462273  0  0.037405  0.104813  0  3.981488  0
C  C79  1  0.11759769  0.76713702  0.44081634  1  0.532898  0  0.037512  0.104379  0  3.983022  0
C  C80  1  0.10746972  0.39475271  0.84831842  1  1.386664  0  0.242271  0.478828  0  4.105289  0
C  C81  1  0.34915577  0.10550483  0.65173278  1  1.397918  0  0.241178  0.475217  0  4.106655  0
C  C82  1  0.89250695  0.60524098  0.15169572  1  1.386198  0  0.242266  0.479003  0  4.10601  0
C  C83  1  0.65082209  0.89450510  0.34826677  1  1.397403  0  0.241026  0.475039  0  4.106757  0
C  C84  1  0.93516903  0.45660229  0.81982663  1  -0.062452  0  -0.014133  -0.034745  0  3.986227  0
C  C85  1  0.21089257  0.04360671  0.68024182  1  -0.015065  0  -0.014582  -0.035047  0  3.986138  0
C  C86  1  0.06483727  0.54339054  0.18018372  1  -0.061575  0  -0.014147  -0.034872  0  3.986322  0
C  C87  1  0.78909963  0.95638858  0.31975646  1  -0.015083  0  -0.014418  -0.034905  0  3.986341  0
C  C88  1  0.75810388  0.42384091  0.79725420  1  -0.062145  0  -0.076722  -0.076132  0  3.953429  0
C  C89  1  0.97728736  0.07630688  0.70281562  1  -0.044977  0  -0.077259  -0.075726  0  3.95599  0
C  C90  1  0.24186633  0.57615870  0.20276369  1  -0.062224  0  -0.076743  -0.076314  0  3.953524  0
C  C91  1  0.02269938  0.92369214  0.29718148  1  -0.044457  0  -0.077179  -0.075668  0  3.955802  0
C  C92  1  0.59869568  0.47653959  0.76835027  1  0.007507  0  -0.089933  -0.123098  0  4.000345  0
C  C93  1  0.84228952  0.02361601  0.73181296  1  -0.03386  0  -0.090073  -0.122287  0  4.003014  0
C  C94  1  0.40129228  0.52345341  0.23166296  1  0.006419  0  -0.089858  -0.122559  0  4.000088  0
C  C95  1  0.15768380  0.97638808  0.26818414  1  -0.034531  0  -0.08998  -0.122221  0  4.002644  0
C  C96  1  0.61223024  0.56305229  0.76223260  1  -0.086287  0  -0.014177  -0.034751  0  4.011669  0
C  C97  1  0.93811456  0.93716023  0.73801540  1  -0.089388  0  -0.013852  -0.036375  0  4.012369  0
C  C98  1  0.38777677  0.43693895  0.23777243  1  -0.086723  0  -0.014256  -0.035374  0  4.011604  0
C  C99  1  0.06184021  0.06284055  0.26197902  1  -0.088974  0  -0.013842  -0.036181  0  4.012448  0
C  C100  1  0.78702308  0.59634270  0.78504797  1  0.023554  0  -0.079273  -0.086351  0  3.937717  0
C  C101  1  0.17024057  0.90390606  0.71518292  1  -0.007301  0  -0.078833  -0.086372  0  3.932997  0
C  C102  1  0.21301855  0.40364478  0.21494723  1  0.024053  0  -0.079318  -0.086327  0  3.937667  0
C  C103  1  0.82970152  0.09608672  0.28480467  1  -0.008204  0  -0.078704  -0.086443  0  3.933444  0
C  C104  1  0.95011010  0.54288335  0.81305517  1  -0.037723  0  -0.089436  -0.105397  0  3.997053  0
C  C105  1  0.30718884  0.95737869  0.68707034  1  -0.103342  0  -0.090024  -0.106279  0  3.993178  0
C  C106  1  0.04993359  0.45710755  0.18694446  1  -0.035217  0  -0.089382  -0.105256  0  3.996856  0
C  C107  1  0.69276813  0.04261365  0.31292056  1  -0.102748  0  -0.090186  -0.10633  0  3.993314  0
C  C108  1  0.43845930  0.62175059  0.73261604  1  1.392469  0  0.249442  0.480026  0  4.111865  0
C  C109  1  0.79342677  0.87847519  0.76756385  1  1.376448  0  0.249409  0.481924  0  4.109548  0
C  C110  1  0.56159653  0.37824175  0.26738650  1  1.392837  0  0.249661  0.480405  0  4.111713  0
C  C111  1  0.20652567  0.12151508  0.23242403  1  1.376239  0  0.249475  0.48213  0  4.110036  0
C  C112  1  0.89428321  0.72124808  0.62795578  1  0.458299  0  0.035418  0.102969  0  3.991857  0
C  C113  1  0.24394519  0.77858298  0.87223997  1  0.458385  0  0.035541  0.101318  0  3.991354  0
C  C114  1  0.10573330  0.27875758  0.37204681  1  0.457221  0  0.035386  0.102789  0  3.991598  0
C  C115  1  0.75602173  0.22141160  0.12775671  1  0.456151  0  0.035674  0.101433  0  3.991031  0
C  C116  1  0.04531514  0.69236911  0.66469445  1  0.027344  0  -0.095691  -0.2323  0  3.926402  0
C  C117  1  0.40268881  0.80768576  0.83547446  1  0.024863  0  -0.097119  -0.232778  0  3.924711  0
C  C118  1  0.95472242  0.30764602  0.33530790  1  0.027629  0  -0.09581  -0.232262  0  3.926304  0
C  C119  1  0.59729553  0.19229532  0.16451904  1  0.026697  0  -0.097225  -0.232822  0  3.924409  0
C  C120  1  0.24307669  0.62581910  0.65512648  1  0.301623  0  0.112221  0.288961  0  4.025449  0
C  C121  1  0.52360327  0.87400307  0.84513931  1  0.309017  0  0.11288  0.289808  0  4.024801  0
C  C122  1  0.75695894  0.37418876  0.34488134  1  0.301815  0  0.112231  0.289095  0  4.025238  0
C  C123  1  0.47637046  0.12598102  0.15485136  1  0.308627  0  0.113002  0.289868  0  4.024179  0
C  C124  1  0.27888551  0.59241102  0.60909397  1  -0.01869  0  -0.099677  -0.239557  0  3.954064  0
C  C125  1  0.47936136  0.90695957  0.89129121  1  0.001129  0  -0.099006  -0.239068  0  3.953865  0
C  C126  1  0.72112604  0.40758986  0.39091330  1  -0.018485  0  -0.099666  -0.239498  0  3.954197  0
C  C127  1  0.52066603  0.09301940  0.10869901  1  0.001398  0  -0.09892  -0.238981  0  3.95383  0
C  C128  1  0.11622711  0.62532535  0.57498139  1  0.528326  0  0.03107  0.09449  0  3.999278  0
C  C129  1  0.31542826  0.87395506  0.92540092  1  0.495357  0  0.029195  0.092867  0  4.001013  0
C  C130  1  0.88378232  0.37467231  0.42502503  1  0.528146  0  0.031093  0.094299  0  3.999421  0
C  C131  1  0.68457688  0.12603594  0.07458907  1  0.495254  0  0.029259  0.092812  0  4.001324  0
I  I132  1  0.24666726  0.09856247  0.97305377  1  -0.33727  0  -0.191033  -0.320417  0  1.463813  0
I  I133  1  0.31461813  0.40191631  0.52663655  1  -0.336075  0  -0.191024  -0.320485  0  1.467064  0
I  I134  1  0.75333715  0.90143019  0.02694297  1  -0.337345  0  -0.191056  -0.32045  0  1.463768  0
I  I135  1  0.68537061  0.59809775  0.47336865  1  -0.336387  0  -0.191121  -0.320561  0  1.466933  0
I  I136  1  0.18923083  0.37198347  0.06831368  1  -0.360495  0  -0.168107  -0.316258  0  1.508215  0
I  I137  1  0.63032180  0.12811962  0.43149288  1  -0.361607  0  -0.168959  -0.317141  0  1.505461  0
I  I138  1  0.81078957  0.62800276  0.93169244  1  -0.360496  0  -0.168104  -0.316278  0  1.508352  0
I  I139  1  0.36962775  0.87189209  0.56850427  1  -0.361704  0  -0.168968  -0.317159  0  1.505604  0
N  N140  1  0.78325526  0.31523856  0.96749427  1  -1.211653  0  -0.327145  -0.21452  0  3.51634  0
N  N141  1  0.06486453  0.18547612  0.53235781  1  -1.236107  0  -0.326103  -0.213068  0  3.51463  0
N  N142  1  0.21675401  0.68476305  0.03250402  1  -1.2115  0  -0.327127  -0.214326  0  3.515993  0
N  N143  1  0.93512003  0.81454652  0.46764232  1  -1.236126  0  -0.325911  -0.212858  0  3.514841  0
N  N144  1  0.21667316  0.42919954  0.88314647  1  -1.272827  0  -0.394654  -0.369469  0  3.572741  0
N  N145  1  0.52872974  0.07115271  0.61679295  1  -1.285144  0  -0.394646  -0.369532  0  3.571162  0
N  N146  1  0.78333137  0.57080456  0.11686184  1  -1.26999  0  -0.394548  -0.369281  0  3.573118  0
N  N147  1  0.47127828  0.92885535  0.38320716  1  -1.284901  0  -0.394592  -0.36918  0  3.57125  0
N  N148  1  0.40269180  0.58963425  0.68950079  1  -1.252487  0  -0.390645  -0.375188  0  3.561378  0
N  N149  1  0.68158475  0.91032044  0.81080621  1  -1.255833  0  -0.391389  -0.376488  0  3.560058  0
N  N150  1  0.59733229  0.41036708  0.31050369  1  -1.249464  0  -0.390654  -0.375393  0  3.560979  0
N  N151  1  0.31838958  0.08966999  0.18918480  1  -1.255334  0  -0.391405  -0.376397  0  3.56019  0
N  N152  1  0.92639117  0.68878810  0.58409224  1  -1.226492  0  -0.324929  -0.223001  0  3.522313  0
N  N153  1  0.19907653  0.81068807  0.91619230  1  -1.231105  0  -0.324501  -0.221234  0  3.524436  0
N  N154  1  0.07363542  0.31121942  0.41590968  1  -1.226523  0  -0.324956  -0.22272  0  3.521947  0
N  N155  1  0.80095405  0.18929583  0.08380655  1  -1.230723  0  -0.324678  -0.221242  0  3.52418  0
O  O156  1  0.14812418  0.31880609  0.84022296  1  -1.114933  0  -0.284367  -0.454115  0  2.077787  0
O  O157  1  0.30447196  0.18140609  0.65993716  1  -1.11801  0  -0.283763  -0.452166  0  2.078161  0
O  O158  1  0.85182039  0.68117838  0.15979559  1  -1.114968  0  -0.284414  -0.454287  0  2.078533  0
O  O159  1  0.69550762  0.81858894  0.34006750  1  -1.117513  0  -0.283821  -0.452306  0  2.077585  0
O  O160  1  0.33748836  0.69223362  0.74586412  1  -1.127159  0  -0.263049  -0.436118  0  2.147739  0
O  O161  1  0.77683356  0.80819334  0.75418592  1  -1.123282  0  -0.261808  -0.43499  0  2.148208  0
O  O162  1  0.66257533  0.30776913  0.25414306  1  -1.127378  0  -0.263117  -0.436092  0  2.148185  0
O  O163  1  0.22317367  0.19179338  0.24580679  1  -1.122787  0  -0.261974  -0.435318  0  2.148558  0
