# generated using pymatgen
data_MnH14C20N2O5
_symmetry_space_group_name_H-M   'P 1'
_cell_length_a   7.66574239
_cell_length_b   10.33590736
_cell_length_c   10.34958084
_cell_angle_alpha   85.82763178
_cell_angle_beta   88.29002882
_cell_angle_gamma   88.52107061
_symmetry_Int_Tables_number   1
_chemical_formula_structural   MnH14C20N2O5
_chemical_formula_sum   'Mn2 H28 C40 N4 O10'
_cell_volume   817.25479628
_cell_formula_units_Z   2
loop_
 _symmetry_equiv_pos_site_id
 _symmetry_equiv_pos_as_xyz
  1  'x, y, z'
loop_
 _atom_site_type_symbol
 _atom_site_label
 _atom_site_symmetry_multiplicity
 _atom_site_fract_x
 _atom_site_fract_y
 _atom_site_fract_z
 _atom_site_occupancy
 _atom_site_pbe_cm5_charge
 _atom_site_pbe_ddec_charge
 _atom_site_pbe_ddec_spin_density
 _atom_site_pbe_ddec_sum_bond_order
 _atom_site_pbe_magmom
Mn  Mn0  1  0.49999850  0.00000066  0.00000069  1  0.59403  1.081821  4.682272  2.215865  4.5
Mn  Mn1  1  0.00000067  0.99999980  0.99999946  1  0.592677  1.083626  4.689149  2.201604  4.507
H  H2  1  0.75323670  0.92446552  0.18674342  1  0.284998  0.3287  0.000885  1.037972  0.002
H  H3  1  0.74684619  0.81459329  0.07885680  1  0.284748  0.328241  0.000903  1.038328  0.002
H  H4  1  0.24676488  0.07553564  0.81325541  1  0.285006  0.328724  0.000885  1.037884  0.002
H  H5  1  0.25315020  0.18540686  0.92114413  1  0.284771  0.32826  0.000903  1.038278  0.002
H  H6  1  0.11532206  0.56768869  0.13453952  1  0.109265  0.120668  1.8e-05  0.998971  0.0
H  H7  1  0.38316347  0.86395688  0.42825858  1  0.109268  0.120727  1.7e-05  0.999641  0.0
H  H8  1  0.88466643  0.43231343  0.86545858  1  0.109242  0.120655  1.8e-05  0.998964  0.0
H  H9  1  0.61683303  0.13604038  0.57174155  1  0.109284  0.120771  1.7e-05  0.999587  0.0
H  H10  1  0.11682669  0.32927646  0.10413912  1  0.115683  0.081661  -0.000231  1.013917  0.0
H  H11  1  0.38260894  0.89103955  0.66699674  1  0.115605  0.08112  -0.000189  1.013485  0.0
H  H12  1  0.88315524  0.67072667  0.89585520  1  0.115679  0.081651  -0.000231  1.013928  0.0
H  H13  1  0.61738755  0.10895771  0.33300340  1  0.115606  0.081166  -0.000189  1.013451  0.0
H  H14  1  0.44105132  0.25769100  0.74045406  1  0.109851  0.119875  -0.000107  1.018911  0.0
H  H15  1  0.06243060  0.25508535  0.74457278  1  0.109881  0.119531  -0.000108  1.021661  0.0
H  H16  1  0.55893978  0.74231110  0.25954591  1  0.109873  0.11992  -0.000107  1.018861  0.0
H  H17  1  0.93757225  0.74491681  0.25542403  1  0.109868  0.119513  -0.000108  1.021669  0.0
H  H18  1  0.60919413  0.39191071  0.57369309  1  0.097899  0.092695  2.5e-05  1.034657  0.0
H  H19  1  0.89496852  0.42332438  0.61349368  1  0.097917  0.092696  2.3e-05  1.035454  0.0
H  H20  1  0.39080233  0.60808749  0.42630892  1  0.097884  0.092669  2.5e-05  1.034673  0.0
H  H21  1  0.10503947  0.57667974  0.38650193  1  0.09791  0.092672  2.3e-05  1.035496  0.0
H  H22  1  0.63941463  0.62890285  0.59505184  1  0.096965  0.096926  1.3e-05  1.021425  0.0
H  H23  1  0.86517752  0.40578694  0.37602123  1  0.097756  0.097648  1.6e-05  1.017889  0.0
H  H24  1  0.36058963  0.37109630  0.40495284  1  0.096954  0.0969  1.3e-05  1.021421  0.0
H  H25  1  0.13483057  0.59421427  0.62397455  1  0.097762  0.097657  1.6e-05  1.017858  0.0
H  H26  1  0.49340718  0.73331569  0.77928396  1  0.104585  0.112384  -0.00047  1.044239  0.0
H  H27  1  0.01012811  0.22302025  0.26864457  1  0.104592  0.112446  -0.000445  1.045376  0.0
H  H28  1  0.50659849  0.26668055  0.22072086  1  0.104564  0.112391  -0.00047  1.044225  0.0
H  H29  1  0.98987745  0.77697898  0.73135332  1  0.104593  0.112421  -0.000445  1.045432  0.0
C  C30  1  0.27000325  0.75620763  0.98290842  1  0.229669  0.602631  0.016569  4.176458  0.016
C  C31  1  0.23171735  0.01971415  0.24241235  1  0.230598  0.603377  0.017006  4.173858  0.016
C  C32  1  0.72999572  0.24379343  0.01709723  1  0.229707  0.602592  0.016567  4.17636  0.016
C  C33  1  0.76828430  0.98028507  0.75758659  1  0.230628  0.603438  0.017005  4.173772  0.016
C  C34  1  0.27864541  0.61211780  0.96612652  1  0.007811  -0.027862  0.004288  3.898248  0.003
C  C35  1  0.22215331  0.03376827  0.38674724  1  0.008074  -0.027135  0.004099  3.898111  0.003
C  C36  1  0.72135091  0.38788430  0.03387430  1  0.007778  -0.027944  0.004288  3.89837  0.003
C  C37  1  0.77784961  0.96623193  0.61325065  1  0.008089  -0.027168  0.004098  3.898159  0.003
C  C38  1  0.18911711  0.52920749  0.05382433  1  -0.083515  -0.15902  0.003001  3.992034  0.002
C  C39  1  0.31063475  0.94447659  0.46814799  1  -0.083589  -0.159507  0.002882  3.989576  0.002
C  C40  1  0.81087537  0.47079265  0.94617669  1  -0.083497  -0.158953  0.003  3.991971  0.002
C  C41  1  0.68936570  0.05551971  0.53185211  1  -0.083606  -0.159505  0.002881  3.989546  0.002
C  C42  1  0.18886686  0.39538033  0.03655124  1  0.060052  0.114212  0.000611  3.976859  0.0
C  C43  1  0.31115144  0.95982789  0.60216408  1  0.059611  0.11486  0.000782  3.978083  0.0
C  C44  1  0.81112160  0.60462276  0.96344680  1  0.060054  0.114174  0.000612  3.97672  0.0
C  C45  1  0.68884499  0.04017132  0.39783498  1  0.059565  0.114748  0.000783  3.978055  0.0
C  C46  1  0.36124915  0.42064936  0.84967926  1  0.109121  0.18362  0.00032  4.007149  0.0
C  C47  1  0.14067386  0.14752404  0.57997490  1  0.109203  0.183761  0.000227  4.004999  0.0
C  C48  1  0.63874325  0.57935273  0.15032165  1  0.10918  0.183589  0.000319  4.007065  0.0
C  C49  1  0.85933036  0.85247618  0.42002199  1  0.10915  0.183699  0.000227  4.004985  0.0
C  C50  1  0.44884166  0.36236364  0.74538859  1  -0.088176  -0.161108  0.000575  3.956057  0.001
C  C51  1  0.05429928  0.25125989  0.63996619  1  -0.087659  -0.160881  0.000608  3.954608  0.001
C  C52  1  0.55115350  0.63763455  0.25461442  1  -0.0882  -0.161194  0.000575  3.956139  0.001
C  C53  1  0.94570625  0.74874031  0.36003260  1  -0.087613  -0.160863  0.000608  3.954634  0.001
C  C54  1  0.54406629  0.43704088  0.65447048  1  -0.091393  -0.074766  0.000273  4.029854  0.0
C  C55  1  0.95973937  0.34335216  0.56687862  1  -0.091579  -0.075102  0.000114  4.028715  0.0
C  C56  1  0.45593010  0.56295925  0.34553239  1  -0.091354  -0.074691  0.000273  4.029804  0.0
C  C57  1  0.04026735  0.65665100  0.43311611  1  -0.091553  -0.075006  0.000114  4.028655  0.0
C  C58  1  0.55941634  0.57175411  0.66580615  1  -0.095628  -0.092095  0.00074  4.028419  0.001
C  C59  1  0.94434995  0.33400835  0.43207708  1  -0.09561  -0.092335  0.00078  4.028367  0.001
C  C60  1  0.44058280  0.42824219  0.33419301  1  -0.095648  -0.09204  0.00074  4.028347  0.001
C  C61  1  0.05565942  0.66599382  0.56791958  1  -0.09568  -0.09247  0.00078  4.028259  0.001
C  C62  1  0.47687564  0.63077846  0.76699243  1  -0.090878  -0.129207  0.000104  3.982446  0.0
C  C63  1  0.02613978  0.23361315  0.37133812  1  -0.090255  -0.128134  -3.6e-05  3.981634  0.0
C  C64  1  0.52312463  0.36922265  0.23301029  1  -0.090868  -0.129302  0.000103  3.982577  0.0
C  C65  1  0.97386571  0.76638805  0.62865771  1  -0.090207  -0.128021  -3.6e-05  3.981778  0.0
C  C66  1  0.37343412  0.55782842  0.86095107  1  -0.002108  0.015682  0.001348  3.948237  0.001
C  C67  1  0.12846154  0.13831932  0.44273810  1  -0.001857  0.015057  0.001358  3.948545  0.001
C  C68  1  0.62656625  0.44216978  0.13905182  1  -0.002085  0.015815  0.001348  3.948251  0.001
C  C69  1  0.87154533  0.86167990  0.55726169  1  -0.00184  0.015121  0.001358  3.948521  0.001
N  N70  1  0.26775946  0.34271955  0.93716007  1  -0.29899  -0.265404  0.002468  3.407951  0.004
N  N71  1  0.23326445  0.05865882  0.65644706  1  -0.299386  -0.266368  0.002294  3.406745  0.003
N  N72  1  0.73223433  0.65728058  0.06284189  1  -0.299012  -0.265394  0.002468  3.407903  0.004
N  N73  1  0.76673589  0.94134040  0.34355190  1  -0.299355  -0.266323  0.002294  3.406713  0.003
O  O74  1  0.12193140  0.80372253  0.01423515  1  -0.297926  -0.562207  0.043483  2.279013  0.029
O  O75  1  0.38002731  0.98835477  0.19524545  1  -0.298399  -0.561443  0.043665  2.287263  0.029
O  O76  1  0.87807404  0.19628041  0.98577605  1  -0.297937  -0.562157  0.043484  2.278842  0.029
O  O77  1  0.61997430  0.01164542  0.80475343  1  -0.29839  -0.561465  0.043668  2.287217  0.029
O  O78  1  0.41183535  0.81631551  0.96366890  1  -0.302986  -0.55761  0.042448  2.360566  0.024
O  O79  1  0.09120919  0.04128576  0.18168185  1  -0.30337  -0.559492  0.042552  2.352986  0.025
O  O80  1  0.58816888  0.18368469  0.03632993  1  -0.303015  -0.557612  0.042446  2.360611  0.024
O  O81  1  0.90879259  0.95870956  0.81831829  1  -0.303397  -0.559546  0.042551  2.352909  0.025
O  O82  1  0.75067041  0.91297241  0.08876471  1  -0.54322  -0.761598  0.081383  2.335621  0.049
O  O83  1  0.24932855  0.08702874  0.91123417  1  -0.543225  -0.761585  0.081377  2.335585  0.049
