# generated using pymatgen
data_AlH12C27N7O12
_symmetry_space_group_name_H-M   'P 1'
_cell_length_a   3.92932512
_cell_length_b   18.05432109
_cell_length_c   18.13619871
_cell_angle_alpha   119.82443592
_cell_angle_beta   91.15856744
_cell_angle_gamma   90.81273166
_symmetry_Int_Tables_number   1
_chemical_formula_structural   AlH12C27N7O12
_chemical_formula_sum   'Al1 H12 C27 N7 O12'
_cell_volume   1115.53490170
_cell_formula_units_Z   1
loop_
 _symmetry_equiv_pos_site_id
 _symmetry_equiv_pos_as_xyz
  1  'x, y, z'
loop_
 _atom_site_type_symbol
 _atom_site_label
 _atom_site_symmetry_multiplicity
 _atom_site_fract_x
 _atom_site_fract_y
 _atom_site_fract_z
 _atom_site_occupancy
 _atom_site_pbe_bader_charge
 _atom_site_pbe_bader_spin_density
 _atom_site_pbe_cm5_charge
 _atom_site_pbe_ddec_charge
 _atom_site_pbe_ddec_spin_density
 _atom_site_pbe_ddec_sum_bond_order
 _atom_site_pbe_magmom
Al  Al0  1  0.00879642  0.00045088  0.50011821  1  2.50204  0  0.425897  1.590791  0  2.553044  0
H  H1  1  0.79906038  0.30150151  0.40374931  1  0.136353  0  0.120668  0.152477  0  0.974344  0
H  H2  1  0.79091693  0.09492415  0.89691258  1  0.126574  0  0.120546  0.15279  0  0.974316  0
H  H3  1  0.75039383  0.60727924  0.19720362  1  0.129082  0  0.120767  0.15485  0  0.97183  0
H  H4  1  0.26581937  0.30212656  0.89254557  1  0.137645  0  0.120615  0.152206  0  0.974947  0
H  H5  1  0.23326620  0.60058136  0.40255473  1  0.132536  0  0.120492  0.152286  0  0.974784  0
H  H6  1  0.23223919  0.09154466  0.19542165  1  0.132408  0  0.121  0.153542  0  0.972415  0
H  H7  1  0.15049135  0.98501606  0.31303536  1  0.632212  0  0.316234  0.355803  0  0.945678  0
H  H8  1  0.86881831  0.18660510  0.51358403  1  0.629512  0  0.316233  0.356876  0  0.946591  0
H  H9  1  0.15690786  0.82475104  0.51225116  1  0.624272  0  0.316447  0.356485  0  0.942447  0
H  H10  1  0.82553646  0.83207777  0.31449327  1  0.630319  0  0.316252  0.356104  0  0.946024  0
H  H11  1  0.18986561  0.18658208  0.66878325  1  0.637703  0  0.316938  0.357916  0  0.943997  0
H  H12  1  0.86602161  0.98714973  0.67401277  1  0.607498  0  0.316391  0.357171  0  0.942036  0
C  C13  1  0.50844563  0.06727392  0.43266597  1  1.410027  0  0.256587  0.650555  0  4.056792  0
C  C14  1  0.52345646  0.06736140  0.63361250  1  1.472796  0  0.256972  0.649887  0  4.061031  0
C  C15  1  0.49510991  0.86631116  0.43288964  1  1.456458  0  0.257065  0.649382  0  4.060575  0
C  C16  1  0.67533602  0.23864596  0.37608674  1  0.020301  0  -0.098182  -0.252376  0  3.911685  0
C  C17  1  0.51533325  0.20079420  0.29544033  1  0.021513  0  0.009574  0.07081  0  4.009129  0
C  C18  1  0.67814459  0.12281691  0.86132894  1  0.063919  0  -0.097676  -0.252088  0  3.910972  0
C  C19  1  0.52804888  0.20270138  0.90315536  1  -0.040765  0  0.009024  0.069531  0  4.008061  0
C  C20  1  0.49197610  0.59553622  0.29567579  1  0.089256  0  0.00896  0.069487  0  4.006156  0
C  C21  1  0.63766341  0.64068747  0.25943507  1  0.068948  0  -0.09774  -0.25447  0  3.911066  0
C  C22  1  0.38014896  0.23977309  0.85883866  1  0.078144  0  -0.097908  -0.252156  0  3.911533  0
C  C23  1  0.36379018  0.19404086  0.77044213  1  0.513328  0  0.101861  0.35022  0  4.048013  0
C  C24  1  0.52792056  0.11374886  0.72538616  1  -0.048757  0  -0.048495  -0.344514  0  3.979762  0
C  C25  1  0.69430389  0.08023198  0.77311035  1  0.554722  0  0.102411  0.350437  0  4.04795  0
C  C26  1  0.65344677  0.72948333  0.30579486  1  0.530648  0  0.102092  0.349924  0  4.04761  0
C  C27  1  0.49082600  0.77411014  0.38589572  1  -0.051076  0  -0.048626  -0.343963  0  3.978679  0
C  C28  1  0.32714501  0.72558896  0.41867133  1  0.529412  0  0.101945  0.349063  0  4.048703  0
C  C29  1  0.34406916  0.63694376  0.37541049  1  0.003717  0  -0.097529  -0.251024  0  3.907742  0
C  C30  1  0.35469406  0.12003146  0.25833763  1  0.077525  0  -0.098211  -0.254684  0  3.91002  0
C  C31  1  0.33626272  0.07785876  0.30486360  1  0.499517  0  0.102426  0.351253  0  4.048832  0
C  C32  1  0.51160157  0.11257337  0.38576445  1  0.083858  0  -0.048903  -0.345835  0  3.980363  0
C  C33  1  0.69000078  0.19320113  0.41942386  1  0.447044  0  0.101803  0.350451  0  4.04898  0
C  C34  1  0.50482168  0.37748189  0.25418809  1  1.49891  0  0.358156  0.502283  0  4.081693  0
C  C35  1  0.51973019  0.24282808  0.11975928  1  1.542035  0  0.358282  0.501337  0  4.079489  0
C  C36  1  0.51438686  0.24803284  0.24831364  1  1.058844  0  0.26559  0.389488  0  4.018562  0
C  C37  1  0.49715479  0.50122210  0.24852696  1  1.063219  0  0.265426  0.389194  0  4.018231  0
C  C38  1  0.50982537  0.37819461  0.11989483  1  1.567891  0  0.358578  0.502241  0  4.083703  0
C  C39  1  0.52336450  0.24935260  0.99701357  1  1.072581  0  0.266057  0.390895  0  4.015991  0
N  N40  1  0.51139960  0.33282835  0.16461292  1  -1.236006  0  -0.19179  -0.242034  0  3.555282  0
N  N41  1  0.51204239  0.20087507  0.16296579  1  -1.146503  0  -0.313344  -0.429395  0  3.190413  0
N  N42  1  0.51562280  0.33374337  0.29559039  1  -1.1403  0  -0.313285  -0.430378  0  3.192894  0
N  N43  1  0.48760779  0.46239256  0.29542832  1  -1.102699  0  -0.312878  -0.430497  0  3.194201  0
N  N44  1  0.51232181  0.46334112  0.16339110  1  -1.261024  0  -0.31282  -0.429257  0  3.195661  0
N  N45  1  0.53576849  0.20181942  0.03522671  1  -1.194643  0  -0.313047  -0.430382  0  3.191584  0
N  N46  1  0.50605720  0.33487787  0.03514370  1  -1.167752  0  -0.313545  -0.430489  0  3.196374  0
O  O47  1  0.27021917  0.90617713  0.49004930  1  -1.267119  0  -0.245519  -0.613862  0  2.383755  0
O  O48  1  0.26988597  0.01015785  0.41644863  1  -1.266196  0  -0.246306  -0.616445  0  2.396155  0
O  O49  1  0.29126910  0.08358391  0.59190488  1  -1.266874  0  -0.247032  -0.621743  0  2.409825  0
O  O50  1  0.72615778  0.90840863  0.41713541  1  -1.267365  0  -0.247267  -0.621326  0  2.411447  0
O  O51  1  0.74941369  0.01015356  0.59375636  1  -1.269295  0  -0.245282  -0.613723  0  2.385349  0
O  O52  1  0.74440982  0.08421643  0.49061542  1  -1.269096  0  -0.247218  -0.618298  0  2.396731  0
O  O53  1  0.15932511  0.00279971  0.26964102  1  -1.138272  0  -0.341583  -0.417285  0  2.249632  0
O  O54  1  0.86511822  0.22928975  0.49459837  1  -1.13155  0  -0.341887  -0.418769  0  2.249268  0
O  O55  1  0.16508356  0.76313952  0.49307075  1  -1.130247  0  -0.340437  -0.416014  0  2.247964  0
O  O56  1  0.81548054  0.77073430  0.27116741  1  -1.133135  0  -0.341902  -0.417916  0  2.247148  0
O  O57  1  0.19965963  0.22950047  0.73002317  1  -1.141217  0  -0.342166  -0.419201  0  2.246874  0
O  O58  1  0.85839652  0.00567789  0.73518004  1  -1.11288  0  -0.340711  -0.417612  0  2.248166  0
