# generated using pymatgen
data_Zn4H18C24N6O13
_symmetry_space_group_name_H-M   'P 1'
_cell_length_a   17.88633832
_cell_length_b   17.79318364
_cell_length_c   18.14270428
_cell_angle_alpha   61.31179525
_cell_angle_beta   61.52594690
_cell_angle_gamma   61.10072481
_symmetry_Int_Tables_number   1
_chemical_formula_structural   Zn4H18C24N6O13
_chemical_formula_sum   'Zn8 H36 C48 N12 O26'
_cell_volume   4203.20254727
_cell_formula_units_Z   2
loop_
 _symmetry_equiv_pos_site_id
 _symmetry_equiv_pos_as_xyz
  1  'x, y, z'
loop_
 _atom_site_type_symbol
 _atom_site_label
 _atom_site_symmetry_multiplicity
 _atom_site_fract_x
 _atom_site_fract_y
 _atom_site_fract_z
 _atom_site_occupancy
 _atom_site_pbe_bader_charge
 _atom_site_pbe_bader_spin_density
 _atom_site_pbe_cm5_charge
 _atom_site_pbe_ddec_charge
 _atom_site_pbe_ddec_spin_density
 _atom_site_pbe_ddec_sum_bond_order
 _atom_site_pbe_magmom
Zn  Zn0  1  0.95394425  0.96954395  0.14313532  1  1.305122  0  0.671805  0.964678  0  2.377913  0
Zn  Zn1  1  0.94477607  0.96546298  0.97335021  1  1.323758  0  0.674491  0.972162  0  2.33525  0
Zn  Zn2  1  0.12575413  0.95805877  0.97320578  1  1.320472  0  0.679051  0.973972  0  2.338352  0
Zn  Zn3  1  0.95366810  0.14135405  0.97131942  1  1.310543  0  0.682255  0.979739  0  2.315764  0
Zn  Zn4  1  0.53858429  0.55237183  0.38577735  1  1.319727  0  0.683547  0.979396  0  2.333091  0
Zn  Zn5  1  0.53297541  0.55757372  0.56238208  1  1.324476  0  0.678747  0.977436  0  2.32204  0
Zn  Zn6  1  0.54175517  0.37732189  0.55577807  1  1.311159  0  0.67086  0.964727  0  2.363775  0
Zn  Zn7  1  0.36344322  0.54676919  0.55694605  1  1.316167  0  0.675655  0.969037  0  2.356765  0
H  H8  1  0.90728838  0.69470217  0.21683580  1  0.03801  0  0.102377  0.112403  0  0.996784  0
H  H9  1  0.88850673  0.55200493  0.32477038  1  0.431445  0  0.299217  0.289414  0  0.952643  0
H  H10  1  0.78796337  0.54202997  0.39657388  1  0.434788  0  0.293425  0.291774  0  0.975609  0
H  H11  1  0.57498771  0.83192530  0.32125606  1  0.021861  0  0.104344  0.115523  0  0.993039  0
H  H12  1  0.69962028  0.98643885  0.21559790  1  0.449714  0  0.290896  0.290473  0  0.9783  0
H  H13  1  0.59695510  0.97595247  0.26153770  1  0.418686  0  0.298409  0.288405  0  0.954994  0
H  H14  1  0.19704734  0.92231392  0.21993438  1  0.021052  0  0.101833  0.111394  0  0.995944  0
H  H15  1  0.25441334  0.90081520  0.32715060  1  0.43785  0  0.297749  0.286414  0  0.957253  0
H  H16  1  0.29895894  0.79740635  0.39328508  1  0.457241  0  0.292295  0.291645  0  0.978633  0
H  H17  1  0.30056743  0.58726662  0.30514002  1  0.068063  0  0.105229  0.116374  0  0.989927  0
H  H18  1  0.12826602  0.70990830  0.19984066  1  0.43657  0  0.293591  0.290214  0  0.973374  0
H  H19  1  0.19789422  0.60763939  0.24139338  1  0.418265  0  0.301045  0.290796  0  0.953146  0
H  H20  1  0.68362851  0.21660977  0.20353836  1  0.048697  0  0.103971  0.11548  0  0.995356  0
H  H21  1  0.53935698  0.27108326  0.30762693  1  0.417945  0  0.299856  0.289981  0  0.953162  0
H  H22  1  0.52805229  0.31190735  0.38040092  1  0.426183  0  0.293315  0.291962  0  0.97567  0
H  H23  1  0.81579191  0.31119353  0.31760820  1  0.056172  0  0.103202  0.113837  0  0.994413  0
H  H24  1  0.97165447  0.14040705  0.21179805  1  0.444464  0  0.291978  0.293198  0  0.978838  0
H  H25  1  0.95918414  0.20729679  0.26106883  1  0.408849  0  0.298832  0.288716  0  0.95592  0
H  H26  1  0.18245749  0.68365934  0.93166495  1  0.046591  0  0.105697  0.117322  0  0.990478  0
H  H27  1  0.23743354  0.54198335  0.90777224  1  0.426002  0  0.301859  0.293816  0  0.948026  0
H  H28  1  0.28376193  0.53191117  0.80607884  1  0.442003  0  0.291249  0.292512  0  0.989197  0
H  H29  1  0.28935397  0.82449430  0.60568996  1  0.065926  0  0.101598  0.111595  0  0.997389  0
H  H30  1  0.11165269  0.97647654  0.72700219  1  0.43345  0  0.292096  0.289896  0  0.975832  0
H  H31  1  0.18217845  0.96750203  0.62707584  1  0.394702  0  0.296955  0.285638  0  0.956179  0
H  H32  1  0.91112947  0.21314880  0.69995345  1  0.082947  0  0.102891  0.113449  0  0.996793  0
H  H33  1  0.89151860  0.27083664  0.55803665  1  0.410376  0  0.297837  0.287546  0  0.956822  0
H  H34  1  0.78949520  0.31592039  0.54567477  1  0.447652  0  0.29114  0.291972  0  0.978567  0
H  H35  1  0.57834703  0.32048370  0.82769375  1  0.073394  0  0.104066  0.114893  0  0.995172  0
H  H36  1  0.69596858  0.14217641  0.98196491  1  0.45427  0  0.293359  0.293239  0  0.9774  0
H  H37  1  0.59558915  0.21626061  0.96928665  1  0.410094  0  0.30089  0.291167  0  0.95206  0
H  H38  1  0.19504351  0.21726436  0.92492881  1  0.039468  0  0.105259  0.116675  0  0.992344  0
H  H39  1  0.29996801  0.28090132  0.90178280  1  0.424623  0  0.299867  0.28978  0  0.95042  0
H  H40  1  0.37202470  0.31649648  0.80185317  1  0.429646  0  0.292684  0.290491  0  0.974111  0
H  H41  1  0.30255618  0.28716751  0.59948903  1  0.063942  0  0.102116  0.112168  0  0.99575  0
H  H42  1  0.20076002  0.11068047  0.72900692  1  0.469437  0  0.290502  0.292604  0  0.989262  0
H  H43  1  0.24836142  0.17288821  0.62636028  1  0.416796  0  0.299064  0.28981  0  0.955275  0
C  C44  1  0.85302048  0.87627194  0.15389432  1  1.523576  0  0.234288  0.640273  0  4.116605  0
C  C45  1  0.79474359  0.81838538  0.21578526  1  0.040818  0  -0.027625  -0.123264  0  3.985315  0
C  C46  1  0.83418377  0.72407380  0.24259931  1  -0.000761  0  -0.101706  -0.210972  0  3.98793  0
C  C47  1  0.78239721  0.66711532  0.30350270  1  0.411019  0  0.083473  0.257267  0  4.10094  0
C  C48  1  0.68787292  0.70850121  0.32826328  1  -0.004878  0  -0.024331  -0.116135  0  3.970468  0
C  C49  1  0.64837331  0.80266570  0.30020893  1  0.069137  0  -0.100762  -0.210778  0  3.987733  0
C  C50  1  0.70069972  0.85988350  0.24777515  1  0.374251  0  0.080755  0.253914  0  4.101001  0
C  C51  1  0.62834725  0.65111388  0.38503610  1  1.546293  0  0.236428  0.641662  0  4.115136  0
C  C52  1  0.13499703  0.86808791  0.15162055  1  1.548157  0  0.235762  0.641159  0  4.115013  0
C  C53  1  0.19230326  0.80876983  0.21071431  1  0.01314  0  -0.025143  -0.118207  0  3.980847  0
C  C54  1  0.21813143  0.84841165  0.24107750  1  0.019229  0  -0.103498  -0.214266  0  3.995033  0
C  C55  1  0.26846336  0.79558056  0.29972122  1  0.417959  0  0.081951  0.25586  0  4.107156  0
C  C56  1  0.29937934  0.70060954  0.31995905  1  0.013903  0  -0.026011  -0.121221  0  3.981499  0
C  C57  1  0.27527538  0.66104550  0.28784084  1  -0.040871  0  -0.098427  -0.206481  0  3.980088  0
C  C58  1  0.21755496  0.71367093  0.23640401  1  0.416979  0  0.081396  0.25453  0  4.106905  0
C  C59  1  0.35744761  0.64125446  0.37796765  1  1.52954  0  0.235398  0.639914  0  4.11266  0
C  C60  1  0.86368936  0.15175478  0.14845700  1  1.551731  0  0.233185  0.635582  0  4.117557  0
C  C61  1  0.80546685  0.20779132  0.20838871  1  -0.013984  0  -0.026078  -0.122201  0  3.977674  0
C  C62  1  0.71189113  0.23516336  0.23162548  1  -0.015061  0  -0.101141  -0.21129  0  3.985822  0
C  C63  1  0.65408098  0.28324578  0.29185514  1  0.412937  0  0.082446  0.255677  0  4.101017  0
C  C64  1  0.69413371  0.31217773  0.31993508  1  -0.036227  0  -0.0247  -0.117207  0  3.979052  0
C  C65  1  0.78751186  0.28710640  0.29473616  1  0.055249  0  -0.101705  -0.212226  0  3.988578  0
C  C66  1  0.84539710  0.23010561  0.24283271  1  0.399545  0  0.083136  0.259515  0  4.100484  0
C  C67  1  0.63586244  0.37028975  0.37797442  1  1.547256  0  0.234256  0.639201  0  4.117891  0
C  C68  1  0.12209122  0.86516125  0.88186439  1  1.522939  0  0.234652  0.638218  0  4.117362  0
C  C69  1  0.17764049  0.80828038  0.82241574  1  0.021633  0  -0.02401  -0.11543  0  3.97671  0
C  C70  1  0.20362827  0.71399193  0.85960887  1  0.075865  0  -0.09919  -0.209241  0  3.974775  0
C  C71  1  0.25416310  0.65755488  0.80671473  1  0.335448  0  0.087608  0.266868  0  4.091824  0
C  C72  1  0.28732742  0.69992148  0.71435303  1  -0.009563  0  -0.027425  -0.125745  0  3.974935  0
C  C73  1  0.26271653  0.79441766  0.67739086  1  0.055533  0  -0.103527  -0.211892  0  3.995655  0
C  C74  1  0.20321371  0.85074632  0.72962187  1  0.371818  0  0.078667  0.249335  0  4.10205  0
C  C75  1  0.34907390  0.64375424  0.65488168  1  1.53978  0  0.232878  0.636931  0  4.112257  0
C  C76  1  0.85577743  0.14917102  0.87742425  1  1.533105  0  0.235323  0.639025  0  4.119558  0
C  C77  1  0.79748647  0.20756280  0.81925305  1  0.073441  0  -0.024455  -0.117914  0  3.969197  0
C  C78  1  0.83770703  0.23460804  0.72734693  1  -0.083097  0  -0.101731  -0.211959  0  3.987728  0
C  C79  1  0.78618760  0.28628331  0.66981895  1  0.449439  0  0.081324  0.256665  0  4.097069  0
C  C80  1  0.69171377  0.31858846  0.70847621  1  -0.061263  0  -0.027045  -0.123652  0  3.980947  0
C  C81  1  0.65159672  0.29392210  0.80041148  1  -0.031154  0  -0.099575  -0.207045  0  3.980721  0
C  C82  1  0.70276651  0.23379846  0.85787392  1  0.453375  0  0.083926  0.257771  0  4.099559  0
C  C83  1  0.63299835  0.37716575  0.65102048  1  1.539002  0  0.23333  0.636323  0  4.115652  0
C  C84  1  0.13774373  0.13863410  0.87815801  1  1.511835  0  0.234846  0.639765  0  4.10766  0
C  C85  1  0.19798962  0.19449372  0.81752954  1  0.009833  0  -0.026405  -0.12449  0  3.97082  0
C  C86  1  0.22172891  0.23084399  0.85334220  1  -0.047661  0  -0.098872  -0.204869  0  3.981458  0
C  C87  1  0.28080921  0.28097078  0.80011158  1  0.429286  0  0.078717  0.248168  0  4.100752  0
C  C88  1  0.30677619  0.30277667  0.70752380  1  0.075273  0  -0.024895  -0.117326  0  3.982817  0
C  C89  1  0.28112100  0.26865109  0.67144034  1  0.0214  0  -0.102793  -0.213086  0  3.986661  0
C  C90  1  0.23087930  0.20932571  0.72538833  1  0.375156  0  0.086147  0.264854  0  4.090145  0
C  C91  1  0.36322217  0.36293400  0.64738887  1  1.523954  0  0.234245  0.639042  0  4.114275  0
N  N92  1  0.82197383  0.57272606  0.33345111  1  -1.202825  0  -0.609467  -0.632402  0  3.282292  0
N  N93  1  0.66123318  0.95462632  0.22225277  1  -1.227545  0  -0.612811  -0.634761  0  3.276513  0
N  N94  1  0.29292857  0.83519622  0.33170785  1  -1.229898  0  -0.61154  -0.631749  0  3.287518  0
N  N95  1  0.19071118  0.67416801  0.20647192  1  -1.189163  0  -0.609293  -0.630471  0  3.28448  0
N  N96  1  0.56037926  0.30787576  0.31799496  1  -1.196389  0  -0.610034  -0.631103  0  3.283426  0
N  N97  1  0.93896216  0.20226999  0.22049812  1  -1.191026  0  -0.61204  -0.634197  0  3.285292  0
N  N98  1  0.27671870  0.56342833  0.84439011  1  -1.211903  0  -0.609493  -0.634867  0  3.291473  0
N  N99  1  0.17535327  0.94581516  0.69224359  1  -1.189298  0  -0.612274  -0.632733  0  3.273422  0
N  N100  1  0.82658695  0.31074616  0.57750357  1  -1.226218  0  -0.613925  -0.636917  0  3.278178  0
N  N101  1  0.66220429  0.20618127  0.94981449  1  -1.203502  0  -0.609682  -0.632108  0  3.284819  0
N  N102  1  0.30810067  0.31430475  0.83614361  1  -1.192206  0  -0.61009  -0.631592  0  3.269948  0
N  N103  1  0.20835143  0.17245268  0.68912015  1  -1.225342  0  -0.611119  -0.636138  0  3.292144  0
O  O104  1  0.99465504  0.00874203  0.01444209  1  -1.223433  0  -0.586252  -1.052753  0  2.602333  0
O  O105  1  0.90047038  0.86824177  0.07711882  1  -1.166782  0  -0.311798  -0.540901  0  2.264803  0
O  O106  1  0.85002285  0.93124091  0.18293892  1  -1.171857  0  -0.320908  -0.565714  0  2.286086  0
O  O107  1  0.63070446  0.60426449  0.46451971  1  -1.175516  0  -0.314765  -0.556303  0  2.272733  0
O  O108  1  0.58034875  0.65289344  0.34976644  1  -1.159301  0  -0.309646  -0.538627  0  2.275394  0
O  O109  1  0.17088960  0.91279313  0.07253683  1  -1.165249  0  -0.308021  -0.534732  0  2.265953  0
O  O110  1  0.05346535  0.86816772  0.18573594  1  -1.171786  0  -0.318653  -0.56079  0  2.280562  0
O  O111  1  0.32300984  0.64619568  0.45663966  1  -1.17085  0  -0.318262  -0.561879  0  2.283393  0
O  O112  1  0.43632959  0.59115147  0.34582499  1  -1.169542  0  -0.309011  -0.537399  0  2.268489  0
O  O113  1  0.85652220  0.18412661  0.07149721  1  -1.154725  0  -0.306312  -0.533154  0  2.262493  0
O  O114  1  0.91804504  0.07365986  0.17952845  1  -1.172554  0  -0.321272  -0.566773  0  2.28921  0
O  O115  1  0.58536971  0.33539804  0.45474266  1  -1.171073  0  -0.31887  -0.563277  0  2.280433  0
O  O116  1  0.63977226  0.44988967  0.34737252  1  -1.159886  0  -0.307562  -0.53577  0  2.270935  0
O  O117  1  0.15747193  0.85814619  0.93242782  1  -1.160233  0  -0.309613  -0.538586  0  2.273285  0
O  O118  1  0.04303867  0.91790753  0.87649715  1  -1.172163  0  -0.316373  -0.559718  0  2.272778  0
O  O119  1  0.32061512  0.58787403  0.65827327  1  -1.169982  0  -0.315934  -0.557476  0  2.285335  0
O  O120  1  0.42563286  0.65441513  0.60536415  1  -1.166107  0  -0.313921  -0.544718  0  2.265496  0
O  O121  1  0.90746110  0.18180438  0.87397407  1  -1.155039  0  -0.308428  -0.536291  0  2.271697  0
O  O122  1  0.84846928  0.07027098  0.92721167  1  -1.177678  0  -0.317258  -0.560638  0  2.281804  0
O  O123  1  0.64142862  0.34408367  0.59696577  1  -1.171363  0  -0.321078  -0.566164  0  2.286017  0
O  O124  1  0.57939914  0.45478608  0.65885711  1  -1.165927  0  -0.309283  -0.536942  0  2.265222  0
O  O125  1  0.06197316  0.17386489  0.92935265  1  -1.166472  0  -0.313313  -0.544912  0  2.267884  0
O  O126  1  0.16682331  0.05864756  0.87384224  1  -1.174236  0  -0.31568  -0.558229  0  2.287107  0
O  O127  1  0.44236753  0.33268928  0.65286250  1  -1.169362  0  -0.316756  -0.559254  0  2.276506  0
O  O128  1  0.32875702  0.43989335  0.59619581  1  -1.163215  0  -0.312529  -0.540877  0  2.264946  0
O  O129  1  0.49439179  0.50911540  0.51509327  1  -1.233264  0  -0.586923  -1.053429  0  2.605472  0
