# generated using pymatgen
data_UH10C14(NO3)2
_symmetry_space_group_name_H-M   'P 1'
_cell_length_a   9.06504551
_cell_length_b   11.88594908
_cell_length_c   13.85800000
_cell_angle_alpha   108.92251228
_cell_angle_beta   90.00000000
_cell_angle_gamma   90.00000000
_symmetry_Int_Tables_number   1
_chemical_formula_structural   UH10C14(NO3)2
_chemical_formula_sum   'U4 H40 C56 N8 O24'
_cell_volume   1412.46037193
_cell_formula_units_Z   4
loop_
 _symmetry_equiv_pos_site_id
 _symmetry_equiv_pos_as_xyz
  1  'x, y, z'
loop_
 _atom_site_type_symbol
 _atom_site_label
 _atom_site_symmetry_multiplicity
 _atom_site_fract_x
 _atom_site_fract_y
 _atom_site_fract_z
 _atom_site_occupancy
 _atom_site_hle17_bader_spin_density
 _atom_site_hle17_ddec_charge
 _atom_site_hle17_ddec_spin_density
 _atom_site_hle17_ddec_sum_bond_order
 _atom_site_hle17_magmom
 _atom_site_hse06_10hf_bader_spin_density
 _atom_site_hse06_10hf_ddec_charge
 _atom_site_hse06_10hf_ddec_spin_density
 _atom_site_hse06_10hf_ddec_sum_bond_order
 _atom_site_hse06_10hf_magmom
 _atom_site_hse06_bader_spin_density
 _atom_site_hse06_ddec_charge
 _atom_site_hse06_ddec_spin_density
 _atom_site_hse06_ddec_sum_bond_order
 _atom_site_hse06_magmom
 _atom_site_pbe_bader_charge
 _atom_site_pbe_bader_spin_density
 _atom_site_pbe_cm5_charge
 _atom_site_pbe_ddec_charge
 _atom_site_pbe_ddec_spin_density
 _atom_site_pbe_ddec_sum_bond_order
 _atom_site_pbe_magmom
U  U0  1  0.41283632  0.06325905  0.72819317  1  0  2.3617  0  4.269108  0  0  2.398713  0  4.951697  0  0  2.50917  0  4.914665  0  2.875248  0  2.201206  2.323516  0  4.975377  0
U  U1  1  0.91283822  0.43674145  0.77180783  1  0  2.361786  0  4.269196  0  0  2.398815  0  4.951822  0  0  2.509268  0  4.914799  0  2.875112  0  2.20124  2.323621  0  4.975508  0
U  U2  1  0.58715977  0.93674195  0.27180811  1  0  2.361792  0  4.269012  0  0  2.398803  0  4.951655  0  0  2.509197  0  4.914713  0  2.875  0  2.201222  2.323603  0  4.975348  0
U  U3  1  0.08716338  0.56325955  0.22819634  1  0  2.36162  0  4.269358  0  0  2.398683  0  4.951912  0  0  2.509222  0  4.914756  0  2.875347  0  2.201233  2.323496  0  4.975585  0
H  H4  1  0.17517618  0.61541095  0.58296592  1  0  0.124705  0  0.935528  0  0  0.135586  0  0.992094  0  0  0.139069  0  0.990218  0  0.137111  0  0.122285  0.133513  0  0.992626  0
H  H5  1  0.67518249  0.88458876  0.91702722  1  0  0.124616  0  0.935527  0  0  0.135554  0  0.992046  0  0  0.139038  0  0.990169  0  0.137064  0  0.122269  0.133478  0  0.992577  0
H  H6  1  0.82481439  0.38458649  0.41702861  1  0  0.124521  0  0.935704  0  0  0.13549  0  0.99219  0  0  0.138973  0  0.990312  0  0.137198  0  0.122253  0.133415  0  0.992719  0
H  H7  1  0.32482352  0.11541134  0.08296732  1  0  0.12469  0  0.935572  0  0  0.135589  0  0.992127  0  0  0.139072  0  0.99025  0  0.137101  0  0.122282  0.133514  0  0.992658  0
H  H8  1  0.35131429  0.53475624  0.43458142  1  0  0.112141  0  0.958039  0  0  0.123559  0  1.017869  0  0  0.12756  0  1.015001  0  0.118772  0  0.115137  0.120529  0  1.020144  0
H  H9  1  0.85131398  0.96524436  0.06541629  1  0  0.112131  0  0.958069  0  0  0.123533  0  1.017915  0  0  0.127541  0  1.015038  0  0.118805  0  0.115159  0.120503  0  1.020188  0
H  H10  1  0.64868290  0.46524475  0.56541625  1  0  0.112125  0  0.958084  0  0  0.123514  0  1.017935  0  0  0.12753  0  1.015051  0  0.119047  0  0.115159  0.120485  0  1.020207  0
H  H11  1  0.14868762  0.03475575  0.93458114  1  0  0.112207  0  0.957961  0  0  0.123558  0  1.017862  0  0  0.127559  0  1.014992  0  0.118765  0  0.115133  0.120526  0  1.020137  0
H  H12  1  0.03910184  0.85726835  0.56466641  1  0  0.103556  0  0.935435  0  0  0.117639  0  0.989554  0  0  0.11969  0  0.989298  0  0.08224  0  0.11715  0.115673  0  0.990377  0
H  H13  1  0.53910485  0.64273314  0.93533660  1  0  0.103579  0  0.93537  0  0  0.117657  0  0.989495  0  0  0.119708  0  0.989239  0  0.082228  0  0.117146  0.115684  0  0.990325  0
H  H14  1  0.96089203  0.14273086  0.43533654  1  0  0.103545  0  0.935412  0  0  0.117626  0  0.989542  0  0  0.119678  0  0.989286  0  0.082198  0  0.117123  0.115638  0  0.990391  0
H  H15  1  0.46090116  0.35726963  0.06466446  1  0  0.103562  0  0.935422  0  0  0.117636  0  0.989537  0  0  0.119685  0  0.989283  0  0.082171  0  0.117139  0.115653  0  0.990381  0
H  H16  1  0.99044621  0.07639006  0.61296683  1  0  0.12508  0  0.937624  0  0  0.133179  0  0.999301  0  0  0.137172  0  0.99664  0  0.141  0  0.123717  0.130701  0  1.000719  0
H  H17  1  0.49044762  0.42361043  0.88703851  1  0  0.125063  0  0.937545  0  0  0.133154  0  0.999251  0  0  0.137147  0  0.996588  0  0.141469  0  0.123675  0.130684  0  1.000662  0
H  H18  1  0.00954987  0.92360915  0.38703830  1  0  0.125071  0  0.93758  0  0  0.133179  0  0.99926  0  0  0.137175  0  0.99659  0  0.141429  0  0.123681  0.130693  0  1.000691  0
H  H19  1  0.50955618  0.57639145  0.11296591  1  0  0.125045  0  0.937629  0  0  0.133138  0  0.999327  0  0  0.13713  0  0.996667  0  0.141053  0  0.123693  0.130661  0  1.000746  0
H  H20  1  0.68611459  0.69613415  0.39353571  1  0  0.118524  0  0.959478  0  0  0.13868  0  1.01989  0  0  0.139663  0  1.020409  0  0.050002  0  0.100698  0.138062  0  1.019489  0
H  H21  1  0.18611269  0.80386557  0.10646536  1  0  0.118481  0  0.959474  0  0  0.138626  0  1.019898  0  0  0.139609  0  1.020418  0  0.049954  0  0.100657  0.138008  0  1.019498  0
H  H22  1  0.31388370  0.30386774  0.60646654  1  0  0.118555  0  0.9595  0  0  0.138711  0  1.01991  0  0  0.139695  0  1.020429  0  0.049935  0  0.100729  0.138093  0  1.019509  0
H  H23  1  0.81388891  0.19613187  0.89353205  1  0  0.118489  0  0.95947  0  0  0.138632  0  1.019915  0  0  0.139614  0  1.020435  0  0.049991  0  0.100654  0.138013  0  1.019515  0
H  H24  1  0.53216390  0.61183826  0.32924093  1  0  0.129391  0  0.944275  0  0  0.149304  0  1.007378  0  0  0.151277  0  1.006343  0  0.078443  0  0.10235  0.147505  0  1.008452  0
H  H25  1  0.03216090  0.88815968  0.17075821  1  0  0.129368  0  0.944273  0  0  0.149287  0  1.007364  0  0  0.151261  0  1.00633  0  0.078476  0  0.102362  0.147496  0  1.008431  0
H  H26  1  0.46783659  0.38816096  0.67075842  1  0  0.129411  0  0.944239  0  0  0.149331  0  1.007341  0  0  0.151304  0  1.006307  0  0.078452  0  0.102364  0.147536  0  1.008411  0
H  H27  1  0.96784070  0.11183865  0.82923873  1  0  0.129404  0  0.944269  0  0  0.149352  0  1.007326  0  0  0.151329  0  1.006286  0  0.07847  0  0.102369  0.147554  0  1.0084  0
H  H28  1  0.65591507  0.54885937  0.39539036  1  0  0.117575  0  0.95657  0  0  0.141145  0  1.016288  0  0  0.141312  0  1.017638  0  0.095239  0  0.097886  0.140927  0  1.01537  0
H  H29  1  0.15591207  0.95114035  0.10461071  1  0  0.117603  0  0.956578  0  0  0.141142  0  1.016332  0  0  0.141311  0  1.017684  0  0.095255  0  0.097883  0.140925  0  1.015417  0
H  H30  1  0.34408652  0.45114252  0.60461117  1  0  0.117568  0  0.956567  0  0  0.141152  0  1.016277  0  0  0.14132  0  1.017627  0  0.095225  0  0.097883  0.140933  0  1.015361  0
H  H31  1  0.84409174  0.04885887  0.89538864  1  0  0.117618  0  0.956553  0  0  0.14115  0  1.01633  0  0  0.141318  0  1.017683  0  0.095293  0  0.097875  0.140932  0  1.015414  0
H  H32  1  0.89155537  0.63658832  0.48333233  1  0  0.140258  0  0.970377  0  0  0.165573  0  1.024394  0  0  0.167018  0  1.023633  0  0.129918  0  0.103161  0.164861  0  1.024785  0
H  H33  1  0.39155678  0.86341318  0.01666419  1  0  0.140285  0  0.970332  0  0  0.165576  0  1.024378  0  0  0.167022  0  1.023618  0  0.129978  0  0.103145  0.164865  0  1.02477  0
H  H34  1  0.10844071  0.36341179  0.51666366  1  0  0.140324  0  0.970358  0  0  0.165599  0  1.024407  0  0  0.167054  0  1.023636  0  0.129946  0  0.103148  0.164888  0  1.024797  0
H  H35  1  0.60844813  0.13658871  0.98332941  1  0  0.140345  0  0.970294  0  0  0.165635  0  1.02433  0  0  0.16709  0  1.02356  0  0.12992  0  0.103184  0.164921  0  1.024724  0
H  H36  1  0.74681037  0.63649404  0.57067225  1  0  0.111672  0  0.981872  0  0  0.132  0  1.044827  0  0  0.133325  0  1.04558  0  0.03419  0  0.093403  0.130925  0  1.044362  0
H  H37  1  0.24680957  0.86350301  0.92932303  1  0  0.111639  0  0.981927  0  0  0.131976  0  1.044859  0  0  0.133304  0  1.045614  0  0.034263  0  0.093403  0.130921  0  1.044372  0
H  H38  1  0.25318792  0.36350162  0.42932394  1  0  0.111689  0  0.981813  0  0  0.13201  0  1.044775  0  0  0.133337  0  1.045531  0  0.034261  0  0.093416  0.130955  0  1.044289  0
H  H39  1  0.75319423  0.13649621  0.07066983  1  0  0.111701  0  0.981842  0  0  0.132016  0  1.044813  0  0  0.133342  0  1.045572  0  0.034138  0  0.093388  0.130941  0  1.044348  0
H  H40  1  0.92700362  0.68300402  0.61652750  1  0  0.134562  0  0.953923  0  0  0.153816  0  1.018512  0  0  0.155932  0  1.017416  0  0.096232  0  0.102804  0.152028  0  1.019041  0
H  H41  1  0.42700392  0.81699214  0.88346754  1  0  0.134548  0  0.953983  0  0  0.153785  0  1.018593  0  0  0.155901  0  1.017498  0  0.096193  0  0.102773  0.151998  0  1.019123  0
H  H42  1  0.07299357  0.31699164  0.38346798  1  0  0.134575  0  0.953929  0  0  0.153786  0  1.018562  0  0  0.1559  0  1.01747  0  0.09616  0  0.10277  0.151998  0  1.019093  0
H  H43  1  0.57299988  0.18300619  0.11652507  1  0  0.134624  0  0.95386  0  0  0.153873  0  1.018445  0  0  0.15599  0  1.017349  0  0.096328  0  0.102805  0.152084  0  1.018973  0
C  C44  1  0.29929138  0.77780632  0.64178540  1  0  0.108104  0  3.761691  0  0  0.111702  0  4.014024  0  0  0.115245  0  4.030703  0  0.515766  0  0.121728  0.108009  0  4.004311  0
C  C45  1  0.79929659  0.72219428  0.85821088  1  0  0.107953  0  3.761766  0  0  0.111631  0  4.014023  0  0  0.115169  0  4.030713  0  0.515833  0  0.121719  0.107939  0  4.004307  0
C  C46  1  0.70070029  0.22219290  0.35821251  1  0  0.108047  0  3.761687  0  0  0.11172  0  4.013952  0  0  0.11526  0  4.030635  0  0.5159  0  0.121723  0.108029  0  4.004237  0
C  C47  1  0.20070942  0.27780671  0.14178536  1  0  0.108288  0  3.761538  0  0  0.111808  0  4.013989  0  0  0.115347  0  4.030673  0  0.515837  0  0.121779  0.108114  0  4.004272  0
C  C48  1  0.27402620  0.66350227  0.57448975  1  0  -0.090471  0  3.680732  0  0  -0.115302  0  3.933129  0  0  -0.118174  0  3.950046  0  -0.039526  0  -0.061541  -0.1123  0  3.920479  0
C  C49  1  0.77403141  0.83649833  0.92550653  1  0  -0.090324  0  3.680666  0  0  -0.115236  0  3.933069  0  0  -0.118108  0  3.949991  0  -0.03951  0  -0.061522  -0.112229  0  3.920413  0
C  C50  1  0.72596547  0.33649694  0.42550816  1  0  -0.090248  0  3.680801  0  0  -0.115193  0  3.933186  0  0  -0.118066  0  3.950109  0  -0.039527  0  -0.061489  -0.112189  0  3.920531  0
C  C51  1  0.22597460  0.16350089  0.07449066  1  0  -0.090529  0  3.680692  0  0  -0.115378  0  3.933116  0  0  -0.118249  0  3.950032  0  -0.039643  0  -0.06156  -0.112373  0  3.920463  0
C  C52  1  0.37389332  0.61787457  0.49539166  1  0  -0.048565  0  3.644084  0  0  -0.07618  0  3.898886  0  0  -0.074584  0  3.91517  0  -0.025569  0  -0.055284  -0.076472  0  3.886613  0
C  C53  1  0.87389523  0.88212603  0.00460605  1  0  -0.048513  0  3.643973  0  0  -0.076103  0  3.898831  0  0  -0.074518  0  3.91512  0  -0.025558  0  -0.055257  -0.076396  0  3.886555  0
C  C54  1  0.62610276  0.38212642  0.50460746  1  0  -0.048517  0  3.644044  0  0  -0.0761  0  3.898918  0  0  -0.074519  0  3.915205  0  -0.02585  0  -0.055278  -0.076392  0  3.886642  0
C  C55  1  0.12610968  0.11787408  0.99539066  1  0  -0.048561  0  3.644025  0  0  -0.076101  0  3.898785  0  0  -0.074503  0  3.915065  0  -0.025214  0  -0.055227  -0.076392  0  3.88651  0
C  C56  1  0.50423685  0.67925256  0.48961164  1  0  0.102519  0  3.649513  0  0  0.121658  0  3.891414  0  0  0.12003  0  3.913632  0  0.021728  0  0.019736  0.123497  0  3.875469  0
C  C57  1  0.00423715  0.82074627  0.01038702  1  0  0.102529  0  3.649392  0  0  0.121647  0  3.89134  0  0  0.12002  0  3.91356  0  0.021966  0  0.019724  0.123484  0  3.875399  0
C  C58  1  0.49576034  0.32074577  0.51038746  1  0  0.102606  0  3.649456  0  0  0.121675  0  3.891349  0  0  0.120045  0  3.913571  0  0.021747  0  0.019732  0.123512  0  3.875406  0
C  C59  1  0.99576886  0.17925472  0.98960921  1  0  0.102486  0  3.649508  0  0  0.121699  0  3.891361  0  0  0.120075  0  3.91358  0  0.021633  0  0.01977  0.123538  0  3.875416  0
C  C60  1  0.52911593  0.78752473  0.56863555  1  0  0.157994  0  3.682503  0  0  0.150663  0  3.932829  0  0  0.15745  0  3.951022  0  0.502007  0  0.140433  0.145084  0  3.921259  0
C  C61  1  0.02911954  0.71247321  0.93136359  1  0  0.158034  0  3.682427  0  0  0.150657  0  3.932772  0  0  0.157438  0  3.950971  0  0.501957  0  0.140459  0.145079  0  3.921201  0
C  C62  1  0.47087684  0.21247271  0.43136475  1  0  0.157913  0  3.682722  0  0  0.150745  0  3.932749  0  0  0.157534  0  3.950929  0  0.501961  0  0.140495  0.145166  0  3.921178  0
C  C63  1  0.97088757  0.28752779  0.06863409  1  0  0.158036  0  3.682423  0  0  0.1506  0  3.932903  0  0  0.15737  0  3.951133  0  0.502085  0  0.140403  0.145019  0  3.921334  0
C  C64  1  0.66609704  0.85880167  0.58349959  1  0  0.167202  0  3.669958  0  0  0.163207  0  3.914375  0  0  0.170576  0  3.931112  0  0.573821  0  0.146397  0.158446  0  3.903099  0
C  C65  1  0.16609845  0.64119716  0.91650124  1  0  0.167037  0  3.67007  0  0  0.163177  0  3.914353  0  0  0.170548  0  3.93109  0  0.573856  0  0.146355  0.158413  0  3.90308  0
C  C66  1  0.33389794  0.14119666  0.41650240  1  0  0.16705  0  3.67005  0  0  0.163169  0  3.914268  0  0  0.170538  0  3.931001  0  0.573774  0  0.146336  0.158404  0  3.902996  0
C  C67  1  0.83390756  0.35880384  0.08349716  1  0  0.167107  0  3.670047  0  0  0.163059  0  3.914566  0  0  0.170432  0  3.931306  0  0.573668  0  0.146357  0.158299  0  3.90329  0
C  C68  1  0.81049014  0.81102342  0.57039881  1  0  0.124477  0  3.630607  0  0  0.14515  0  3.865348  0  0  0.144416  0  3.886653  0  -0.018769  0  0.029345  0.145172  0  3.850587  0
C  C69  1  0.31049265  0.68897541  0.92960201  1  0  0.124532  0  3.630615  0  0  0.145135  0  3.865348  0  0  0.144401  0  3.886655  0  -0.018626  0  0.02935  0.145158  0  3.850588  0
C  C70  1  0.18950374  0.18897402  0.42960220  1  0  0.124564  0  3.630489  0  0  0.145149  0  3.865247  0  0  0.144412  0  3.886559  0  -0.018486  0  0.029363  0.145173  0  3.850484  0
C  C71  1  0.68951446  0.31102647  0.07039591  1  0  0.124416  0  3.630741  0  0  0.145174  0  3.86536  0  0  0.144443  0  3.886667  0  -0.017802  0  0.029303  0.145195  0  3.850595  0
C  C72  1  0.92680616  0.89135972  0.57840033  1  0  -0.040376  0  3.637187  0  0  -0.063707  0  3.883424  0  0  -0.061971  0  3.900281  0  0.080526  0  -0.051735  -0.064089  0  3.871603  0
C  C73  1  0.42680756  0.60864088  0.92160460  1  0  -0.040398  0  3.637254  0  0  -0.063712  0  3.88349  0  0  -0.061976  0  3.900347  0  0.080509  0  -0.051744  -0.064092  0  3.871678  0
C  C74  1  0.07318882  0.10863950  0.42160479  1  0  -0.040369  0  3.637266  0  0  -0.063698  0  3.883524  0  0  -0.061961  0  3.900382  0  0.080991  0  -0.051722  -0.064064  0  3.871708  0
C  C75  1  0.57319624  0.39136100  0.07839693  1  0  -0.040298  0  3.637261  0  0  -0.063619  0  3.883429  0  0  -0.061883  0  3.900289  0  0.080651  0  -0.051686  -0.063987  0  3.87161  0
C  C76  1  0.90121997  0.01274769  0.60532297  1  0  -0.077934  0  3.677065  0  0  -0.103025  0  3.927966  0  0  -0.104832  0  3.94469  0  -0.027563  0  -0.057436  -0.101963  0  3.916223  0
C  C77  1  0.40122468  0.48725370  0.89468333  1  0  -0.077823  0  3.67691  0  0  -0.102942  0  3.92775  0  0  -0.104748  0  3.944477  0  -0.028143  0  -0.057344  -0.101879  0  3.915985  0
C  C78  1  0.09877391  0.98725153  0.39468359  1  0  -0.077833  0  3.677055  0  0  -0.102927  0  3.927904  0  0  -0.104733  0  3.944629  0  -0.02816  0  -0.057338  -0.10185  0  3.916139  0
C  C79  1  0.59878133  0.51274819  0.10532109  1  0  -0.077908  0  3.677105  0  0  -0.103035  0  3.927968  0  0  -0.104841  0  3.944694  0  -0.027635  0  -0.057424  -0.101972  0  3.916222  0
C  C80  1  0.75689747  0.05254452  0.62900000  1  0  0.095578  0  3.770668  0  0  0.100981  0  4.015622  0  0  0.10171  0  4.033547  0  0.451621  0  0.122034  0.100659  0  4.003389  0
C  C81  1  0.25690108  0.44745598  0.87100389  1  0  0.095428  0  3.77082  0  0  0.100956  0  4.015612  0  0  0.101685  0  4.033536  0  0.451767  0  0.12206  0.100636  0  4.003375  0
C  C82  1  0.24309861  0.94745648  0.37100634  1  0  0.095411  0  3.770917  0  0  0.100851  0  4.015854  0  0  0.10158  0  4.033775  0  0.451971  0  0.122051  0.100531  0  4.003614  0
C  C83  1  0.74310383  0.55254413  0.12899931  1  0  0.095492  0  3.770811  0  0  0.100995  0  4.015626  0  0  0.101725  0  4.033555  0  0.451643  0  0.122011  0.100668  0  4.0034  0
C  C84  1  0.19148828  0.84352010  0.72308953  1  0  0.612857  0  3.915012  0  0  0.573409  0  4.223111  0  0  0.608291  0  4.214489  0  1.587747  0  0.223147  0.549442  0  4.228542  0
C  C85  1  0.69149129  0.65648140  0.77690627  1  0  0.612997  0  3.914665  0  0  0.573537  0  4.222743  0  0  0.608422  0  4.214121  0  1.587994  0  0.223208  0.549571  0  4.228174  0
C  C86  1  0.80850670  0.15648090  0.27690670  1  0  0.61287  0  3.914769  0  0  0.573427  0  4.222814  0  0  0.60831  0  4.214197  0  1.58802  0  0.223193  0.549455  0  4.228256  0
C  C87  1  0.30851362  0.34352049  0.22309022  1  0  0.612853  0  3.915039  0  0  0.573465  0  4.223075  0  0  0.60835  0  4.214455  0  1.587764  0  0.223194  0.549502  0  4.228499  0
C  C88  1  0.60151601  0.63220716  0.39771557  1  0  -0.340779  0  3.702418  0  0  -0.425045  0  3.938398  0  0  -0.42694  0  3.949221  0  -0.090833  0  -0.234828  -0.423445  0  3.930944  0
C  C89  1  0.10151411  0.86779256  0.10228478  1  0  -0.340726  0  3.702397  0  0  -0.42495  0  3.938411  0  0  -0.42685  0  3.949241  0  -0.091037  0  -0.234783  -0.423364  0  3.930958  0
C  C90  1  0.39848338  0.36779295  0.60228475  1  0  -0.340839  0  3.702401  0  0  -0.425138  0  3.938427  0  0  -0.427035  0  3.949254  0  -0.090796  0  -0.23486  -0.423544  0  3.930973  0
C  C91  1  0.89848970  0.13220755  0.89771409  1  0  -0.34082  0  3.702459  0  0  -0.425101  0  3.938449  0  0  -0.426998  0  3.949272  0  -0.0911  0  -0.234834  -0.423503  0  3.930991  0
C  C92  1  0.84448225  0.68416913  0.55861661  1  0  -0.362297  0  3.692212  0  0  -0.446029  0  3.920207  0  0  -0.449236  0  3.930452  0  -0.088352  0  -0.241885  -0.443144  0  3.91255  0
C  C93  1  0.34448255  0.81582881  0.94138037  1  0  -0.362318  0  3.692163  0  0  -0.446013  0  3.920169  0  0  -0.449221  0  3.93041  0  -0.088619  0  -0.241855  -0.443143  0  3.912495  0
C  C94  1  0.15551494  0.31582831  0.44138008  1  0  -0.362441  0  3.692112  0  0  -0.446093  0  3.920143  0  0  -0.449307  0  3.930375  0  -0.089101  0  -0.241888  -0.443225  0  3.91247  0
C  C95  1  0.65552236  0.18417219  0.05861371  1  0  -0.362415  0  3.692099  0  0  -0.446141  0  3.920074  0  0  -0.449351  0  3.930292  0  -0.089242  0  -0.241847  -0.443251  0  3.912417  0
C  C96  1  0.71666601  0.18081472  0.67073513  1  0  0.671054  0  3.849529  0  0  0.635127  0  4.142339  0  0  0.674697  0  4.128724  0  1.57026  0  0.25372  0.607912  0  4.150685  0
C  C97  1  0.21667735  0.31918311  0.82926946  1  0  0.671177  0  3.849285  0  0  0.635227  0  4.142082  0  0  0.674798  0  4.128466  0  1.570108  0  0.253767  0.60802  0  4.150417  0
C  C98  1  0.28332456  0.81918272  0.32927238  1  0  0.671257  0  3.849199  0  0  0.635299  0  4.142058  0  0  0.67487  0  4.128441  0  1.570251  0  0.253777  0.608091  0  4.150394  0
C  C99  1  0.78333418  0.68081611  0.17073711  1  0  0.670932  0  3.849521  0  0  0.634962  0  4.142373  0  0  0.674532  0  4.128759  0  1.570622  0  0.253617  0.607751  0  4.150712  0
N  N100  1  0.42193390  0.83877162  0.63659127  1  0  -0.40166  0  3.291438  0  0  -0.379659  0  3.575384  0  0  -0.400517  0  3.600056  0  -1.255095  0  -0.361547  -0.365615  0  3.559497  0
N  N101  1  0.92193690  0.66122720  0.86340595  1  0  -0.401659  0  3.29147  0  0  -0.379678  0  3.575418  0  0  -0.400533  0  3.600096  0  -1.255144  0  -0.361564  -0.365635  0  3.559532  0
N  N102  1  0.57805998  0.16122671  0.36340783  1  0  -0.401654  0  3.291577  0  0  -0.379745  0  3.575478  0  0  -0.400597  0  3.60015  0  -1.255212  0  -0.361583  -0.3657  0  3.559588  0
N  N103  1  0.07806911  0.33877201  0.13658979  1  0  -0.401747  0  3.291515  0  0  -0.379707  0  3.575563  0  0  -0.400568  0  3.60024  0  -1.255125  0  -0.361592  -0.365663  0  3.559677  0
N  N104  1  0.64290576  0.97735080  0.61928222  1  0  -0.407016  0  3.27406  0  0  -0.385397  0  3.554933  0  0  -0.405115  0  3.57903  0  -1.25039  0  -0.354523  -0.371889  0  3.538458  0
N  N105  1  0.14290938  0.52264892  0.88072102  1  0  -0.406923  0  3.274197  0  0  -0.385383  0  3.555002  0  0  -0.405101  0  3.579096  0  -1.250471  0  -0.354556  -0.371877  0  3.538526  0
N  N106  1  0.35708811  0.02264842  0.38072218  1  0  -0.406938  0  3.274195  0  0  -0.385383  0  3.555037  0  0  -0.405094  0  3.57913  0  -1.250549  0  -0.354581  -0.371877  0  3.538563  0
N  N107  1  0.85709663  0.47735208  0.11928243  1  0  -0.406903  0  3.274097  0  0  -0.385296  0  3.554945  0  0  -0.405025  0  3.579043  0  -1.25059  0  -0.354487  -0.371788  0  3.538469  0
O  O108  1  0.22417207  0.95679601  0.76382414  1  0  -0.66475  0  2.053674  0  0  -0.65884  0  2.342808  0  0  -0.697945  0  2.338633  0  -1.137169  0  -0.404744  -0.631026  0  2.3438  0
O  O109  1  0.72417728  0.54320371  0.73617405  1  0  -0.664799  0  2.053552  0  0  -0.658911  0  2.342726  0  0  -0.698002  0  2.338525  0  -1.13717  0  -0.404794  -0.631098  0  2.343718  0
O  O110  1  0.77581960  0.04320410  0.23617329  1  0  -0.664717  0  2.053518  0  0  -0.658839  0  2.342703  0  0  -0.697914  0  2.33849  0  -1.137176  0  -0.404774  -0.631017  0  2.343684  0
O  O111  1  0.27582763  0.45679729  0.26382507  1  0  -0.664769  0  2.053698  0  0  -0.658894  0  2.342831  0  0  -0.698009  0  2.338635  0  -1.137188  0  -0.404787  -0.631081  0  2.343817  0
O  O112  1  0.08478612  0.79374515  0.74692221  1  0  -0.519909  0  1.924663  0  0  -0.494071  0  2.146613  0  0  -0.517404  0  2.1422  0  -1.143183  0  -0.28368  -0.477748  0  2.148599  0
O  O113  1  0.58479022  0.70625723  0.75307167  1  0  -0.519932  0  1.924411  0  0  -0.494122  0  2.146409  0  0  -0.517462  0  2.142005  0  -1.143436  0  -0.283704  -0.4778  0  2.148395  0
O  O114  1  0.91520776  0.20625673  0.25307283  1  0  -0.519894  0  1.924456  0  0  -0.494084  0  2.146433  0  0  -0.517426  0  2.14203  0  -1.143393  0  -0.283694  -0.477761  0  2.148422  0
O  O115  1  0.41521468  0.29374555  0.24692145  1  0  -0.519916  0  1.92472  0  0  -0.494093  0  2.146652  0  0  -0.517425  0  2.142233  0  -1.1432  0  -0.283689  -0.477773  0  2.148639  0
O  O116  1  0.81072621  0.25815822  0.66530212  1  0  -0.644667  0  2.043558  0  0  -0.623789  0  2.309005  0  0  -0.656706  0  2.299401  0  -1.175681  0  -0.368874  -0.600244  0  2.314541  0
O  O117  1  0.31072541  0.24184050  0.83470128  1  0  -0.644637  0  2.043762  0  0  -0.623777  0  2.309243  0  0  -0.656691  0  2.299637  0  -1.175652  0  -0.368856  -0.600239  0  2.314779  0
O  O118  1  0.18927428  0.74184011  0.33470420  1  0  -0.644674  0  2.043754  0  0  -0.623803  0  2.309237  0  0  -0.656736  0  2.299629  0  -1.17589  0  -0.368882  -0.600264  0  2.314772  0
O  O119  1  0.68927508  0.75815961  0.16530120  1  0  -0.644636  0  2.043585  0  0  -0.623753  0  2.309036  0  0  -0.65666  0  2.299436  0  -1.175837  0  -0.36884  -0.600207  0  2.314569  0
O  O120  1  0.58852545  0.20543760  0.70924130  1  0  -0.62336  0  2.035463  0  0  -0.606125  0  2.2998  0  0  -0.639615  0  2.293645  0  -1.143643  0  -0.336645  -0.582414  0  2.302889  0
O  O121  1  0.08852576  0.29456201  0.79076090  1  0  -0.623478  0  2.035016  0  0  -0.606261  0  2.299377  0  0  -0.639761  0  2.293238  0  -1.143415  0  -0.336722  -0.582551  0  2.302463  0
O  O122  1  0.41147394  0.79456162  0.29076382  1  0  -0.623462  0  2.034964  0  0  -0.606249  0  2.299363  0  0  -0.639731  0  2.293203  0  -1.143293  0  -0.336716  -0.58254  0  2.302452  0
O  O123  1  0.91147364  0.70543988  0.20924569  1  0  -0.623258  0  2.035369  0  0  -0.60601  0  2.299698  0  0  -0.639522  0  2.293563  0  -1.143878  0  -0.336584  -0.582301  0  2.302784  0
O  O124  1  0.51854125  0.04580647  0.83351207  1  0  -0.697813  0  1.565743  0  0  -0.702286  0  1.849543  0  0  -0.725071  0  1.837383  0  -0.874382  0  -0.759625  -0.688827  0  1.858324  0
O  O125  1  0.01854927  0.45418958  0.66649058  1  0  -0.697802  0  1.565805  0  0  -0.702285  0  1.849626  0  0  -0.725069  0  1.837463  0  -0.874333  0  -0.759623  -0.688829  0  1.85841  0
O  O126  1  0.48144711  0.95418830  0.16649109  1  0  -0.697803  0  1.56577  0  0  -0.702257  0  1.849548  0  0  -0.725028  0  1.837392  0  -0.874346  0  -0.759618  -0.688801  0  1.858336  0
O  O127  1  0.98146225  0.54580608  0.33351572  1  0  -0.697782  0  1.565767  0  0  -0.702256  0  1.849544  0  0  -0.725055  0  1.837367  0  -0.874459  0  -0.759614  -0.6888  0  1.858323  0
O  O128  1  0.31229849  0.07680808  0.61951043  1  0  -0.699376  0  1.569151  0  0  -0.71162  0  1.865462  0  0  -0.735478  0  1.856814  0  -0.871693  0  -0.763976  -0.697265  0  1.87153  0
O  O129  1  0.81229487  0.42319064  0.88048720  1  0  -0.699446  0  1.569198  0  0  -0.711708  0  1.865543  0  0  -0.735571  0  1.8569  0  -0.871697  0  -0.764039  -0.697356  0  1.871615  0
O  O130  1  0.68770642  0.92319025  0.38048651  1  0  -0.699463  0  1.569137  0  0  -0.711726  0  1.865469  0  0  -0.735577  0  1.856839  0  -0.87166  0  -0.764022  -0.697373  0  1.871541  0
O  O131  1  0.18770342  0.57681391  0.11951725  1  0  -0.699398  0  1.569258  0  0  -0.711657  0  1.865556  0  0  -0.735524  0  1.856869  0  -0.871586  0  -0.763994  -0.697307  0  1.871623  0
