# generated using pymatgen
data_CuH4C10(NO)3
_symmetry_space_group_name_H-M   'P 1'
_cell_length_a   7.07121473
_cell_length_b   8.66932095
_cell_length_c   15.60652755
_cell_angle_alpha   90.00006831
_cell_angle_beta   95.69681885
_cell_angle_gamma   89.99989317
_symmetry_Int_Tables_number   1
_chemical_formula_structural   CuH4C10(NO)3
_chemical_formula_sum   'Cu4 H16 C40 N12 O12'
_cell_volume   951.99601752
_cell_formula_units_Z   4
loop_
 _symmetry_equiv_pos_site_id
 _symmetry_equiv_pos_as_xyz
  1  'x, y, z'
loop_
 _atom_site_type_symbol
 _atom_site_label
 _atom_site_symmetry_multiplicity
 _atom_site_fract_x
 _atom_site_fract_y
 _atom_site_fract_z
 _atom_site_occupancy
 _atom_site_hle17_bader_spin_density
 _atom_site_hle17_ddec_charge
 _atom_site_hle17_ddec_spin_density
 _atom_site_hle17_ddec_sum_bond_order
 _atom_site_hle17_magmom
 _atom_site_hse06_10hf_bader_charge
 _atom_site_hse06_10hf_bader_spin_density
 _atom_site_hse06_10hf_ddec_charge
 _atom_site_hse06_10hf_ddec_spin_density
 _atom_site_hse06_10hf_ddec_sum_bond_order
 _atom_site_hse06_10hf_magmom
 _atom_site_hse06_bader_spin_density
 _atom_site_hse06_ddec_charge
 _atom_site_hse06_ddec_spin_density
 _atom_site_hse06_ddec_sum_bond_order
 _atom_site_hse06_magmom
 _atom_site_pbe_bader_spin_density
 _atom_site_pbe_cm5_charge
 _atom_site_pbe_ddec_charge
 _atom_site_pbe_ddec_spin_density
 _atom_site_pbe_ddec_sum_bond_order
 _atom_site_pbe_magmom
Cu  Cu0  1  0.61551538  0.89005483  0.52438145  1  0  0.394062  0  2.32061  0  0.664881  0  0.320269  0  2.811882  0  0  0.310191  0  2.771027  0  0  0.486615  0.330869  0  2.836294  0
Cu  Cu1  1  0.88449390  0.39005693  0.47561990  1  0  0.394136  0  2.320357  0  0.664762  0  0.320282  0  2.811628  0  0  0.310105  0  2.770746  0  0  0.486652  0.330874  0  2.836071  0
Cu  Cu2  1  0.38448654  0.10994426  0.47561906  1  0  0.394107  0  2.320328  0  0.664812  0  0.320267  0  2.811592  0  0  0.310079  0  2.77071  0  0  0.486606  0.330857  0  2.836034  0
Cu  Cu3  1  0.11551085  0.60994793  0.52438009  1  0  0.394089  0  2.32049  0  0.66493  0  0.320279  0  2.811747  0  0  0.310174  0  2.770902  0  0  0.486654  0.330887  0  2.836148  0
H  H4  1  0.55863395  0.54622296  0.60530149  1  0  0.105308  0  0.920786  0  0.19636  0  0.117329  0  0.977749  0  0  0.11831  0  0.976223  0  0  0.143676  0.116251  0  0.979272  0
H  H5  1  0.94137036  0.04621786  0.39469944  1  0  0.105298  0  0.920739  0  0.196389  0  0.117335  0  0.977666  0  0  0.118308  0  0.976151  0  0  0.143656  0.116275  0  0.979168  0
H  H6  1  0.44137081  0.45378190  0.39469978  1  0  0.105305  0  0.920705  0  0.196379  0  0.117344  0  0.977635  0  0  0.118319  0  0.976119  0  0  0.143663  0.116284  0  0.979138  0
H  H7  1  0.05863298  0.95378007  0.60530178  1  0  0.10532  0  0.920793  0  0.196328  0  0.117357  0  0.977725  0  0  0.118332  0  0.97621  0  0  0.143673  0.116298  0  0.979227  0
H  H8  1  0.44547636  0.50140887  0.75382245  1  0  0.330943  0  0.914695  0  0.568686  0  0.312181  0  0.974082  0  0  0.320154  0  0.967761  0  0  0.32269  0.306571  0  0.978582  0
H  H9  1  0.05452125  0.00140404  0.24617665  1  0  0.331258  0  0.914299  0  0.568634  0  0.312281  0  0.973995  0  0  0.320302  0  0.967592  0  0  0.32276  0.306675  0  0.97849  0
H  H10  1  0.55452270  0.49859484  0.24617731  1  0  0.331164  0  0.914439  0  0.568649  0  0.31225  0  0.974032  0  0  0.320271  0  0.96763  0  0  0.322745  0.306644  0  0.978526  0
H  H11  1  0.94547639  0.99859275  0.75382304  1  0  0.330985  0  0.914686  0  0.568671  0  0.312219  0  0.974058  0  0  0.32019  0  0.967739  0  0  0.322725  0.306612  0  0.978554  0
H  H12  1  0.51315494  0.10635241  0.67687415  1  0  0.132065  0  0.933265  0  0.135583  0  0.138991  0  0.998855  0  0  0.143201  0  0.994684  0  0  0.116351  0.135716  0  1.002175  0
H  H13  1  0.98684358  0.60634697  0.32312785  1  0  0.132085  0  0.93327  0  0.1356  0  0.139023  0  0.998821  0  0  0.143236  0  0.994653  0  0  0.11638  0.135744  0  1.002138  0
H  H14  1  0.48684131  0.89365014  0.32312805  1  0  0.132074  0  0.933271  0  0.135571  0  0.139015  0  0.998838  0  0  0.143226  0  0.994667  0  0  0.116377  0.135737  0  1.002164  0
H  H15  1  0.01315264  0.39364982  0.67687114  1  0  0.132041  0  0.933264  0  0.135571  0  0.138979  0  0.998846  0  0  0.14319  0  0.994673  0  0  0.116358  0.1357  0  1.002172  0
H  H16  1  0.34189968  0.69886633  0.89391267  1  0  0.147032  0  0.918582  0  0.161109  0  0.151799  0  0.98129  0  0  0.156349  0  0.977599  0  0  0.121525  0.148529  0  0.984077  0
H  H17  1  0.15809893  0.19886217  0.10608595  1  0  0.147004  0  0.918602  0  0.161104  0  0.151799  0  0.981292  0  0  0.15635  0  0.977601  0  0  0.121531  0.148526  0  0.984078  0
H  H18  1  0.65809938  0.30113622  0.10608644  1  0  0.147026  0  0.918594  0  0.161071  0  0.151814  0  0.981279  0  0  0.156366  0  0.977587  0  0  0.121536  0.14854  0  0.98407  0
H  H19  1  0.84190580  0.80113346  0.89391276  1  0  0.146963  0  0.918608  0  0.161134  0  0.151714  0  0.981364  0  0  0.156263  0  0.977673  0  0  0.121519  0.148446  0  0.984147  0
C  C20  1  0.71516271  0.08971295  0.52943120  1  0  -0.151261  0  3.60394  0  0.668638  0  -0.157855  0  4.001811  0  0  -0.135284  0  3.984371  0  0  -0.082778  -0.174069  0  4.013069  0
C  C21  1  0.78485714  0.58973238  0.47056914  1  0  -0.151109  0  3.6043  0  0.668832  0  -0.15767  0  4.002102  0  0  -0.135084  0  3.984636  0  0  -0.082682  -0.173883  0  4.01337  0
C  C22  1  0.28485482  0.91026999  0.47056806  1  0  -0.151051  0  3.604207  0  0.668816  0  -0.157605  0  4.00201  0  0  -0.135019  0  3.98454  0  0  -0.082656  -0.17382  0  4.013281  0
C  C23  1  0.21515900  0.41028055  0.52943262  1  0  -0.151043  0  3.604036  0  0.668793  0  -0.157613  0  4.001856  0  0  -0.135043  0  3.984407  0  0  -0.082638  -0.173826  0  4.013111  0
C  C24  1  0.52555326  0.63701216  0.64934876  1  0  0.285084  0  3.605846  0  1.040198  0  0.223191  0  3.881438  0  0  0.240942  0  3.890259  0  0  0.175831  0.211291  0  3.875964  0
C  C25  1  0.97444800  0.13700460  0.35065018  1  0  0.285123  0  3.605787  0  1.040203  0  0.223209  0  3.881315  0  0  0.240958  0  3.890139  0  0  0.175862  0.211299  0  3.875843  0
C  C26  1  0.47444864  0.36299270  0.35065048  1  0  0.285174  0  3.605778  0  1.040232  0  0.223238  0  3.881335  0  0  0.240985  0  3.890161  0  0  0.175877  0.211325  0  3.875862  0
C  C27  1  0.02555390  0.86299103  0.64934842  1  0  0.28515  0  3.605904  0  1.040262  0  0.223219  0  3.881485  0  0  0.240967  0  3.890314  0  0  0.175845  0.211307  0  3.876005  0
C  C28  1  0.48631588  0.86145313  0.70600247  1  0  0.138236  0  3.792631  0  0.384402  0  0.136245  0  4.042353  0  0  0.138831  0  4.065195  0  0  0.09784  0.134497  0  4.027318  0
C  C29  1  0.01368240  0.36144501  0.29399688  1  0  0.1382  0  3.793023  0  0.385014  0  0.136231  0  4.042601  0  0  0.138815  0  4.065427  0  0  0.097806  0.134486  0  4.027565  0
C  C30  1  0.51368034  0.13855288  0.29399716  1  0  0.138369  0  3.792892  0  0.385045  0  0.136431  0  4.042437  0  0  0.139021  0  4.065253  0  0  0.097884  0.134683  0  4.027399  0
C  C31  1  0.98631523  0.63855293  0.70600153  1  0  0.138141  0  3.792944  0  0.385044  0  0.136194  0  4.042589  0  0  0.138774  0  4.065435  0  0  0.097798  0.134445  0  4.027554  0
C  C32  1  0.43794707  0.74809834  0.76706225  1  0  0.159133  0  3.754406  0  0.310546  0  0.148055  0  4.005875  0  0  0.152452  0  4.029008  0  0  0.10659  0.14512  0  3.990078  0
C  C33  1  0.06205288  0.24809231  0.23293775  1  0  0.159098  0  3.754595  0  0.310264  0  0.148078  0  4.005928  0  0  0.152472  0  4.029072  0  0  0.106598  0.145149  0  3.990126  0
C  C34  1  0.56205200  0.25190883  0.23293815  1  0  0.159088  0  3.754553  0  0.310368  0  0.14806  0  4.005859  0  0  0.152455  0  4.029005  0  0  0.106612  0.145137  0  3.990053  0
C  C35  1  0.93794476  0.75190447  0.76706130  1  0  0.159184  0  3.754494  0  0.310353  0  0.148068  0  4.005961  0  0  0.152465  0  4.029095  0  0  0.106576  0.145141  0  3.990162  0
C  C36  1  0.47711659  0.01955446  0.72312530  1  0  -0.089135  0  3.656156  0  0.109773  0  -0.121703  0  3.91049  0  0  -0.120469  0  3.925947  0  0  -0.06393  -0.122863  0  3.900699  0
C  C37  1  0.02288102  0.51954618  0.27687701  1  0  -0.089181  0  3.656214  0  0.109466  0  -0.121797  0  3.910578  0  0  -0.120567  0  3.92603  0  0  -0.064015  -0.12295  0  3.900781  0
C  C38  1  0.52287681  0.98045155  0.27687613  1  0  -0.089219  0  3.656221  0  0.109434  0  -0.121844  0  3.910569  0  0  -0.120616  0  3.926023  0  0  -0.064027  -0.123004  0  3.900776  0
C  C39  1  0.97711804  0.48045176  0.72312210  1  0  -0.089125  0  3.656177  0  0.10946  0  -0.121722  0  3.910528  0  0  -0.120489  0  3.925981  0  0  -0.063977  -0.12288  0  3.900735  0
C  C40  1  0.37772159  0.78537245  0.84735110  1  0  -0.094955  0  3.626574  0  0.101041  0  -0.126058  0  3.884221  0  0  -0.126157  0  3.900248  0  0  -0.061005  -0.126013  0  3.873366  0
C  C41  1  0.12227403  0.28536730  0.15265001  1  0  -0.094903  0  3.626626  0  0.101037  0  -0.126068  0  3.884291  0  0  -0.12617  0  3.900322  0  0  -0.061011  -0.126024  0  3.873434  0
C  C42  1  0.62227322  0.21463126  0.15264976  1  0  -0.094918  0  3.626656  0  0.101131  0  -0.12607  0  3.884292  0  0  -0.126173  0  3.900325  0  0  -0.061014  -0.126024  0  3.87342  0
C  C43  1  0.87772362  0.71462834  0.84734968  1  0  -0.094859  0  3.626586  0  0.101015  0  -0.125951  0  3.884269  0  0  -0.126049  0  3.900298  0  0  -0.060995  -0.125913  0  3.873413  0
C  C44  1  0.41751612  0.05539708  0.80275527  1  0  -0.112143  0  3.853912  0  -0.017207  0  -0.106679  0  4.101921  0  0  -0.115168  0  4.127288  0  0  -0.025276  -0.100917  0  4.084884  0
C  C45  1  0.08247857  0.55539199  0.19724630  1  0  -0.112143  0  3.853949  0  -0.017298  0  -0.106712  0  4.102005  0  0  -0.115195  0  4.127362  0  0  -0.025295  -0.10095  0  4.084958  0
C  C46  1  0.58247585  0.94460662  0.19724546  1  0  -0.112126  0  3.853879  0  -0.017266  0  -0.106677  0  4.101944  0  0  -0.115162  0  4.127305  0  0  -0.025273  -0.100912  0  4.0849  0
C  C47  1  0.91751907  0.44460249  0.80275275  1  0  -0.112102  0  3.853725  0  -0.017295  0  -0.106655  0  4.101769  0  0  -0.115133  0  4.127123  0  0  -0.025279  -0.100891  0  4.084727  0
C  C48  1  0.36851344  0.94317722  0.86257014  1  0  -0.09073  0  3.832988  0  0.010307  0  -0.086304  0  4.084349  0  0  -0.093024  0  4.109221  0  0  -0.020302  -0.08161  0  4.067407  0
C  C49  1  0.13148328  0.44317202  0.13743175  1  0  -0.090608  0  3.832991  0  0.010318  0  -0.08621  0  4.084346  0  0  -0.092932  0  4.109217  0  0  -0.020293  -0.081521  0  4.067405  0
C  C50  1  0.63147996  0.05682533  0.13743065  1  0  -0.090723  0  3.833134  0  0.010308  0  -0.086323  0  4.084494  0  0  -0.093045  0  4.109368  0  0  -0.020311  -0.081623  0  4.067546  0
C  C51  1  0.86851864  0.55682477  0.86256876  1  0  -0.090704  0  3.833042  0  0.010387  0  -0.086276  0  4.084423  0  0  -0.093001  0  4.109291  0  0  -0.020322  -0.081578  0  4.067481  0
C  C52  1  0.39570941  0.20730754  0.84174923  1  0  0.624372  0  3.771239  0  1.459912  0  0.572535  0  4.073123  0  0  0.605617  0  4.064643  0  0  0.247262  0.549855  0  4.078744  0
C  C53  1  0.10428354  0.70730348  0.15825236  1  0  0.62423  0  3.771548  0  1.460044  0  0.572378  0  4.073404  0  0  0.605465  0  4.064924  0  0  0.247182  0.549712  0  4.078996  0
C  C54  1  0.60428398  0.79269501  0.15825092  1  0  0.624487  0  3.771099  0  1.460045  0  0.572615  0  4.073009  0  0  0.605694  0  4.064526  0  0  0.247316  0.549937  0  4.078622  0
C  C55  1  0.89571127  0.29269100  0.84174721  1  0  0.624258  0  3.771419  0  1.460067  0  0.57238  0  4.073331  0  0  0.605466  0  4.064849  0  0  0.247205  0.549708  0  4.078933  0
C  C56  1  0.31250863  0.02650002  0.93819698  1  0  0.587922  0  3.758759  0  1.456473  0  0.538346  0  4.063797  0  0  0.569457  0  4.057675  0  0  0.240158  0.516944  0  4.067882  0
C  C57  1  0.18748751  0.52649560  0.06180207  1  0  0.587654  0  3.759604  0  1.456473  0  0.538162  0  4.064489  0  0  0.56928  0  4.058372  0  0  0.240111  0.516763  0  4.068571  0
C  C58  1  0.68748758  0.97350484  0.06180137  1  0  0.587814  0  3.759409  0  1.4563  0  0.538309  0  4.064325  0  0  0.569418  0  4.058204  0  0  0.240144  0.516904  0  4.068411  0
C  C59  1  0.81251579  0.47349888  0.93819530  1  0  0.587781  0  3.759076  0  1.456478  0  0.538141  0  4.064171  0  0  0.569261  0  4.058049  0  0  0.240068  0.516731  0  4.068257  0
N  N60  1  0.70203634  0.70850876  0.46837526  1  0  -0.370105  0  3.229134  0  -1.396257  0  -0.315984  0  3.555119  0  0  -0.329491  0  3.556298  0  0  -0.439695  -0.30704  0  3.553564  0
N  N61  1  0.79798753  0.20851227  0.53162661  1  0  -0.370041  0  3.228546  0  -1.396099  0  -0.315902  0  3.554546  0  0  -0.329382  0  3.555691  0  0  -0.439624  -0.306961  0  3.553006  0
N  N62  1  0.29797413  0.29149033  0.53162818  1  0  -0.370191  0  3.228841  0  -1.396232  0  -0.31606  0  3.554834  0  0  -0.32954  0  3.555975  0  0  -0.439728  -0.307119  0  3.553293  0
N  N63  1  0.20203709  0.79148913  0.46837168  1  0  -0.370174  0  3.229068  0  -1.396258  0  -0.316073  0  3.555082  0  0  -0.329574  0  3.556249  0  0  -0.43975  -0.30713  0  3.553527  0
N  N64  1  0.54063561  0.78718998  0.63405621  1  0  -0.364172  0  3.256386  0  -1.201138  0  -0.306729  0  3.556706  0  0  -0.321323  0  3.564893  0  0  -0.365126  -0.298005  0  3.551755  0
N  N65  1  0.95936677  0.28718363  0.36594350  1  0  -0.364316  0  3.256661  0  -1.201241  0  -0.306746  0  3.556798  0  0  -0.3213  0  3.564917  0  0  -0.365115  -0.298026  0  3.551865  0
N  N66  1  0.45936487  0.21281373  0.36594232  1  0  -0.364432  0  3.256778  0  -1.201299  0  -0.306895  0  3.556952  0  0  -0.32145  0  3.56507  0  0  -0.365189  -0.298173  0  3.552016  0
N  N67  1  0.04063655  0.71281315  0.63405515  1  0  -0.364213  0  3.256505  0  -1.201371  0  -0.306711  0  3.556724  0  0  -0.32129  0  3.564894  0  0  -0.365099  -0.297985  0  3.551773  0
N  N68  1  0.46525670  0.60857754  0.72791922  1  0  -0.345905  0  3.389815  0  -1.33544  0  -0.283985  0  3.625255  0  0  -0.303767  0  3.639708  0  0  -0.370429  -0.270429  0  3.615162  0
N  N69  1  0.03474353  0.10857165  0.27208006  1  0  -0.346101  0  3.389514  0  -1.335378  0  -0.284096  0  3.625125  0  0  -0.303912  0  3.639519  0  0  -0.370517  -0.270547  0  3.615046  0
N  N70  1  0.53474378  0.39142732  0.27208060  1  0  -0.346097  0  3.389728  0  -1.335448  0  -0.284096  0  3.625253  0  0  -0.303915  0  3.639653  0  0  -0.370519  -0.27055  0  3.615169  0
N  N71  1  0.96525552  0.89142399  0.72791841  1  0  -0.346029  0  3.389912  0  -1.335367  0  -0.284086  0  3.625355  0  0  -0.303865  0  3.639808  0  0  -0.370452  -0.270535  0  3.615268  0
O  O72  1  0.33281424  0.18702928  0.92211546  1  0  -0.356735  0  2.169733  0  -1.028525  0  -0.296863  0  2.399574  0  0  -0.317813  0  2.392424  0  0  -0.135648  -0.282234  0  2.404011  0
O  O73  1  0.16718730  0.68702955  0.07788777  1  0  -0.356532  0  2.169853  0  -1.028317  0  -0.29664  0  2.399613  0  0  -0.317608  0  2.392477  0  0  -0.135507  -0.282018  0  2.404041  0
O  O74  1  0.66718342  0.81296866  0.07788552  1  0  -0.356644  0  2.169702  0  -1.028325  0  -0.296772  0  2.39952  0  0  -0.317709  0  2.39236  0  0  -0.135573  -0.282144  0  2.403951  0
O  O75  1  0.83281320  0.31296955  0.92211269  1  0  -0.356657  0  2.169895  0  -1.02837  0  -0.296679  0  2.399672  0  0  -0.317648  0  2.392533  0  0  -0.135546  -0.282049  0  2.404099  0
O  O76  1  0.42479637  0.33616995  0.81460247  1  0  -0.497193  0  1.987798  0  -1.171644  0  -0.45529  0  2.201608  0  0  -0.474648  0  2.193656  0  0  -0.25808  -0.442259  0  2.207035  0
O  O77  1  0.07519062  0.83616137  0.18539831  1  0  -0.497172  0  1.987941  0  -1.171597  0  -0.455187  0  2.201757  0  0  -0.474562  0  2.193799  0  0  -0.258031  -0.442161  0  2.20717  0
O  O78  1  0.57519561  0.66383376  0.18539826  1  0  -0.497298  0  1.987764  0  -1.171638  0  -0.455333  0  2.201608  0  0  -0.474712  0  2.193653  0  0  -0.258111  -0.442305  0  2.207031  0
O  O79  1  0.92479990  0.16383426  0.81459916  1  0  -0.497088  0  1.98796  0  -1.171696  0  -0.455189  0  2.20179  0  0  -0.474546  0  2.193835  0  0  -0.25804  -0.442161  0  2.207209  0
O  O80  1  0.25893783  0.98433411  0.00544105  1  0  -0.431945  0  1.95553  0  -1.117859  0  -0.401653  0  2.168146  0  0  -0.418494  0  2.161263  0  0  -0.23636  -0.390368  0  2.172859  0
O  O81  1  0.24105314  0.48433184  0.99456319  1  0  -0.431863  0  1.956152  0  -1.118089  0  -0.401605  0  2.168711  0  0  -0.418449  0  2.161833  0  0  -0.236368  -0.390322  0  2.173424  0
O  O82  1  0.74105560  0.01566845  0.99456295  1  0  -0.431904  0  1.956005  0  -1.11795  0  -0.401648  0  2.168594  0  0  -0.418493  0  2.161713  0  0  -0.236367  -0.390368  0  2.173309  0
O  O83  1  0.75895166  0.51566494  0.00544193  1  0  -0.431916  0  1.955597  0  -1.118092  0  -0.401594  0  2.168208  0  0  -0.418435  0  2.161324  0  0  -0.236302  -0.390307  0  2.17292  0
