# generated using pymatgen
data_CdH8C8(SN3)2
_symmetry_space_group_name_H-M   'P 1'
_cell_length_a   5.60494099
_cell_length_b   7.76546178
_cell_length_c   14.17377345
_cell_angle_alpha   103.45562240
_cell_angle_beta   90.00036382
_cell_angle_gamma   89.99997474
_symmetry_Int_Tables_number   1
_chemical_formula_structural   CdH8C8(SN3)2
_chemical_formula_sum   'Cd2 H16 C16 S4 N12'
_cell_volume   599.97886545
_cell_formula_units_Z   2
loop_
 _symmetry_equiv_pos_site_id
 _symmetry_equiv_pos_as_xyz
  1  'x, y, z'
loop_
 _atom_site_type_symbol
 _atom_site_label
 _atom_site_symmetry_multiplicity
 _atom_site_fract_x
 _atom_site_fract_y
 _atom_site_fract_z
 _atom_site_occupancy
 _atom_site_hle17_bader_spin_density
 _atom_site_hle17_ddec_charge
 _atom_site_hle17_ddec_spin_density
 _atom_site_hle17_ddec_sum_bond_order
 _atom_site_hle17_magmom
 _atom_site_hse06_10hf_bader_spin_density
 _atom_site_hse06_10hf_ddec_charge
 _atom_site_hse06_10hf_ddec_spin_density
 _atom_site_hse06_10hf_ddec_sum_bond_order
 _atom_site_hse06_10hf_magmom
 _atom_site_hse06_bader_spin_density
 _atom_site_hse06_ddec_charge
 _atom_site_hse06_ddec_spin_density
 _atom_site_hse06_ddec_sum_bond_order
 _atom_site_hse06_magmom
 _atom_site_pbe_bader_spin_density
 _atom_site_pbe_cm5_charge
 _atom_site_pbe_ddec_charge
 _atom_site_pbe_ddec_spin_density
 _atom_site_pbe_ddec_sum_bond_order
 _atom_site_pbe_magmom
Cd  Cd0  1  0.99999579  0.99999843  0.99999687  1  0  0.970717  0  1.971305  0  0  0.794076  0  2.427761  0  0  0.837503  0  2.39311  0  0  0.736485  0.764086  0  2.450749  0
Cd  Cd1  1  0.49999700  0.49999662  0.50000129  1  0  0.970679  0  1.971459  0  0  0.794042  0  2.427942  0  0  0.837472  0  2.393286  0  0  0.736485  0.764055  0  2.450926  0
H  H2  1  0.20857050  0.36965953  0.93994838  1  0  0.097706  0  0.943715  0  0  0.106974  0  1.00616  0  0  0.108934  0  1.004293  0  0  0.132985  0.105473  0  1.007577  0
H  H3  1  0.29142684  0.86964719  0.43994584  1  0  0.097708  0  0.943788  0  0  0.106983  0  1.006221  0  0  0.108942  0  1.004354  0  0  0.132973  0.105481  0  1.007639  0
H  H4  1  0.79143064  0.63034964  0.06005827  1  0  0.097688  0  0.943756  0  0  0.106954  0  1.006209  0  0  0.108917  0  1.004338  0  0  0.132955  0.105452  0  1.007629  0
H  H5  1  0.70858144  0.13034345  0.56005924  1  0  0.097698  0  0.943709  0  0  0.106959  0  1.006174  0  0  0.10892  0  1.004305  0  0  0.132953  0.105452  0  1.007589  0
H  H6  1  0.58054449  0.42547179  0.78301342  1  0  0.11073  0  0.967332  0  0  0.116906  0  1.034417  0  0  0.119377  0  1.033931  0  0  0.114263  0.115106  0  1.034884  0
H  H7  1  0.91945348  0.92546493  0.28301750  1  0  0.110712  0  0.967511  0  0  0.116854  0  1.034623  0  0  0.119323  0  1.034141  0  0  0.114255  0.115054  0  1.035089  0
H  H8  1  0.41946735  0.57452924  0.21698094  1  0  0.110789  0  0.967293  0  0  0.116892  0  1.034434  0  0  0.119364  0  1.03395  0  0  0.114271  0.115093  0  1.0349  0
H  H9  1  0.08054945  0.07452706  0.71698916  1  0  0.110718  0  0.967341  0  0  0.116936  0  1.034372  0  0  0.119409  0  1.033885  0  0  0.114252  0.115135  0  1.034841  0
H  H10  1  0.54617018  0.12267523  0.85603309  1  0  0.099008  0  0.9841  0  0  0.104445  0  1.054117  0  0  0.106238  0  1.05406  0  0  0.106398  0.103121  0  1.054298  0
H  H11  1  0.95383279  0.62266975  0.35603953  1  0  0.099028  0  0.984073  0  0  0.104444  0  1.054131  0  0  0.106238  0  1.054073  0  0  0.106388  0.103117  0  1.054316  0
H  H12  1  0.45384167  0.87732703  0.14395578  1  0  0.098992  0  0.983927  0  0  0.104375  0  1.054088  0  0  0.106162  0  1.054035  0  0  0.10633  0.103049  0  1.054275  0
H  H13  1  0.04617728  0.37732746  0.64396354  1  0  0.098964  0  0.984027  0  0  0.104391  0  1.054081  0  0  0.106183  0  1.054023  0  0  0.106356  0.103067  0  1.054262  0
H  H14  1  0.98904705  0.55749625  0.84240896  1  0  0.278531  0  0.934252  0  0  0.257004  0  1.00783  0  0  0.26394  0  1.003483  0  0  0.296325  0.252114  0  1.010989  0
H  H15  1  0.51094858  0.05748381  0.34240928  1  0  0.27863  0  0.934207  0  0  0.257022  0  1.007828  0  0  0.263947  0  1.003501  0  0  0.296326  0.252133  0  1.010986  0
H  H16  1  0.01095053  0.44251017  0.15759171  1  0  0.278642  0  0.934153  0  0  0.257067  0  1.007764  0  0  0.264001  0  1.003425  0  0  0.296314  0.252172  0  1.010922  0
H  H17  1  0.48906148  0.94250550  0.65759494  1  0  0.278593  0  0.934158  0  0  0.257049  0  1.007747  0  0  0.263986  0  1.003401  0  0  0.296294  0.252137  0  1.010913  0
C  C18  1  0.03351932  0.34159228  0.90750801  1  0  0.203137  0  3.688189  0  0  0.143927  0  3.95822  0  0  0.158255  0  3.971041  0  0  0.134614  0.134748  0  3.949116  0
C  C19  1  0.46647747  0.84157878  0.40750855  1  0  0.20323  0  3.688287  0  0  0.143998  0  3.958284  0  0  0.15832  0  3.971107  0  0  0.134615  0.13482  0  3.949179  0
C  C20  1  0.96648360  0.65841410  0.09248984  1  0  0.203299  0  3.688053  0  0  0.144083  0  3.958052  0  0  0.158407  0  3.970871  0  0  0.134666  0.134898  0  3.948946  0
C  C21  1  0.53353259  0.15841447  0.59249403  1  0  0.203286  0  3.687923  0  0  0.144086  0  3.957923  0  0  0.158409  0  3.970749  0  0  0.134642  0.134887  0  3.948799  0
C  C22  1  0.70297436  0.36774615  0.82617737  1  0  -0.011581  0  3.679528  0  0  -0.046651  0  3.93754  0  0  -0.045168  0  3.956912  0  0  -0.003074  -0.047573  0  3.92455  0
C  C23  1  0.79701726  0.86773649  0.32617659  1  0  -0.011535  0  3.679787  0  0  -0.046579  0  3.937781  0  0  -0.045106  0  3.957159  0  0  -0.003039  -0.047499  0  3.924784  0
C  C24  1  0.29702143  0.63226552  0.17382112  1  0  -0.011746  0  3.679867  0  0  -0.046753  0  3.937909  0  0  -0.045277  0  3.957286  0  0  -0.003104  -0.047679  0  3.92491  0
C  C25  1  0.20298746  0.13225540  0.67382441  1  0  -0.011586  0  3.679704  0  0  -0.046681  0  3.937704  0  0  -0.045201  0  3.957078  0  0  -0.003086  -0.047631  0  3.9247  0
C  C26  1  0.68901025  0.21870896  0.86271945  1  0  -0.011054  0  3.742597  0  0  -0.042805  0  4.006487  0  0  -0.041349  0  4.028074  0  0  -0.013832  -0.043782  0  3.991918  0
C  C27  1  0.81098564  0.71869928  0.36271658  1  0  -0.01101  0  3.742583  0  0  -0.042741  0  4.00645  0  0  -0.041285  0  4.028038  0  0  -0.01386  -0.043717  0  3.991882  0
C  C28  1  0.31099089  0.78129084  0.13728040  1  0  -0.010823  0  3.74256  0  0  -0.042551  0  4.006392  0  0  -0.041094  0  4.027978  0  0  -0.013743  -0.043529  0  3.991828  0
C  C29  1  0.18901728  0.28129126  0.63728214  1  0  -0.010957  0  3.742626  0  0  -0.042701  0  4.006523  0  0  -0.041245  0  4.028112  0  0  -0.013814  -0.043682  0  3.991962  0
C  C30  1  0.49312609  0.81178906  0.89750792  1  0  0.300312  0  3.996362  0  0  0.281834  0  4.298079  0  0  0.303255  0  4.311015  0  0  0.141295  0.267318  0  4.289019  0
C  C31  1  0.00685983  0.31178202  0.39751524  1  0  0.300241  0  3.996313  0  0  0.281773  0  4.29802  0  0  0.303196  0  4.310965  0  0  0.141215  0.267257  0  4.288956  0
C  C32  1  0.50686791  0.18821069  0.10248911  1  0  0.300229  0  3.99656  0  0  0.281759  0  4.298266  0  0  0.303182  0  4.311208  0  0  0.141237  0.267242  0  4.289207  0
C  C33  1  0.99313060  0.68821919  0.60248973  1  0  0.300226  0  3.996309  0  0  0.281752  0  4.298019  0  0  0.303175  0  4.310963  0  0  0.14122  0.267236  0  4.288955  0
S  S34  1  0.24809709  0.80236620  0.83404914  1  0  -0.342495  0  2.152963  0  0  -0.312171  0  2.48675  0  0  -0.32722  0  2.47928  0  0  -0.141059  -0.301683  0  2.49169  0
S  S35  1  0.25187881  0.30236461  0.33405770  1  0  -0.342436  0  2.152998  0  0  -0.312089  0  2.486747  0  0  -0.327135  0  2.479276  0  0  -0.14103  -0.301604  0  2.491684  0
S  S36  1  0.75189691  0.19763618  0.16594680  1  0  -0.342481  0  2.152899  0  0  -0.312174  0  2.48672  0  0  -0.327193  0  2.4792  0  0  -0.141066  -0.301685  0  2.49166  0
S  S37  1  0.74810271  0.69762995  0.66594434  1  0  -0.34245  0  2.152886  0  0  -0.31213  0  2.486703  0  0  -0.327163  0  2.479205  0  0  -0.141068  -0.301645  0  2.491643  0
N  N38  1  0.89601912  0.20424548  0.91349801  1  0  -0.39641  0  3.280539  0  0  -0.315167  0  3.553227  0  0  -0.337536  0  3.574079  0  0  -0.363307  -0.299909  0  3.538486  0
N  N39  1  0.60398659  0.70423305  0.41349644  1  0  -0.396527  0  3.280562  0  0  -0.315292  0  3.553307  0  0  -0.337657  0  3.574143  0  0  -0.363338  -0.300034  0  3.538566  0
N  N40  1  0.10399094  0.79576224  0.08650141  1  0  -0.396567  0  3.280437  0  0  -0.315288  0  3.553083  0  0  -0.337659  0  3.573938  0  0  -0.363341  -0.300031  0  3.538349  0
N  N41  1  0.39601634  0.29576413  0.58650451  1  0  -0.39643  0  3.280451  0  0  -0.315204  0  3.553168  0  0  -0.337569  0  3.574008  0  0  -0.363283  -0.299947  0  3.538434  0
N  N42  1  0.92159420  0.44246167  0.85530393  1  0  -0.278987  0  3.532612  0  0  -0.20921  0  3.761631  0  0  -0.225693  0  3.778718  0  0  -0.38022  -0.198239  0  3.749937  0
N  N43  1  0.57840859  0.94244664  0.35530622  1  0  -0.27914  0  3.532768  0  0  -0.209259  0  3.761845  0  0  -0.22572  0  3.778919  0  0  -0.380161  -0.19829  0  3.750149  0
N  N44  1  0.07841943  0.55754733  0.14469282  1  0  -0.279187  0  3.532628  0  0  -0.209351  0  3.761664  0  0  -0.22583  0  3.778751  0  0  -0.380187  -0.198359  0  3.749946  0
N  N45  1  0.42159969  0.05754393  0.64469462  1  0  -0.279183  0  3.532845  0  0  -0.209382  0  3.761866  0  0  -0.225866  0  3.77895  0  0  -0.380145  -0.198325  0  3.750099  0
N  N46  1  0.67154050  0.82043931  0.94305650  1  0  -0.53426  0  2.866576  0  0  -0.482131  0  3.143222  0  0  -0.501799  0  3.150686  0  0  -0.39263  -0.468747  0  3.137935  0
N  N47  1  0.82843355  0.32042983  0.44306497  1  0  -0.53424  0  2.866492  0  0  -0.48212  0  3.143147  0  0  -0.501795  0  3.150616  0  0  -0.392596  -0.468735  0  3.137856  0
N  N48  1  0.32845172  0.17956702  0.05693852  1  0  -0.534197  0  2.866748  0  0  -0.482069  0  3.143377  0  0  -0.501742  0  3.150845  0  0  -0.392574  -0.468684  0  3.13809  0
N  N49  1  0.17154618  0.67956073  0.55693517  1  0  -0.53421  0  2.866644  0  0  -0.482082  0  3.143285  0  0  -0.501755  0  3.150754  0  0  -0.392555  -0.468696  0  3.137994  0
