# generated using pymatgen
data_AgH16C16S(NO)3
_symmetry_space_group_name_H-M   'P 1'
_cell_length_a   9.51494139
_cell_length_b   9.51489222
_cell_length_c   10.47062564
_cell_angle_alpha   90.95106451
_cell_angle_beta   90.95122692
_cell_angle_gamma   116.81334768
_symmetry_Int_Tables_number   1
_chemical_formula_structural   AgH16C16S(NO)3
_chemical_formula_sum   'Ag2 H32 C32 S2 N6 O6'
_cell_volume   845.59685443
_cell_formula_units_Z   2
loop_
 _symmetry_equiv_pos_site_id
 _symmetry_equiv_pos_as_xyz
  1  'x, y, z'
loop_
 _atom_site_type_symbol
 _atom_site_label
 _atom_site_symmetry_multiplicity
 _atom_site_fract_x
 _atom_site_fract_y
 _atom_site_fract_z
 _atom_site_occupancy
 _atom_site_hle17_bader_spin_density
 _atom_site_hle17_ddec_charge
 _atom_site_hle17_ddec_spin_density
 _atom_site_hle17_ddec_sum_bond_order
 _atom_site_hle17_magmom
 _atom_site_hse06_10hf_bader_spin_density
 _atom_site_hse06_10hf_ddec_charge
 _atom_site_hse06_10hf_ddec_spin_density
 _atom_site_hse06_10hf_ddec_sum_bond_order
 _atom_site_hse06_10hf_magmom
 _atom_site_hse06_bader_spin_density
 _atom_site_hse06_ddec_charge
 _atom_site_hse06_ddec_spin_density
 _atom_site_hse06_ddec_sum_bond_order
 _atom_site_hse06_magmom
 _atom_site_pbe_bader_spin_density
 _atom_site_pbe_cm5_charge
 _atom_site_pbe_ddec_charge
 _atom_site_pbe_ddec_spin_density
 _atom_site_pbe_ddec_sum_bond_order
 _atom_site_pbe_magmom
Ag  Ag0  1  0.33117867  0.83135481  0.99748268  1  0  0.522703  0  1.375164  0  0  0.378404  0  1.797752  0  0  0.403797  0  1.757585  0  0  0.490478  0.362418  0  1.822052  0
Ag  Ag1  1  0.83135957  0.33117627  0.49748217  1  0  0.522776  0  1.375094  0  0  0.378443  0  1.797742  0  0  0.403837  0  1.757563  0  0  0.490502  0.362461  0  1.82204  0
H  H2  1  0.03187598  0.30723301  0.72208912  1  0  0.090422  0  0.928719  0  0  0.105224  0  0.981412  0  0  0.107443  0  0.980012  0  0  0.124219  0.103652  0  0.982004  0
H  H3  1  0.30723519  0.03186546  0.22209391  1  0  0.090452  0  0.9286  0  0  0.105189  0  0.981378  0  0  0.107405  0  0.979981  0  0  0.124226  0.103617  0  0.98197  0
H  H4  1  0.69889968  0.26050430  0.97209554  1  0  0.100391  0  0.987993  0  0  0.11092  0  1.048176  0  0  0.113364  0  1.047655  0  0  0.098723  0.109015  0  1.048857  0
H  H5  1  0.26049604  0.69889933  0.47209463  1  0  0.100423  0  0.988095  0  0  0.110937  0  1.048278  0  0  0.113382  0  1.047756  0  0  0.098739  0.109032  0  1.048959  0
H  H6  1  0.08217210  0.84953454  0.14091402  1  0  0.29716  0  0.897684  0  0  0.296223  0  0.938279  0  0  0.300819  0  0.935752  0  0  0.304852  0.29313  0  0.939747  0
H  H7  1  0.84952664  0.08217039  0.64091894  1  0  0.29718  0  0.897613  0  0  0.296247  0  0.938204  0  0  0.300842  0  0.935675  0  0  0.304826  0.293154  0  0.939673  0
H  H8  1  0.08818504  0.68323432  0.19512857  1  0  0.329419  0  0.931534  0  0  0.314845  0  0.991973  0  0  0.321743  0  0.986612  0  0  0.289464  0.309948  0  0.995755  0
H  H9  1  0.68322691  0.08818731  0.69513428  1  0  0.329375  0  0.931664  0  0  0.314823  0  0.992053  0  0  0.32172  0  0.986694  0  0  0.289489  0.309924  0  0.995834  0
H  H10  1  0.93069930  0.43034099  0.10729202  1  0  0.113785  0  0.97654  0  0  0.121545  0  1.040188  0  0  0.124671  0  1.039297  0  0  0.102908  0.119234  0  1.040882  0
H  H11  1  0.43033148  0.93069143  0.60729902  1  0  0.113753  0  0.976609  0  0  0.121575  0  1.040138  0  0  0.124701  0  1.039247  0  0  0.1029  0.119265  0  1.04083  0
H  H12  1  0.18184732  0.86538019  0.74912113  1  0  0.104185  0  0.988795  0  0  0.110435  0  1.053956  0  0  0.11372  0  1.051009  0  0  0.118829  0.108063  0  1.055926  0
H  H13  1  0.86538113  0.18183332  0.24912352  1  0  0.104029  0  0.988858  0  0  0.110365  0  1.053937  0  0  0.113647  0  1.050992  0  0  0.118819  0.107995  0  1.055902  0
H  H14  1  0.95369621  0.65448714  0.46353862  1  0  0.12692  0  0.967914  0  0  0.141281  0  1.043649  0  0  0.14407  0  1.040444  0  0  0.093173  0.140074  0  1.044169  0
H  H15  1  0.65448325  0.95369230  0.96353837  1  0  0.126893  0  0.967925  0  0  0.141263  0  1.043652  0  0  0.144052  0  1.04045  0  0  0.093162  0.140057  0  1.044172  0
H  H16  1  0.84358368  0.68671560  0.58662528  1  0  0.123349  0  0.968958  0  0  0.141747  0  1.037254  0  0  0.141635  0  1.039977  0  0  0.094962  0.141687  0  1.035736  0
H  H17  1  0.68671199  0.84357293  0.08661607  1  0  0.123295  0  0.968951  0  0  0.141685  0  1.037257  0  0  0.141584  0  1.03997  0  0  0.094936  0.141627  0  1.035739  0
H  H18  1  0.03439250  0.83789916  0.55275104  1  0  0.133548  0  0.921916  0  0  0.15823  0  0.970547  0  0  0.159772  0  0.970156  0  0  0.101838  0.157335  0  0.97063  0
H  H19  1  0.83789165  0.03438161  0.05274778  1  0  0.13359  0  0.921977  0  0  0.158242  0  0.970634  0  0  0.159784  0  0.970246  0  0  0.101878  0.157351  0  0.970711  0
H  H20  1  0.92784230  0.84415118  0.94943651  1  0  0.105404  0  0.946217  0  0  0.120958  0  0.999962  0  0  0.124302  0  0.998654  0  0  0.102699  0.118837  0  1.000341  0
H  H21  1  0.84414123  0.92784722  0.44943993  1  0  0.1054  0  0.94616  0  0  0.120972  0  0.999884  0  0  0.124317  0  0.998575  0  0  0.102692  0.118851  0  1.000266  0
H  H22  1  0.50233116  0.65083823  0.64358297  1  0  0.083947  0  1.007693  0  0  0.093659  0  1.070762  0  0  0.094981  0  1.072984  0  0  0.093024  0.092105  0  1.070459  0
H  H23  1  0.65083282  0.50233621  0.14358865  1  0  0.083916  0  1.007773  0  0  0.093613  0  1.070841  0  0  0.094935  0  1.073064  0  0  0.093022  0.092036  0  1.070563  0
H  H24  1  0.37977528  0.35914932  0.65636526  1  0  0.113057  0  0.946857  0  0  0.125656  0  1.000484  0  0  0.128948  0  0.998939  0  0  0.1076  0.123141  0  1.00184  0
H  H25  1  0.35914703  0.37977431  0.15636400  1  0  0.113014  0  0.946849  0  0  0.125612  0  1.000489  0  0  0.128903  0  0.998946  0  0  0.107585  0.123095  0  1.001846  0
H  H26  1  0.72983100  0.81834383  0.78567112  1  0  0.086423  0  0.956235  0  0  0.098826  0  1.01513  0  0  0.101902  0  1.013643  0  0  0.096527  0.097078  0  1.015253  0
H  H27  1  0.81833476  0.72983053  0.28567947  1  0  0.086469  0  0.956348  0  0  0.098889  0  1.015211  0  0  0.101967  0  1.013722  0  0  0.096502  0.097136  0  1.01534  0
H  H28  1  0.36242025  0.54226675  0.94296004  1  0  0.118019  0  0.958906  0  0  0.135342  0  1.030798  0  0  0.136531  0  1.030725  0  0  0.093693  0.135375  0  1.029069  0
H  H29  1  0.54227135  0.36241774  0.44295911  1  0  0.118001  0  0.95894  0  0  0.135352  0  1.030795  0  0  0.136543  0  1.030718  0  0  0.093678  0.135384  0  1.029066  0
H  H30  1  0.17520459  0.44322299  0.01345848  1  0  0.140888  0  0.963933  0  0  0.158473  0  1.02941  0  0  0.160213  0  1.028649  0  0  0.09881  0.157307  0  1.02982  0
H  H31  1  0.44322670  0.17520303  0.51345622  1  0  0.140959  0  0.963802  0  0  0.158519  0  1.029315  0  0  0.160252  0  1.02856  0  0  0.098827  0.157353  0  1.029727  0
H  H32  1  0.22943194  0.34584736  0.89292083  1  0  0.136064  0  0.938573  0  0  0.156463  0  0.994838  0  0  0.158141  0  0.994412  0  0  0.098555  0.155608  0  0.994633  0
H  H33  1  0.34585286  0.22942817  0.39291981  1  0  0.136058  0  0.938495  0  0  0.156475  0  0.994736  0  0  0.158152  0  0.994309  0  0  0.098542  0.15562  0  0.994531  0
C  C34  1  0.67517999  0.45249675  0.88271349  1  0  0.035773  0  3.763514  0  0  0.042149  0  3.99362  0  0  0.04113  0  4.018521  0  0  -0.01344  0.044205  0  3.975929  0
C  C35  1  0.45248341  0.67517584  0.38271752  1  0  0.035683  0  3.763368  0  0  0.042066  0  3.993516  0  0  0.041042  0  4.018424  0  0  -0.013507  0.044119  0  3.975835  0
C  C36  1  0.06198366  0.43182475  0.73077652  1  0  0.042886  0  3.635281  0  0  0.006575  0  3.880898  0  0  0.00854  0  3.899156  0  0  0.056933  0.005808  0  3.867896  0
C  C37  1  0.43182870  0.06197553  0.23078053  1  0  0.042922  0  3.635015  0  0  0.006687  0  3.880701  0  0  0.008652  0  3.898959  0  0  0.056874  0.005919  0  3.867699  0
C  C38  1  0.74748653  0.38785310  0.96760385  1  0  -0.0991  0  3.753488  0  0  -0.12047  0  4.005542  0  0  -0.120111  0  4.024422  0  0  -0.097072  -0.1222  0  3.993463  0
C  C39  1  0.38784500  0.74748538  0.46760685  1  0  -0.099095  0  3.753689  0  0  -0.120454  0  4.005763  0  0  -0.120092  0  4.024641  0  0  -0.097053  -0.122186  0  3.993695  0
C  C40  1  0.54034995  0.36095783  0.80267621  1  0  -0.156885  0  3.709948  0  0  -0.135352  0  3.959044  0  0  -0.141217  0  3.980433  0  0  -0.020524  -0.132219  0  3.944936  0
C  C41  1  0.36095238  0.54034790  0.30267756  1  0  -0.156705  0  3.709916  0  0  -0.135187  0  3.959026  0  0  -0.141052  0  3.980415  0  0  -0.0205  -0.13206  0  3.944927  0
C  C42  1  0.03425401  0.64344491  0.65250845  1  0  0.265845  0  3.704094  0  0  0.273786  0  3.946956  0  0  0.277726  0  3.968612  0  0  0.128614  0.271469  0  3.932706  0
C  C43  1  0.64344358  0.03424099  0.15250881  1  0  0.265857  0  3.704101  0  0  0.273845  0  3.946932  0  0  0.27779  0  3.96859  0  0  0.128583  0.271527  0  3.932686  0
C  C44  1  0.94168626  0.64928483  0.03964882  1  0  0.302395  0  3.849501  0  0  0.295554  0  4.102692  0  0  0.30521  0  4.124396  0  0  0.08456  0.28865  0  4.089276  0
C  C45  1  0.64926953  0.94168354  0.53965608  1  0  0.30257  0  3.849517  0  0  0.295734  0  4.102705  0  0  0.305393  0  4.124405  0  0  0.084629  0.288828  0  4.089296  0
C  C46  1  0.74405030  0.62152129  0.87630952  1  0  0.071083  0  3.820304  0  0  0.088217  0  4.048264  0  0  0.089266  0  4.073923  0  0  -0.010223  0.087877  0  4.03106  0
C  C47  1  0.62151307  0.74404598  0.37631374  1  0  0.071054  0  3.819777  0  0  0.088158  0  4.047805  0  0  0.089209  0  4.073464  0  0  -0.010149  0.087821  0  4.030602  0
C  C48  1  0.87726620  0.48234689  0.04262916  1  0  -0.16789  0  3.7078  0  0  -0.18242  0  3.957319  0  0  -0.187508  0  3.976835  0  0  -0.098945  -0.177896  0  3.944625  0
C  C49  1  0.48233600  0.87726220  0.54263824  1  0  -0.167976  0  3.707859  0  0  -0.182535  0  3.957386  0  0  -0.187625  0  3.976902  0  0  -0.098967  -0.17801  0  3.9447  0
C  C50  1  0.14421874  0.73879654  0.74585994  1  0  0.031752  0  3.628667  0  0  -0.00527  0  3.877762  0  0  -0.002441  0  3.895105  0  0  0.051275  -0.007662  0  3.866188  0
C  C51  1  0.73879721  0.14420546  0.24586413  1  0  0.031953  0  3.628462  0  0  -0.005146  0  3.877541  0  0  -0.002317  0  3.894879  0  0  0.051321  -0.007536  0  3.865969  0
C  C52  1  0.96284505  0.70993005  0.55831742  1  0  -0.388371  0  3.716242  0  0  -0.473021  0  3.954534  0  0  -0.475781  0  3.96281  0  0  -0.240986  -0.470851  0  3.948684  0
C  C53  1  0.70992830  0.96283643  0.05831291  1  0  -0.388315  0  3.716322  0  0  -0.47295  0  3.954611  0  0  -0.475711  0  3.962857  0  0  -0.24098  -0.470787  0  3.948764  0
C  C54  1  0.87640943  0.71614550  0.95559927  1  0  -0.260573  0  3.733665  0  0  -0.283901  0  3.985933  0  0  -0.292198  0  4.00795  0  0  -0.112703  -0.279061  0  3.971892  0
C  C55  1  0.71613562  0.87640745  0.45560632  1  0  -0.260555  0  3.733546  0  0  -0.283888  0  3.985817  0  0  -0.292186  0  4.007833  0  0  -0.112708  -0.27905  0  3.971782  0
C  C56  1  0.17006574  0.52583685  0.82575399  1  0  0.266822  0  3.719314  0  0  0.272387  0  3.965768  0  0  0.27723  0  3.987956  0  0  0.127668  0.268339  0  3.953293  0
C  C57  1  0.52583892  0.17005920  0.32575703  1  0  0.266965  0  3.718985  0  0  0.272399  0  3.965623  0  0  0.277242  0  3.987807  0  0  0.127737  0.268351  0  3.953153  0
C  C58  1  0.55133238  0.59733895  0.71045773  1  0  -0.067145  0  3.790426  0  0  -0.081017  0  4.042882  0  0  -0.082245  0  4.063249  0  0  -0.097828  -0.079246  0  4.029708  0
C  C59  1  0.59733602  0.55133283  0.21046230  1  0  -0.067012  0  3.79046  0  0  -0.080848  0  4.042872  0  0  -0.082076  0  4.063243  0  0  -0.097782  -0.079063  0  4.029707  0
C  C60  1  0.48189230  0.43188945  0.71705709  1  0  -0.080929  0  3.774143  0  0  -0.106376  0  4.025261  0  0  -0.106241  0  4.044707  0  0  -0.093709  -0.107109  0  4.013365  0
C  C61  1  0.43188344  0.48189453  0.21706056  1  0  -0.080957  0  3.77406  0  0  -0.106406  0  4.025177  0  0  -0.106273  0  4.044626  0  0  -0.093721  -0.107134  0  4.013272  0
C  C62  1  0.67782344  0.69012864  0.78955740  1  0  -0.118602  0  3.744857  0  0  -0.136308  0  3.992153  0  0  -0.137387  0  4.00992  0  0  -0.094573  -0.136879  0  3.979446  0
C  C63  1  0.69012579  0.67782324  0.28956001  1  0  -0.118769  0  3.744993  0  0  -0.136496  0  3.99228  0  0  -0.13758  0  4.010051  0  0  -0.094611  -0.137064  0  3.979564  0
C  C64  1  0.23799251  0.46036467  0.92314962  1  0  -0.394167  0  3.725701  0  0  -0.477651  0  3.962164  0  0  -0.48117  0  3.971217  0  0  -0.244594  -0.475833  0  3.956195  0
C  C65  1  0.46036708  0.23799116  0.42314873  1  0  -0.394275  0  3.725511  0  0  -0.477743  0  3.962032  0  0  -0.481259  0  3.971093  0  0  -0.244618  -0.475924  0  3.956063  0
S  S66  1  0.43119943  0.15195981  0.81585842  1  0  1.277004  0  5.691216  0  0  1.184079  0  6.213195  0  0  1.230895  0  6.189936  0  0  0.488259  1.152096  0  6.227965  0
S  S67  1  0.15195670  0.43119667  0.31585488  1  0  1.277116  0  5.690813  0  0  1.184199  0  6.212774  0  0  1.231012  0  6.189522  0  0  0.48835  1.15222  0  6.227556  0
N  N68  1  0.21096349  0.68182786  0.83118058  1  0  -0.291033  0  3.279664  0  0  -0.213335  0  3.554284  0  0  -0.227989  0  3.56991  0  0  -0.328024  -0.203297  0  3.543631  0
N  N69  1  0.68183059  0.21095490  0.33118374  1  0  -0.291168  0  3.279404  0  0  -0.21341  0  3.55411  0  0  -0.228057  0  3.569719  0  0  -0.328033  -0.203374  0  3.543462  0
N  N70  1  0.99306839  0.48794530  0.64677288  1  0  -0.274415  0  3.277345  0  0  -0.197695  0  3.548398  0  0  -0.210992  0  3.563554  0  0  -0.320247  -0.189188  0  3.537702  0
N  N71  1  0.48794356  0.99305612  0.14677563  1  0  -0.274564  0  3.277464  0  0  -0.197849  0  3.548474  0  0  -0.21115  0  3.563629  0  0  -0.320248  -0.189338  0  3.537778  0
N  N72  1  0.07322644  0.74160241  0.11780114  1  0  -0.670744  0  3.158877  0  0  -0.621581  0  3.398799  0  0  -0.642214  0  3.397318  0  0  -0.601378  -0.608216  0  3.399678  0
N  N73  1  0.74159320  0.07322661  0.61780594  1  0  -0.670834  0  3.159037  0  0  -0.62169  0  3.398962  0  0  -0.642326  0  3.397478  0  0  -0.60142  -0.608324  0  3.399843  0
O  O74  1  0.32427711  0.09799155  0.70312961  1  0  -0.67017  0  1.948365  0  0  -0.619895  0  2.184186  0  0  -0.640008  0  2.170223  0  0  -0.353  -0.605974  0  2.192453  0
O  O75  1  0.09798848  0.32427212  0.20312611  1  0  -0.670248  0  1.948213  0  0  -0.620002  0  2.184044  0  0  -0.64011  0  2.170084  0  0  -0.353076  -0.606078  0  2.192313  0
O  O76  1  0.54692852  0.08743303  0.81678350  1  0  -0.700197  0  1.985912  0  0  -0.644667  0  2.237729  0  0  -0.665253  0  2.222903  0  0  -0.352825  -0.630177  0  2.246707  0
O  O77  1  0.08742550  0.54692206  0.31677772  1  0  -0.700251  0  1.985795  0  0  -0.644689  0  2.237585  0  0  -0.665271  0  2.222756  0  0  -0.352851  -0.630198  0  2.246564  0
O  O78  1  0.34809802  0.12616207  0.93711919  1  0  -0.678993  0  1.900746  0  0  -0.631995  0  2.147194  0  0  -0.653275  0  2.133153  0  0  -0.367591  -0.616618  0  2.154005  0
O  O79  1  0.12615198  0.34809277  0.43711465  1  0  -0.679011  0  1.900636  0  0  -0.63202  0  2.147107  0  0  -0.653301  0  2.133071  0  0  -0.367595  -0.616642  0  2.153925  0
