# generated using pymatgen
data_Cd3H28C36(NO7)2
_symmetry_space_group_name_H-M   'P 1'
_cell_length_a   7.63010985
_cell_length_b   10.19619914
_cell_length_c   13.59755045
_cell_angle_alpha   68.45010652
_cell_angle_beta   80.71599430
_cell_angle_gamma   71.12427720
_symmetry_Int_Tables_number   1
_chemical_formula_structural   Cd3H28C36(NO7)2
_chemical_formula_sum   'Cd3 H28 C36 N2 O14'
_cell_volume   929.91849555
_cell_formula_units_Z   1
loop_
 _symmetry_equiv_pos_site_id
 _symmetry_equiv_pos_as_xyz
  1  'x, y, z'
loop_
 _atom_site_type_symbol
 _atom_site_label
 _atom_site_symmetry_multiplicity
 _atom_site_fract_x
 _atom_site_fract_y
 _atom_site_fract_z
 _atom_site_occupancy
 _atom_site_hle17_bader_spin_density
 _atom_site_hle17_ddec_charge
 _atom_site_hle17_ddec_spin_density
 _atom_site_hle17_ddec_sum_bond_order
 _atom_site_hle17_magmom
 _atom_site_hse06_10hf_bader_charge
 _atom_site_hse06_10hf_bader_spin_density
 _atom_site_hse06_10hf_ddec_charge
 _atom_site_hse06_10hf_ddec_spin_density
 _atom_site_hse06_10hf_ddec_sum_bond_order
 _atom_site_hse06_10hf_magmom
 _atom_site_hse06_bader_spin_density
 _atom_site_hse06_ddec_charge
 _atom_site_hse06_ddec_spin_density
 _atom_site_hse06_ddec_sum_bond_order
 _atom_site_hse06_magmom
 _atom_site_pbe_bader_spin_density
 _atom_site_pbe_cm5_charge
 _atom_site_pbe_ddec_charge
 _atom_site_pbe_ddec_spin_density
 _atom_site_pbe_ddec_sum_bond_order
 _atom_site_pbe_magmom
Cd  Cd0  1  0.17155959  0.34689025  0.45479231  1  0  1.231799  0  1.593064  0  1.370283  0  1.05961  0  2.034487  0  0  1.120979  0  1.973892  0  0  0.775655  1.011628  0  2.079241  0
Cd  Cd1  1  0.82844102  0.65311134  0.54520566  1  0  1.231831  0  1.593111  0  1.370249  0  1.059612  0  2.034549  0  0  1.120979  0  1.973955  0  0  0.775646  1.011627  0  2.079288  0
Cd  Cd2  1  0.50000241  0.99999836  0.49999830  1  0  1.249457  0  1.701516  0  1.389963  0  1.084254  0  2.156145  0  0  1.138842  0  2.098072  0  0  0.783618  1.044984  0  2.195887  0
H  H3  1  0.14401056  0.86682280  0.45219587  1  0  0.119639  0  0.938415  0  0.125723  0  0.125686  0  1.005196  0  0  0.129679  0  1.001762  0  0  0.108255  0.122794  0  1.007751  0
H  H4  1  0.85598710  0.13317989  0.54780650  1  0  0.11971  0  0.938433  0  0.125781  0  0.125721  0  1.005247  0  0  0.129712  0  1.001812  0  0  0.10827  0.122828  0  1.007799  0
H  H5  1  0.21010034  0.76259395  0.16777991  1  0  0.099763  0  0.962019  0  0.093114  0  0.108512  0  1.026796  0  0  0.112416  0  1.023193  0  0  0.104492  0.105691  0  1.029391  0
H  H6  1  0.78989547  0.23740654  0.83222398  1  0  0.099839  0  0.961986  0  0.092808  0  0.108529  0  1.026829  0  0  0.11244  0  1.023222  0  0  0.104533  0.105707  0  1.029423  0
H  H7  1  0.16422456  0.20376605  0.15028348  1  0  0.093922  0  0.953925  0  0.098577  0  0.103598  0  1.0181  0  0  0.107311  0  1.014987  0  0  0.103332  0.100884  0  1.020356  0
H  H8  1  0.83577618  0.79623552  0.84971963  1  0  0.093919  0  0.953955  0  0.098654  0  0.10356  0  1.018166  0  0  0.107271  0  1.015057  0  0  0.103301  0.100848  0  1.020417  0
H  H9  1  0.41214146  0.81581253  0.03600977  1  0  0.084445  0  0.958547  0  0.075083  0  0.096368  0  1.018544  0  0  0.099353  0  1.01742  0  0  0.097361  0.094319  0  1.019309  0
H  H10  1  0.58786220  0.18418795  0.96398821  1  0  0.084451  0  0.958535  0  0.075068  0  0.096384  0  1.018519  0  0  0.099365  0  1.017394  0  0  0.09738  0.094333  0  1.019282  0
H  H11  1  0.46554019  0.87768787  0.84160100  1  0  0.089494  0  0.965178  0  0.069751  0  0.100339  0  1.027171  0  0  0.103354  0  1.02475  0  0  0.099916  0.09816  0  1.028881  0
H  H12  1  0.53446579  0.12231370  0.15839866  1  0  0.089463  0  0.965212  0  0.069844  0  0.100318  0  1.027197  0  0  0.103332  0  1.024777  0  0  0.0999  0.098141  0  1.028906  0
H  H13  1  0.10028419  0.31374820  0.79492228  1  0  0.105726  0  0.953317  0  0.11653  0  0.114709  0  1.015795  0  0  0.118025  0  1.013658  0  0  0.106621  0.112375  0  1.017397  0
H  H14  1  0.89971642  0.68625340  0.20507569  1  0  0.105712  0  0.953302  0  0.116546  0  0.114698  0  1.015776  0  0  0.118013  0  1.01364  0  0  0.106617  0.112363  0  1.017376  0
H  H15  1  0.04370093  0.25281490  0.98933169  1  0  0.084405  0  0.951164  0  0.053105  0  0.098429  0  1.006583  0  0  0.101267  0  1.005803  0  0  0.097219  0.096433  0  1.007144  0
H  H16  1  0.95630059  0.74718779  0.01066515  1  0  0.084497  0  0.951138  0  0.053106  0  0.098507  0  1.00656  0  0  0.101344  0  1.005778  0  0  0.097252  0.096509  0  1.007121  0
H  H17  1  0.39009685  0.79384156  0.72419358  1  0  0.048782  0  0.958209  0  0.143161  0  0.055321  0  1.030883  0  0  0.057646  0  1.025541  0  0  0.122582  0.053417  0  1.034729  0
H  H18  1  0.60990536  0.20615562  0.27580692  1  0  0.048764  0  0.958153  0  0.143196  0  0.055274  0  1.030878  0  0  0.0576  0  1.025533  0  0  0.12255  0.053371  0  1.034715  0
H  H19  1  0.27413991  0.65693335  0.86363397  1  0  0.099246  0  0.93901  0  0.060853  0  0.119408  0  1.002421  0  0  0.119889  0  1.002801  0  0  0.108603  0.119204  0  1.001887  0
H  H20  1  0.72585871  0.34306275  0.13636719  1  0  0.099262  0  0.939018  0  0.060838  0  0.119429  0  1.002417  0  0  0.119904  0  1.002804  0  0  0.108606  0.119218  0  1.001887  0
H  H21  1  0.34866290  0.46335367  0.88402372  1  0  0.096865  0  0.927384  0  0.056988  0  0.118392  0  0.987  0  0  0.119149  0  0.986977  0  0  0.103999  0.117977  0  0.986774  0
H  H22  1  0.65133569  0.53664243  0.11597596  1  0  0.096862  0  0.927399  0  0.057029  0  0.118409  0  0.986988  0  0  0.119167  0  0.986966  0  0  0.104001  0.117994  0  0.986764  0
H  H23  1  0.12687891  0.57487306  0.83059308  1  0  0.116982  0  0.93917  0  0.08558  0  0.134925  0  1.001994  0  0  0.136638  0  1.000752  0  0  0.107514  0.133579  0  1.002977  0
H  H24  1  0.87312060  0.42512414  0.16940547  1  0  0.11701  0  0.939165  0  0.085596  0  0.13494  0  1.001999  0  0  0.136655  0  1.000755  0  0  0.107513  0.13359  0  1.002981  0
H  H25  1  0.42659697  0.53352680  0.59373546  1  0  0.123588  0  0.930478  0  0.126931  0  0.143231  0  0.987898  0  0  0.144774  0  0.986701  0  0  0.112499  0.142106  0  0.988697  0
H  H26  1  0.57340376  0.46646709  0.40626610  1  0  0.123607  0  0.930432  0  0.127062  0  0.143231  0  0.98788  0  0  0.144773  0  0.986685  0  0  0.112477  0.142106  0  0.988683  0
H  H27  1  0.22530277  0.49352912  0.66903756  1  0  0.117769  0  0.941558  0  0.116278  0  0.135257  0  1.008099  0  0  0.135959  0  1.007217  0  0  0.107835  0.134293  0  1.009375  0
H  H28  1  0.77469855  0.50646696  0.33096480  1  0  0.117779  0  0.941536  0  0.116363  0  0.135272  0  1.008076  0  0  0.135974  0  1.007195  0  0  0.107827  0.134312  0  1.009349  0
H  H29  1  0.44925209  0.38736663  0.71916459  1  0  0.097587  0  0.943519  0  0.072077  0  0.115742  0  1.011495  0  0  0.11513  0  1.013281  0  0  0.101387  0.115992  0  1.010355  0
H  H30  1  0.55074924  0.61262945  0.28083851  1  0  0.097608  0  0.943548  0  0.072138  0  0.115791  0  1.011483  0  0  0.11518  0  1.013269  0  0  0.101415  0.116045  0  1.010341  0
C  C31  1  0.15112669  0.04653981  0.30565509  1  0  -0.062029  0  3.755932  0  0.046271  0  -0.036141  0  3.993352  0  0  -0.045965  0  4.016788  0  0  -0.019186  -0.029995  0  3.977886  0
C  C32  1  0.84886603  0.95346180  0.69434733  1  0  -0.061894  0  3.7559  0  0.046275  0  -0.036021  0  3.993314  0  0  -0.045847  0  4.01675  0  0  -0.019154  -0.029876  0  3.977847  0
C  C33  1  0.15498193  0.90106078  0.36624807  1  0  -0.034926  0  3.63012  0  -0.032451  0  -0.075902  0  3.881321  0  0  -0.071179  0  3.897608  0  0  -0.069277  -0.078877  0  3.871105  0
C  C34  1  0.84500827  0.09894414  0.63375294  1  0  -0.034987  0  3.630007  0  -0.0325  0  -0.075938  0  3.881181  0  0  -0.071216  0  3.897473  0  0  -0.069264  -0.078914  0  3.870975  0
C  C35  1  0.17290627  0.80022089  0.31530569  1  0  -0.06553  0  3.757237  0  0.02171  0  -0.037617  0  3.991899  0  0  -0.047783  0  4.01508  0  0  -0.017163  -0.031272  0  3.976968  0
C  C36  1  0.82708928  0.19978401  0.68469628  1  0  -0.065544  0  3.757324  0  0.0219  0  -0.037574  0  3.991891  0  0  -0.047741  0  4.015071  0  0  -0.017134  -0.03123  0  3.976966  0
C  C37  1  0.19449818  0.84396022  0.20494872  1  0  -0.090695  0  3.694252  0  -0.074985  0  -0.126976  0  3.943306  0  0  -0.124681  0  3.961585  0  0  -0.075113  -0.127968  0  3.930915  0
C  C38  1  0.80549599  0.15604469  0.79505117  1  0  -0.090778  0  3.694286  0  -0.074796  0  -0.12705  0  3.943357  0  0  -0.124764  0  3.961631  0  0  -0.075181  -0.128043  0  3.930973  0
C  C39  1  0.19103243  0.98891768  0.14304747  1  0  0.041672  0  3.790877  0  0.032065  0  0.060837  0  4.0261  0  0  0.057457  0  4.051088  0  0  -0.006884  0.062759  0  4.009159  0
C  C40  1  0.80896518  0.01108502  0.85695269  1  0  0.041677  0  3.790836  0  0.033081  0  0.060882  0  4.026034  0  0  0.057512  0  4.05101  0  0  -0.006891  0.062804  0  4.009092  0
C  C41  1  0.16476484  0.09035393  0.19495506  1  0  -0.095273  0  3.689375  0  -0.125919  0  -0.130204  0  3.939163  0  0  -0.128652  0  3.958149  0  0  -0.076262  -0.130515  0  3.926063  0
C  C42  1  0.83522704  0.90964989  0.80504462  1  0  -0.095386  0  3.689525  0  -0.127073  0  -0.130289  0  3.939333  0  0  -0.12874  0  3.958318  0  0  -0.076278  -0.130603  0  3.926232  0
C  C43  1  0.22199862  0.02912012  0.02708177  1  0  0.069705  0  3.780598  0  -0.02797  0  0.081226  0  4.011993  0  0  0.083267  0  4.037075  0  0  -0.002462  0.079981  0  3.995307  0
C  C44  1  0.77800243  0.97088036  0.97291867  1  0  0.069812  0  3.780622  0  -0.027955  0  0.081265  0  4.012092  0  0  0.083302  0  4.037173  0  0  -0.002445  0.080025  0  3.995402  0
C  C45  1  0.34005333  0.92427409  0.98340501  1  0  -0.117487  0  3.75659  0  -0.094076  0  -0.134551  0  4.005594  0  0  -0.139764  0  4.02814  0  0  -0.091821  -0.131338  0  3.990314  0
C  C46  1  0.65994827  0.07572859  0.01659477  1  0  -0.117514  0  3.756664  0  -0.094099  0  -0.134562  0  4.005684  0  0  -0.139769  0  4.028224  0  0  -0.091842  -0.131345  0  3.990402  0
C  C47  1  0.37147437  0.95868777  0.87467415  1  0  -0.067261  0  3.767483  0  -0.013594  0  -0.092261  0  4.018698  0  0  -0.09129  0  4.039875  0  0  -0.088356  -0.09259  0  4.003877  0
C  C48  1  0.62852985  0.04131491  0.12532390  1  0  -0.067224  0  3.767706  0  -0.013721  0  -0.092234  0  4.018919  0  0  -0.091262  0  4.040094  0  0  -0.08833  -0.092569  0  4.004104  0
C  C49  1  0.28654466  0.09925261  0.80544474  1  0  -0.071919  0  3.737337  0  -0.004071  0  -0.049108  0  3.97134  0  0  -0.05865  0  3.995359  0  0  -0.021908  -0.042756  0  3.955123  0
C  C50  1  0.71345953  0.90075008  0.19455185  1  0  -0.071952  0  3.737434  0  -0.00406  0  -0.049161  0  3.971475  0  0  -0.058706  0  3.995496  0  0  -0.021924  -0.04281  0  3.955261  0
C  C51  1  0.17042378  0.20530476  0.84815867  1  0  -0.064362  0  3.743398  0  -0.1094  0  -0.088129  0  3.994479  0  0  -0.08677  0  4.014857  0  0  -0.082224  -0.088775  0  3.980278  0
C  C52  1  0.82957987  0.79469573  0.15183857  1  0  -0.064302  0  3.743409  0  -0.109605  0  -0.088066  0  3.994481  0  0  -0.086706  0  4.01486  0  0  -0.082213  -0.088706  0  3.980273  0
C  C53  1  0.13886921  0.17046434  0.95741747  1  0  -0.125792  0  3.744476  0  -0.007794  0  -0.142658  0  3.993013  0  0  -0.147968  0  4.014985  0  0  -0.092413  -0.139344  0  3.978047  0
C  C54  1  0.86113313  0.82953615  0.04258137  1  0  -0.125978  0  3.744622  0  -0.007675  0  -0.14281  0  3.993183  0  0  -0.14812  0  4.015154  0  0  -0.092474  -0.139501  0  3.97822  0
C  C55  1  0.14501798  0.15489587  0.35699005  1  0  0.64948  0  3.896307  0  1.579127  0  0.600069  0  4.181868  0  0  0.634674  0  4.176952  0  0  0.202177  0.576472  0  4.184252  0
C  C56  1  0.85498004  0.84510572  0.64301112  1  0  0.649482  0  3.896239  0  1.579062  0  0.600093  0  4.181781  0  0  0.634699  0  4.176865  0  0  0.202154  0.576502  0  4.184161  0
C  C57  1  0.16815633  0.64579971  0.37590886  1  0  0.651382  0  3.910044  0  1.589219  0  0.597774  0  4.200375  0  0  0.633714  0  4.194443  0  0  0.203432  0.573123  0  4.203579  0
C  C58  1  0.83184387  0.35420299  0.62408811  1  0  0.651153  0  3.910225  0  1.589179  0  0.597513  0  4.200573  0  0  0.633456  0  4.194644  0  0  0.203308  0.57285  0  4.203792  0
C  C59  1  0.31671503  0.13104846  0.68797547  1  0  0.672199  0  3.887798  0  1.62576  0  0.619373  0  4.180051  0  0  0.656088  0  4.172649  0  0  0.212851  0.594328  0  4.184398  0
C  C60  1  0.68328287  0.86895316  0.31202055  1  0  0.672452  0  3.887434  0  1.626068  0  0.619613  0  4.179685  0  0  0.656328  0  4.172281  0  0  0.213042  0.594563  0  4.184043  0
C  C61  1  0.41269617  0.72025342  0.67807372  1  0  0.410111  0  3.762948  0  1.385673  0  0.333278  0  4.044219  0  0  0.361869  0  4.04494  0  0  0.178685  0.314013  0  4.043376  0
C  C62  1  0.58730604  0.27974376  0.32192678  1  0  0.410266  0  3.762811  0  1.385595  0  0.333447  0  4.044083  0  0  0.362035  0  4.044805  0  0  0.178762  0.314183  0  4.043236  0
C  C63  1  0.27137631  0.57237514  0.83263404  1  0  -0.177932  0  3.669992  0  0.280768  0  -0.279037  0  3.916255  0  0  -0.276239  0  3.927342  0  0  -0.127798  -0.28082  0  3.908682  0
C  C64  1  0.72862454  0.42762206  0.16736512  1  0  -0.177957  0  3.669953  0  0.280725  0  -0.279067  0  3.916184  0  0  -0.276265  0  3.927277  0  0  -0.127807  -0.280837  0  3.90861  0
C  C65  1  0.36530281  0.49732616  0.67374900  1  0  -0.165647  0  3.610686  0  0.222437  0  -0.268848  0  3.861238  0  0  -0.264203  0  3.870104  0  0  -0.137554  -0.271585  0  3.85534  0
C  C66  1  0.63469850  0.50266993  0.32625336  1  0  -0.165649  0  3.610707  0  0.222186  0  -0.268871  0  3.861275  0  0  -0.264227  0  3.870144  0  0  -0.137528  -0.271614  0  3.855381  0
N  N67  1  0.35557232  0.60130348  0.72585009  1  0  -0.054665  0  3.502316  0  -1.262419  0  0.04955  0  3.734486  0  0  0.029942  0  3.760089  0  0  -0.266434  0.062381  0  3.71714  0
N  N68  1  0.64443031  0.39869261  0.27415141  1  0  -0.054757  0  3.502294  0  -1.262388  0  0.049464  0  3.734458  0  0  0.029857  0  3.760061  0  0  -0.266443  0.062297  0  3.717109  0
O  O69  1  0.10010777  0.29121249  0.30521577  1  0  -0.615058  0  1.9213  0  -1.188186  0  -0.558563  0  2.147021  0  0  -0.585627  0  2.138092  0  0  -0.317951  -0.538398  0  2.153284  0
O  O70  1  0.89989867  0.70878796  0.69478709  1  0  -0.615066  0  1.921253  0  -1.188125  0  -0.558579  0  2.146966  0  0  -0.585641  0  2.138036  0  0  -0.317909  -0.538421  0  2.15323  0
O  O71  1  0.19043400  0.10495424  0.45481851  1  0  -0.703995  0  2.061083  0  -1.202915  0  -0.627389  0  2.323517  0  0  -0.660284  0  2.311359  0  0  -0.339338  -0.603353  0  2.330448  0
O  O72  1  0.80956518  0.89504406  0.54518272  1  0  -0.704007  0  2.061048  0  -1.202876  0  -0.627426  0  2.323504  0  0  -0.660318  0  2.311337  0  0  -0.339371  -0.603395  0  2.330437  0
O  O73  1  0.13073213  0.60655654  0.47594571  1  0  -0.682556  0  2.045341  0  -1.220115  0  -0.609747  0  2.305577  0  0  -0.64078  0  2.292911  0  0  -0.333662  -0.587018  0  2.313508  0
O  O74  1  0.86926593  0.39344505  0.52405693  1  0  -0.682445  0  2.045604  0  -1.220207  0  -0.609642  0  2.305822  0  0  -0.64067  0  2.293155  0  0  -0.333634  -0.586908  0  2.313753  0
O  O75  1  0.20490176  0.55579387  0.32532091  1  0  -0.624846  0  1.985254  0  -1.163456  0  -0.560133  0  2.229762  0  0  -0.590139  0  2.219589  0  0  -0.318842  -0.538291  0  2.237039  0
O  O76  1  0.79509950  0.44420991  0.67468081  1  0  -0.624785  0  1.98508  0  -1.163389  0  -0.559994  0  2.229501  0  0  -0.590008  0  2.219344  0  0  -0.318772  -0.538138  0  2.23676  0
O  O77  1  0.41639133  0.02286048  0.65900979  1  0  -0.665631  0  2.078995  0  -1.206569  0  -0.594377  0  2.33676  0  0  -0.626384  0  2.326508  0  0  -0.325659  -0.571805  0  2.343087  0
O  O78  1  0.58360789  0.97714113  0.34098610  1  0  -0.665804  0  2.078724  0  -1.206404  0  -0.594493  0  2.336454  0  0  -0.6265  0  2.326202  0  0  -0.325793  -0.571923  0  2.342787  0
O  O79  1  0.24095799  0.26045686  0.62745196  1  0  -0.644346  0  2.048498  0  -1.20053  0  -0.573755  0  2.303759  0  0  -0.604849  0  2.293083  0  0  -0.317099  -0.551508  0  2.31033  0
O  O80  1  0.75903634  0.73954366  0.37254618  1  0  -0.644472  0  2.048523  0  -1.200758  0  -0.573875  0  2.303804  0  0  -0.604969  0  2.293126  0  0  -0.317144  -0.551622  0  2.310374  0
O  O81  1  0.48643360  0.75314925  0.58492117  1  0  -0.599305  0  2.124374  0  -1.207645  0  -0.528336  0  2.397593  0  0  -0.556763  0  2.385726  0  0  -0.318801  -0.508166  0  2.405173  0
O  O82  1  0.51356903  0.24684684  0.41508034  1  0  -0.599414  0  2.124337  0  -1.207645  0  -0.528452  0  2.397564  0  0  -0.55688  0  2.385698  0  0  -0.318849  -0.508281  0  2.405146  0
