# generated using pymatgen
data_ZnH6C15S2Br3NO10
_symmetry_space_group_name_H-M   'P 1'
_cell_length_a   9.44242067
_cell_length_b   10.89272112
_cell_length_c   16.04174041
_cell_angle_alpha   91.61804982
_cell_angle_beta   89.12639897
_cell_angle_gamma   93.08740119
_symmetry_Int_Tables_number   1
_chemical_formula_structural   ZnH6C15S2Br3NO10
_chemical_formula_sum   'Zn2 H12 C30 S4 Br6 N2 O20'
_cell_volume   1646.74414033
_cell_formula_units_Z   2
loop_
 _symmetry_equiv_pos_site_id
 _symmetry_equiv_pos_as_xyz
  1  'x, y, z'
loop_
 _atom_site_type_symbol
 _atom_site_label
 _atom_site_symmetry_multiplicity
 _atom_site_fract_x
 _atom_site_fract_y
 _atom_site_fract_z
 _atom_site_occupancy
 _atom_site_pbe_bader_charge
 _atom_site_pbe_bader_spin_density
 _atom_site_pbe_cm5_charge
 _atom_site_pbe_ddec_charge
 _atom_site_pbe_ddec_spin_density
 _atom_site_pbe_ddec_sum_bond_order
 _atom_site_pbe_magmom
Zn  Zn0  1  0.64717209  0.50231898  0.50484077  1  1.279028  0  0.673139  0.794336  0  2.466851  0
Zn  Zn1  1  0.35257692  0.49752076  0.49415323  1  1.276143  0  0.673556  0.794459  0  2.467629  0
H  H2  1  0.61513877  0.08599488  0.62522815  1  0.129815  0  0.123661  0.140479  0  0.942524  0
H  H3  1  0.38348193  0.91360841  0.37310376  1  0.154258  0  0.1233  0.140695  0  0.941387  0
H  H4  1  0.91417993  0.61170372  0.62052308  1  0.122763  0  0.132077  0.119748  0  0.941818  0
H  H5  1  0.08581816  0.38768510  0.37717388  1  0.154614  0  0.132177  0.120068  0  0.942516  0
H  H6  1  0.11088420  0.70541034  0.49421315  1  0.10071  0  0.117836  0.107201  0  0.984784  0
H  H7  1  0.88891913  0.29391013  0.50337165  1  0.140195  0  0.118064  0.107418  0  0.985268  0
H  H8  1  0.90031968  0.59204492  0.37879811  1  0.129271  0  0.127417  0.113769  0  0.958131  0
H  H9  1  0.09948002  0.40717475  0.61884747  1  0.138096  0  0.1279  0.114001  0  0.956713  0
H  H10  1  0.03047912  0.41811083  0.05357817  1  0.685794  0  0.316428  0.399022  0  0.927034  0
H  H11  1  0.96425324  0.57527177  0.94512686  1  0.681271  0  0.316126  0.398466  0  0.92797  0
H  H12  1  0.76387707  0.98349914  0.29249072  1  0.65741  0  0.350451  0.401682  0  0.843161  0
H  H13  1  0.23377412  0.01579539  0.70500263  1  0.639584  0  0.350469  0.401979  0  0.843699  0
C  C14  1  0.51717918  0.73845568  0.48979752  1  1.628478  0  0.214003  0.593155  0  4.201278  0
C  C15  1  0.48169124  0.26109238  0.50884280  1  1.631798  0  0.213809  0.592746  0  4.205239  0
C  C16  1  0.56436680  0.04700429  0.56904045  1  -0.009087  0  -0.061612  -0.084499  0  3.605504  0
C  C17  1  0.43433515  0.95258167  0.42926917  1  -0.025569  0  -0.061684  -0.084447  0  3.604434  0
C  C18  1  0.48484677  0.12377855  0.50486736  1  0.011541  0  0.006272  -0.02781  0  3.618273  0
C  C19  1  0.51380369  0.87574922  0.49333778  1  0.039585  0  0.005298  -0.027795  0  3.615057  0
C  C20  1  0.55994807  0.05226203  0.43104490  1  -0.120351  0  -0.004617  -0.128439  0  3.658669  0
C  C21  1  0.43879421  0.94734496  0.56731278  1  -0.11699  0  -0.004371  -0.130536  0  3.658489  0
C  C22  1  0.05450196  0.61532298  0.49587592  1  0.23795  0  0.029707  0.035237  0  3.534753  0
C  C23  1  0.94531523  0.38400400  0.50179057  1  0.194178  0  0.029597  0.034575  0  3.534606  0
C  C24  1  0.95912102  0.56257624  0.56696470  1  0.221275  0  0.034732  0.040703  0  3.532126  0
C  C25  1  0.04077886  0.43679044  0.43072618  1  0.184241  0  0.03524  0.040998  0  3.531783  0
C  C26  1  0.95190050  0.55217847  0.43134528  1  0.205306  0  0.031934  0.033565  0  3.541576  0
C  C27  1  0.04787916  0.44714748  0.56634939  1  0.193784  0  0.032025  0.034411  0  3.539636  0
C  C28  1  0.51226423  0.48157512  0.33731034  1  1.671823  0  0.223429  0.65977  0  4.253147  0
C  C29  1  0.48693848  0.51700068  0.66182134  1  1.747422  0  0.222823  0.658135  0  4.252253  0
C  C30  1  0.52491100  0.61413435  0.97396763  1  0.032453  0  0.001858  0.05764  0  3.623833  0
C  C31  1  0.46986552  0.37991689  0.02509589  1  0.0336  0  0.001652  0.057809  0  3.624002  0
C  C32  1  0.40647894  0.57288454  0.03865505  1  0.023349  0  -0.000846  0.060097  0  3.633443  0
C  C33  1  0.58821667  0.42104537  0.96034276  1  0.015883  0  -0.002033  0.058241  0  3.63549  0
C  C34  1  0.52201639  0.48306868  0.24739304  1  0.228887  0  -0.018123  -0.117462  0  3.916722  0
C  C35  1  0.47541950  0.51361543  0.75165783  1  -0.128381  0  -0.017734  -0.116253  0  3.914941  0
C  C36  1  0.63454519  0.53417286  0.01812601  1  -0.10703  0  -0.0047  -0.16097  0  3.629464  0
C  C37  1  0.36023954  0.45979910  0.98082636  1  -0.102959  0  -0.004166  -0.158281  0  3.625341  0
C  C38  1  0.51581351  0.49357892  0.08470993  1  0.108807  0  0.015136  0.102321  0  3.797655  0
C  C39  1  0.47902275  0.50048393  0.91428366  1  0.129977  0  0.015789  0.103388  0  3.794709  0
C  C40  1  0.52672114  0.48861011  0.17189129  1  -0.39278  0  -0.044389  -0.057485  0  4.091038  0
C  C41  1  0.46884302  0.50643383  0.82707471  1  -0.121228  0  -0.045047  -0.059933  0  4.090106  0
C  C42  1  0.63855476  0.97613053  0.49618034  1  -0.002533  0  -0.00135  0.097966  0  3.607002  0
C  C43  1  0.36012213  0.02340132  0.50211077  1  0.007413  0  -0.001598  0.098134  0  3.609759  0
S  S44  1  0.18527599  0.40968249  0.95235161  1  3.131235  0  0.545448  1.189551  0  6.00555  0
S  S45  1  0.80964577  0.58401325  0.04644611  1  3.146244  0  0.545655  1.192347  0  6.002645  0
S  S46  1  0.63269683  0.12342978  0.34115852  1  3.086291  0  0.536409  1.154477  0  6.007908  0
S  S47  1  0.36593926  0.87595128  0.65707332  1  3.076778  0  0.538409  1.158255  0  6.007536  0
Br  Br48  1  0.28243436  0.67912308  0.09466281  1  0.000385  0  0.045018  -0.021328  0  1.361437  0
Br  Br49  1  0.71191900  0.31442525  0.90444733  1  0.000304  0  0.045389  -0.020525  0  1.36349  0
Br  Br50  1  0.55700758  0.77581974  0.93641207  1  0.027479  0  0.059462  0.005106  0  1.377734  0
Br  Br51  1  0.43761391  0.21829047  0.06275483  1  0.024778  0  0.059367  0.004861  0  1.37819  0
Br  Br52  1  0.83555423  0.94503548  0.49142810  1  -0.049692  0  0.015765  -0.076288  0  1.536936  0
Br  Br53  1  0.16305298  0.05431889  0.50646755  1  -0.049011  0  0.016009  -0.076249  0  1.537736  0
N  N54  1  0.85792675  0.49956497  0.50253986  1  -0.863018  0  -0.316737  -0.178322  0  3.082569  0
N  N55  1  0.14187790  0.49979640  0.49520244  1  -0.851198  0  -0.317345  -0.179564  0  3.083105  0
O  O56  1  0.63525999  0.69147323  0.49837359  1  -1.153508  0  -0.305348  -0.518842  0  2.337236  0
O  O57  1  0.36287439  0.30854300  0.50581272  1  -1.154136  0  -0.306505  -0.520123  0  2.336574  0
O  O58  1  0.39629407  0.68348258  0.48004281  1  -1.156872  0  -0.309908  -0.534134  0  2.328377  0
O  O59  1  0.60368763  0.31564454  0.51358490  1  -1.154366  0  -0.308676  -0.532826  0  2.336352  0
O  O60  1  0.62837458  0.49171929  0.37657394  1  -1.141752  0  -0.303934  -0.53254  0  2.285036  0
O  O61  1  0.37142414  0.51493506  0.62202935  1  -1.146272  0  -0.30381  -0.531314  0  2.284985  0
O  O62  1  0.38754657  0.47246770  0.36825847  1  -1.136073  0  -0.306607  -0.526892  0  2.266029  0
O  O63  1  0.61215320  0.51950215  0.63149645  1  -1.141108  0  -0.306622  -0.526081  0  2.261275  0
O  O64  1  0.11471485  0.51559426  0.92250569  1  -1.309043  0  -0.310575  -0.55836  0  2.211315  0
O  O65  1  0.19626557  0.30343597  0.89854924  1  -1.272938  0  -0.302523  -0.504027  0  2.102089  0
O  O66  1  0.11883092  0.37218087  0.03885730  1  -1.262787  0  -0.348991  -0.52976  0  2.226998  0
O  O67  1  0.79906053  0.69038673  0.10016280  1  -1.278647  0  -0.302867  -0.505447  0  2.103042  0
O  O68  1  0.88003674  0.47800109  0.07629856  1  -1.310128  0  -0.310903  -0.559411  0  2.209083  0
O  O69  1  0.87585953  0.62117757  0.95982645  1  -1.258713  0  -0.348251  -0.528684  0  2.224729  0
O  O70  1  0.51963843  0.18081030  0.30136717  1  -1.275102  0  -0.293917  -0.491787  0  2.131416  0
O  O71  1  0.76541735  0.18827370  0.36051363  1  -1.290272  0  -0.30926  -0.535333  0  2.158115  0
O  O72  1  0.66505276  0.00319067  0.28406994  1  -1.206561  0  -0.356751  -0.522839  0  2.121493  0
O  O73  1  0.23389591  0.81046158  0.63706302  1  -1.287212  0  -0.3098  -0.536494  0  2.158684  0
O  O74  1  0.47902810  0.81916811  0.69725370  1  -1.273708  0  -0.294802  -0.49264  0  2.129121  0
O  O75  1  0.33230015  0.99584440  0.71416705  1  -1.181175  0  -0.356438  -0.523093  0  2.122033  0
