# generated using pymatgen
data_CdH23C27N6(ClO2)2
_symmetry_space_group_name_H-M   'P 1'
_cell_length_a   8.87514482
_cell_length_b   12.09986647
_cell_length_c   13.06180000
_cell_angle_alpha   78.09757606
_cell_angle_beta   71.56917643
_cell_angle_gamma   85.53003587
_symmetry_Int_Tables_number   1
_chemical_formula_structural   CdH23C27N6(ClO2)2
_chemical_formula_sum   'Cd2 H46 C54 N12 Cl4 O8'
_cell_volume   1301.99956606
_cell_formula_units_Z   2
loop_
 _symmetry_equiv_pos_site_id
 _symmetry_equiv_pos_as_xyz
  1  'x, y, z'
loop_
 _atom_site_type_symbol
 _atom_site_label
 _atom_site_symmetry_multiplicity
 _atom_site_fract_x
 _atom_site_fract_y
 _atom_site_fract_z
 _atom_site_occupancy
 _atom_site_pbe_bader_charge
 _atom_site_pbe_bader_spin_density
 _atom_site_pbe_cm5_charge
 _atom_site_pbe_ddec_charge
 _atom_site_pbe_ddec_spin_density
 _atom_site_pbe_ddec_sum_bond_order
 _atom_site_pbe_magmom
Cd  Cd0  1  0.84278803  0.43105655  0.64485669  1  1.172243  0  0.641516  0.79745  0  2.344437  0
Cd  Cd1  1  0.15721045  0.56894352  0.35514324  1  1.172266  0  0.64154  0.797475  0  2.344409  0
H  H2  1  0.77401884  0.49233993  0.85768251  1  0.648614  0  0.285921  0.384101  0  0.955573  0
H  H3  1  0.22598083  0.50765929  0.14231733  1  0.648607  0  0.285924  0.3841  0  0.95557  0
H  H4  1  0.61155044  0.45093979  0.84973612  1  0.63815  0  0.270884  0.324925  0  1.04669  0
H  H5  1  0.38844683  0.54906112  0.15026391  1  0.638272  0  0.270892  0.32494  0  1.046676  0
H  H6  1  0.81669488  0.23766897  0.84984938  1  0.125516  0  0.115518  0.096826  0  1.006762  0
H  H7  1  0.18330478  0.76233110  0.15015106  1  0.125291  0  0.115526  0.096829  0  1.006757  0
H  H8  1  0.47585608  0.12612546  0.77815498  1  0.496265  0  0.290024  0.263055  0  1.001502  0
H  H9  1  0.52414475  0.87387545  0.22184505  1  0.496233  0  0.290022  0.263029  0  1.001507  0
H  H10  1  0.20898399  0.34001714  0.58215494  1  0.108944  0  0.107839  0.078433  0  1.042913  0
H  H11  1  0.79101445  0.65998462  0.41784468  1  0.108957  0  0.107843  0.078451  0  1.042957  0
H  H12  1  0.05029677  0.81785367  0.87895615  1  0.500047  0  0.312864  0.280292  0  0.967333  0
H  H13  1  0.94970647  0.18214555  0.12104369  1  0.500063  0  0.312839  0.280278  0  0.967389  0
H  H14  1  0.37923366  0.18680235  0.64843449  1  0.127946  0  0.10347  0.118509  0  1.028956  0
H  H15  1  0.62076596  0.81319941  0.35156487  1  0.127938  0  0.10347  0.1185  0  1.028977  0
H  H16  1  0.97124020  0.08204680  0.93241640  1  0.152534  0  0.107589  0.121816  0  1.041807  0
H  H17  1  0.02875946  0.91795327  0.06758252  1  0.152508  0  0.107573  0.121805  0  1.041789  0
H  H18  1  0.26122896  0.78638798  0.50215330  1  0.48516  0  0.292683  0.262  0  1.00614  0
H  H19  1  0.73877070  0.21361209  0.49784715  1  0.485257  0  0.292676  0.261962  0  1.006189  0
H  H20  1  0.73348608  0.08627703  0.72359082  1  0.112044  0  0.091641  0.108051  0  1.062981  0
H  H21  1  0.26651715  0.91372304  0.27640809  1  0.112  0  0.091639  0.108042  0  1.062988  0
H  H22  1  0.96211372  0.96585332  0.75023021  1  0.082933  0  0.103379  0.113469  0  1.02339  0
H  H23  1  0.03788713  0.03414675  0.24977151  1  0.082948  0  0.103373  0.11349  0  1.023384  0
H  H24  1  0.64068924  0.73065339  0.00264001  1  0.102554  0  0.104927  0.114076  0  1.027496  0
H  H25  1  0.35930924  0.26934583  0.99736008  1  0.102568  0  0.104933  0.114078  0  1.027509  0
H  H26  1  0.41174610  0.85069114  0.97536552  1  0.096754  0  0.105581  0.121407  0  1.01652  0
H  H27  1  0.58825476  0.14930808  0.02463253  1  0.096727  0  0.105572  0.121386  0  1.016536  0
H  H28  1  0.22649897  0.73756552  0.92992126  1  0.109299  0  0.111561  0.118114  0  1.037726  0
H  H29  1  0.77350190  0.26243370  0.07007755  1  0.109282  0  0.111557  0.118106  0  1.037725  0
H  H30  1  0.47879483  0.63177016  0.91954785  1  0.093992  0  0.116345  0.085527  0  1.001072  0
H  H31  1  0.52120483  0.36822991  0.08045106  1  0.093989  0  0.116339  0.085495  0  1.001086  0
H  H32  1  0.33326955  0.36950455  0.81556246  1  0.092144  0  0.103392  0.07406  0  1.028949  0
H  H33  1  0.66673012  0.63049467  0.18443814  1  0.092145  0  0.103342  0.073963  0  1.028984  0
H  H34  1  0.06653216  0.46240482  0.82611292  1  0.108122  0  0.107833  0.119688  0  1.017181  0
H  H35  1  0.93346752  0.53759440  0.17388768  1  0.108191  0  0.107829  0.119673  0  1.017194  0
H  H36  1  0.79860483  0.69582920  0.67635882  1  0.106675  0  0.110974  0.092088  0  1.006359  0
H  H37  1  0.20139252  0.30416749  0.32364277  1  0.106739  0  0.110941  0.092029  0  1.006402  0
H  H38  1  0.53086073  0.48992495  0.58683843  1  0.10443  0  0.104263  0.080693  0  1.032588  0
H  H39  1  0.46913654  0.51007596  0.41316007  1  0.104448  0  0.104266  0.080705  0  1.032588  0
H  H40  1  0.33659843  0.64261011  0.56179517  1  0.137535  0  0.089459  0.11034  0  1.086925  0
H  H41  1  0.66340003  0.35739080  0.43820384  1  0.137547  0  0.089452  0.11036  0  1.086957  0
H  H42  1  0.61058937  0.86066191  0.65816200  1  0.116004  0  0.111369  0.123292  0  1.014435  0
H  H43  1  0.38940914  0.13933647  0.34184131  1  0.115989  0  0.111367  0.123277  0  1.014437  0
H  H44  1  0.20152615  0.07501388  0.56285696  1  0.106413  0  0.0994  0.109406  0  1.069348  0
H  H45  1  0.79847113  0.92498619  0.43714553  1  0.105737  0  0.099381  0.109407  0  1.06934  0
H  H46  1  0.01982355  0.80135680  0.47412032  1  0.082191  0  0.092132  0.100067  0  1.05405  0
H  H47  1  0.98017611  0.19864327  0.52588166  1  0.082419  0  0.092134  0.100068  0  1.05403  0
C  C48  1  0.94190377  0.22272211  0.80913518  1  0.509646  0  0.0477  0.101788  0  3.920016  0
C  C49  1  0.05809588  0.77727880  0.19086587  1  0.509881  0  0.047682  0.101774  0  3.919963  0
C  C50  1  0.16131144  0.28007766  0.65880508  1  0.448239  0  0.044921  0.095162  0  3.931917  0
C  C51  1  0.83868700  0.71992409  0.34119530  1  0.448208  0  0.044906  0.095128  0  3.931912  0
C  C52  1  0.25599532  0.19527125  0.69746583  1  -0.01677  0  -0.077611  -0.142907  0  3.935299  0
C  C53  1  0.74400431  0.80473051  0.30253430  1  -0.016726  0  -0.077598  -0.142871  0  3.935266  0
C  C54  1  0.18913481  0.12190959  0.79757035  1  -0.067773  0  0.00877  0.018708  0  3.950555  0
C  C55  1  0.81086599  0.87809301  0.20242784  1  -0.0678  0  0.008765  0.018659  0  3.950606  0
C  C56  1  0.02879391  0.13666048  0.85414515  1  -0.042284  0  -0.076674  -0.146169  0  3.93747  0
C  C57  1  0.97120694  0.86333959  0.14585350  1  -0.042288  0  -0.076639  -0.146134  0  3.937409  0
C  C58  1  0.28064807  0.02580877  0.84422480  1  1.424411  0  0.249646  0.489381  0  4.096957  0
C  C59  1  0.71935398  0.97419045  0.15577146  1  1.424285  0  0.249594  0.489351  0  4.097013  0
C  C60  1  0.55774893  0.97516945  0.84606716  1  0.354783  0  0.096072  0.238783  0  4.010761  0
C  C61  1  0.44225193  0.02482977  0.15393166  1  0.354846  0  0.096071  0.238782  0  4.010718  0
C  C62  1  0.71383693  0.00807950  0.78458166  1  -0.023661  0  -0.096585  -0.168384  0  3.972091  0
C  C63  1  0.28616631  0.99191973  0.21541818  1  -0.023624  0  -0.096522  -0.168268  0  3.971926  0
C  C64  1  0.84164313  0.94122120  0.80031797  1  -0.041868  0  -0.093103  -0.153509  0  3.989074  0
C  C65  1  0.15835770  0.05877971  0.19968282  1  -0.041875  0  -0.093158  -0.153696  0  3.989057  0
C  C66  1  0.81635038  0.84041122  0.87789581  1  0.334457  0  0.083628  0.219887  0  4.031783  0
C  C67  1  0.18365171  0.15958631  0.12210613  1  0.334451  0  0.083605  0.219952  0  4.031635  0
C  C68  1  0.66112312  0.80818953  0.94106722  1  -0.049928  0  -0.092305  -0.156695  0  3.983983  0
C  C69  1  0.33887774  0.19180969  0.05893313  1  -0.049899  0  -0.092259  -0.156654  0  3.983802  0
C  C70  1  0.53197467  0.87512476  0.92564482  1  -0.023342  0  -0.093082  -0.161884  0  3.957217  0
C  C71  1  0.46802857  0.12487447  0.07435349  1  -0.023486  0  -0.093089  -0.161893  0  3.957115  0
C  C72  1  0.96509655  0.66198908  0.88353090  1  1.411644  0  0.246959  0.480595  0  4.109335  0
C  C73  1  0.03490430  0.33801099  0.11646929  1  1.411518  0  0.246942  0.480565  0  4.109482  0
C  C74  1  0.12350380  0.60717183  0.87955712  1  -0.022611  0  0.002981  0.010132  0  3.967075  0
C  C75  1  0.87649705  0.39282824  0.12044231  1  -0.022606  0  0.003009  0.010175  0  3.967049  0
C  C76  1  0.24167801  0.65561079  0.90531591  1  -0.059042  0  -0.078762  -0.149656  0  3.924136  0
C  C77  1  0.75832285  0.34438843  0.09468367  1  -0.05904  0  -0.078768  -0.149684  0  3.924216  0
C  C78  1  0.38452594  0.59663174  0.89938863  1  0.540522  0  0.051701  0.10631  0  3.943074  0
C  C79  1  0.61547491  0.40336833  0.10061155  1  0.540638  0  0.051725  0.106378  0  3.943145  0
C  C80  1  0.30212513  0.45002415  0.84298210  1  0.495627  0  0.043838  0.088788  0  3.9641  0
C  C81  1  0.69787455  0.54997508  0.15701850  1  0.495718  0  0.043854  0.088839  0  3.964081  0
C  C82  1  0.15517213  0.50176164  0.84799222  1  -0.060845  0  -0.080347  -0.138342  0  3.933815  0
C  C83  1  0.84482753  0.49823842  0.15200822  1  -0.060918  0  -0.080337  -0.138294  0  3.933789  0
C  C84  1  0.69506877  0.68913838  0.65031764  1  0.475577  0  0.044838  0.090843  0  3.936916  0
C  C85  1  0.30492972  0.31086084  0.34968321  1  0.47548  0  0.044881  0.090911  0  3.936956  0
C  C86  1  0.54628661  0.57464774  0.59850268  1  0.475296  0  0.039489  0.088425  0  3.956661  0
C  C87  1  0.45371186  0.42535233  0.40149648  1  0.475145  0  0.039463  0.088392  0  3.956646  0
C  C88  1  0.43838337  0.66146114  0.58463060  1  -0.05878  0  -0.086116  -0.154667  0  3.946453  0
C  C89  1  0.56161628  0.33853977  0.41536968  1  -0.058706  0  -0.086051  -0.154638  0  3.946407  0
C  C90  1  0.46195914  0.76742545  0.60399001  1  -0.056785  0  0.005262  0.018757  0  3.943734  0
C  C91  1  0.53804052  0.23257462  0.39601043  1  -0.056824  0  0.005241  0.018729  0  3.943678  0
C  C92  1  0.59168121  0.78012964  0.63955180  1  0.026573  0  -0.072824  -0.132657  0  3.916644  0
C  C93  1  0.40831729  0.21986873  0.36044921  1  0.026596  0  -0.072835  -0.132644  0  3.916648  0
C  C94  1  0.35263360  0.86726910  0.59228863  1  1.402162  0  0.239527  0.471219  0  4.101818  0
C  C95  1  0.64736605  0.13273181  0.40771165  1  1.402181  0  0.23949  0.47122  0  4.10198  0
C  C96  1  0.12589522  0.93037195  0.52001399  1  0.300694  0  0.091414  0.233631  0  4.017398  0
C  C97  1  0.87410205  0.06962896  0.47998757  1  0.301073  0  0.091469  0.233692  0  4.017422  0
C  C98  1  0.11319890  0.04259791  0.53564389  1  0.021708  0  -0.099174  -0.167955  0  3.985251  0
C  C99  1  0.88679957  0.95740216  0.46435911  1  0.022043  0  -0.099183  -0.168002  0  3.985315  0
C  C100  1  0.01144119  0.88905545  0.48437501  1  -0.028058  0  -0.096148  -0.16282  0  3.977521  0
C  C101  1  0.98855728  0.11094462  0.51562722  1  -0.028261  0  -0.096194  -0.162874  0  3.977515  0
N  N102  1  0.00674369  0.29329290  0.71311627  1  -1.230321  0  -0.329085  -0.232044  0  3.509205  0
N  N103  1  0.99325713  0.70670886  0.28688360  1  -1.230297  0  -0.32908  -0.232023  0  3.50918  0
N  N104  1  0.43626277  0.04779193  0.82316808  1  -1.258866  0  -0.385114  -0.355291  0  3.595099  0
N  N105  1  0.56373926  0.95220813  0.17683032  1  -1.258782  0  -0.385072  -0.355222  0  3.595046  0
N  N106  1  0.95139681  0.77390425  0.88811462  1  -1.259584  0  -0.394608  -0.377095  0  3.561799  0
N  N107  1  0.04860402  0.22609666  0.11188618  1  -1.259558  0  -0.394599  -0.377096  0  3.561826  0
N  N108  1  0.41528834  0.49595099  0.86885725  1  -1.215457  0  -0.304584  -0.234429  0  3.393841  0
N  N109  1  0.58471134  0.50404823  0.13114335  1  -1.215723  0  -0.304607  -0.234476  0  3.393865  0
N  N110  1  0.67353650  0.58837148  0.62897349  1  -1.225483  0  -0.333673  -0.24331  0  3.553112  0
N  N111  1  0.32645961  0.41162774  0.37102711  1  -1.225347  0  -0.333681  -0.243316  0  3.553112  0
N  N112  1  0.24860633  0.85611830  0.53730875  1  -1.273208  0  -0.396586  -0.363513  0  3.595551  0
N  N113  1  0.75139331  0.14388261  0.46269230  1  -1.273347  0  -0.396544  -0.36344  0  3.595744  0
Cl  Cl114  1  0.92113056  0.42202339  0.42850339  1  -0.659499  0  -0.305707  -0.521591  0  1.247339  0
Cl  Cl115  1  0.07886910  0.57797668  0.57149628  1  -0.659529  0  -0.305705  -0.521581  0  1.247315  0
Cl  Cl116  1  0.62123432  0.28515089  0.67526483  1  -0.702686  0  -0.31762  -0.549566  0  1.119949  0
Cl  Cl117  1  0.37876653  0.71484917  0.32473459  1  -0.702724  0  -0.317625  -0.549566  0  1.119917  0
O  O118  1  0.21359279  0.93576026  0.89831769  1  -1.165739  0  -0.293116  -0.5022  0  2.157036  0
O  O119  1  0.78641166  0.06423728  0.10167455  1  -1.165662  0  -0.293125  -0.502201  0  2.156977  0
O  O120  1  0.72796426  0.43164192  0.83712653  1  -1.284915  0  -0.597559  -0.761311  0  2.157657  0
O  O121  1  0.27203541  0.56835730  0.16287407  1  -1.284953  0  -0.597566  -0.761325  0  2.157665  0
O  O122  1  0.85260433  0.60818039  0.88128164  1  -1.162063  0  -0.285387  -0.498694  0  2.233228  0
O  O123  1  0.14739652  0.39181967  0.11871854  1  -1.161948  0  -0.285355  -0.498668  0  2.233279  0
O  O124  1  0.35857484  0.95088197  0.63214604  1  -1.13828  0  -0.291537  -0.475403  0  2.143975  0
O  O125  1  0.64142716  0.04911979  0.36785281  1  -1.13826  0  -0.29154  -0.475428  0  2.144007  0
