# generated using pymatgen
data_ZnH7C10NO3
_symmetry_space_group_name_H-M   'P 1'
_cell_length_a   5.11449956
_cell_length_b   10.77499239
_cell_length_c   17.63959110
_cell_angle_alpha   90.00003266
_cell_angle_beta   89.99997856
_cell_angle_gamma   90.00003866
_symmetry_Int_Tables_number   1
_chemical_formula_structural   ZnH7C10NO3
_chemical_formula_sum   'Zn4 H28 C40 N4 O12'
_cell_volume   972.09482515
_cell_formula_units_Z   4
loop_
 _symmetry_equiv_pos_site_id
 _symmetry_equiv_pos_as_xyz
  1  'x, y, z'
loop_
 _atom_site_type_symbol
 _atom_site_label
 _atom_site_symmetry_multiplicity
 _atom_site_fract_x
 _atom_site_fract_y
 _atom_site_fract_z
 _atom_site_occupancy
 _atom_site_hle17_bader_spin_density
 _atom_site_hle17_ddec_charge
 _atom_site_hle17_ddec_spin_density
 _atom_site_hle17_ddec_sum_bond_order
 _atom_site_hle17_magmom
 _atom_site_hse06_10hf_bader_spin_density
 _atom_site_hse06_10hf_ddec_charge
 _atom_site_hse06_10hf_ddec_spin_density
 _atom_site_hse06_10hf_ddec_sum_bond_order
 _atom_site_hse06_10hf_magmom
 _atom_site_hse06_bader_spin_density
 _atom_site_hse06_ddec_charge
 _atom_site_hse06_ddec_spin_density
 _atom_site_hse06_ddec_sum_bond_order
 _atom_site_hse06_magmom
 _atom_site_pbe_bader_spin_density
 _atom_site_pbe_cm5_charge
 _atom_site_pbe_ddec_charge
 _atom_site_pbe_ddec_spin_density
 _atom_site_pbe_ddec_sum_bond_order
 _atom_site_pbe_magmom
Zn  Zn0  1  0.42121202  0.10119945  0.51602613  1  0  1.110732  0  1.881384  0  0  0.934492  0  2.366724  0  0  0.979352  0  2.306022  0  0  0.657994  0.903191  0  2.408441  0
Zn  Zn1  1  0.92121265  0.89880008  0.48397391  1  0  1.11077  0  1.881352  0  0  0.934531  0  2.366693  0  0  0.979395  0  2.305991  0  0  0.658007  0.90323  0  2.408405  0
Zn  Zn2  1  0.42121207  0.60120002  0.98397414  1  0  1.1107  0  1.881423  0  0  0.934434  0  2.366776  0  0  0.979302  0  2.306067  0  0  0.657963  0.903143  0  2.408493  0
Zn  Zn3  1  0.92121259  0.39880044  0.01602590  1  0  1.110716  0  1.8814  0  0  0.934467  0  2.366744  0  0  0.979333  0  2.306039  0  0  0.657987  0.90317  0  2.408475  0
H  H4  1  0.38781739  0.91064313  0.43133553  1  0  0.415055  0  0.891835  0  0  0.385831  0  0.953727  0  0  0.395771  0  0.939259  0  0  0.275556  0.378825  0  0.96389  0
H  H5  1  0.88781677  0.08935824  0.56866451  1  0  0.415045  0  0.891845  0  0  0.385818  0  0.953742  0  0  0.395755  0  0.939278  0  0  0.275542  0.378815  0  0.9639  0
H  H6  1  0.38781532  0.41064261  0.06866491  1  0  0.415066  0  0.891812  0  0  0.385837  0  0.953709  0  0  0.395776  0  0.939241  0  0  0.275553  0.378836  0  0.963863  0
H  H7  1  0.88781689  0.58935691  0.93133514  1  0  0.415049  0  0.89184  0  0  0.385819  0  0.953742  0  0  0.395758  0  0.939275  0  0  0.27554  0.378814  0  0.963904  0
H  H8  1  0.95045425  0.05184182  0.71867478  1  0  0.108366  0  0.947464  0  0  0.117558  0  1.010458  0  0  0.120617  0  1.008915  0  0  0.108427  0.115355  0  1.011567  0
H  H9  1  0.45045317  0.94815957  0.28132526  1  0  0.108408  0  0.947483  0  0  0.117604  0  1.010455  0  0  0.120662  0  1.008914  0  0  0.108455  0.115404  0  1.011557  0
H  H10  1  0.95045261  0.55184035  0.78132541  1  0  0.108394  0  0.947489  0  0  0.117589  0  1.010464  0  0  0.120647  0  1.008923  0  0  0.10845  0.115387  0  1.011567  0
H  H11  1  0.45045285  0.44816012  0.21867462  1  0  0.108383  0  0.947469  0  0  0.11758  0  1.010444  0  0  0.120639  0  1.008903  0  0  0.10845  0.115382  0  1.011548  0
H  H12  1  0.41384085  0.37511252  0.76549568  1  0  0.098194  0  0.947603  0  0  0.108844  0  1.007766  0  0  0.112017  0  1.005607  0  0  0.106104  0.106517  0  1.009313  0
H  H13  1  0.91383946  0.62488886  0.23450436  1  0  0.098206  0  0.94762  0  0  0.108864  0  1.007776  0  0  0.112038  0  1.005618  0  0  0.106124  0.106537  0  1.009323  0
H  H14  1  0.41383927  0.87511100  0.73450468  1  0  0.098189  0  0.947634  0  0  0.108823  0  1.007815  0  0  0.111992  0  1.00566  0  0  0.106104  0.106498  0  1.009359  0
H  H15  1  0.91383908  0.12488853  0.26549479  1  0  0.098191  0  0.947635  0  0  0.10882  0  1.00782  0  0  0.111992  0  1.005664  0  0  0.106097  0.106498  0  1.009359  0
H  H16  1  0.21124227  0.39625502  0.89243061  1  0  0.114212  0  0.981788  0  0  0.122086  0  1.048946  0  0  0.126154  0  1.045637  0  0  0.106163  0.119066  0  1.05152  0
H  H17  1  0.71124297  0.60374537  0.10757002  1  0  0.11423  0  0.981761  0  0  0.122102  0  1.048922  0  0  0.126169  0  1.045612  0  0  0.106157  0.119082  0  1.0515  0
H  H18  1  0.21124281  0.89625431  0.60756978  1  0  0.114224  0  0.981765  0  0  0.122096  0  1.04893  0  0  0.126159  0  1.045622  0  0  0.106157  0.119073  0  1.051507  0
H  H19  1  0.71124438  0.10374515  0.39243028  1  0  0.11422  0  0.981763  0  0  0.122094  0  1.048924  0  0  0.12616  0  1.045615  0  0  0.106154  0.119076  0  1.051498  0
H  H20  1  0.57111367  0.18553991  0.02484015  1  0  0.086373  0  0.926718  0  0  0.097065  0  0.985328  0  0  0.099671  0  0.982502  0  0  0.12338  0.0951  0  0.987437  0
H  H21  1  0.07111346  0.81445858  0.97515993  1  0  0.086364  0  0.926712  0  0  0.097053  0  0.985328  0  0  0.099659  0  0.982503  0  0  0.123379  0.09509  0  0.987437  0
H  H22  1  0.57111373  0.68553954  0.47515963  1  0  0.086364  0  0.926722  0  0  0.097055  0  0.985333  0  0  0.09966  0  0.982508  0  0  0.123374  0.095092  0  0.98744  0
H  H23  1  0.07111144  0.31445895  0.52483988  1  0  0.086346  0  0.926751  0  0  0.097052  0  0.98535  0  0  0.099657  0  0.982528  0  0  0.123385  0.095092  0  0.987453  0
H  H24  1  0.44816516  0.99839101  0.94771770  1  0  0.106142  0  0.964253  0  0  0.115045  0  1.025294  0  0  0.117748  0  1.026123  0  0  0.105469  0.113131  0  1.024868  0
H  H25  1  0.94816703  0.00160853  0.05228177  1  0  0.106164  0  0.964246  0  0  0.115067  0  1.025278  0  0  0.117767  0  1.026109  0  0  0.105483  0.113156  0  1.024848  0
H  H26  1  0.44816506  0.49839140  0.55228214  1  0  0.106142  0  0.964259  0  0  0.115047  0  1.025294  0  0  0.117748  0  1.026125  0  0  0.105474  0.113137  0  1.024867  0
H  H27  1  0.94816517  0.50160721  0.44771790  1  0  0.106149  0  0.964234  0  0  0.115044  0  1.025281  0  0  0.117746  0  1.02611  0  0  0.105496  0.113135  0  1.024851  0
H  H28  1  0.65497724  0.96583504  0.82242112  1  0  0.112639  0  0.956202  0  0  0.12242  0  1.017685  0  0  0.12618  0  1.013675  0  0  0.110876  0.119651  0  1.020542  0
H  H29  1  0.15497499  0.03416533  0.17757838  1  0  0.112645  0  0.95618  0  0  0.12243  0  1.017661  0  0  0.126189  0  1.013654  0  0  0.110884  0.119663  0  1.020511  0
H  H30  1  0.65497502  0.46583462  0.67757811  1  0  0.112646  0  0.956182  0  0  0.122426  0  1.017666  0  0  0.126185  0  1.013656  0  0  0.110885  0.119659  0  1.020522  0
H  H31  1  0.15497526  0.53416482  0.32242196  1  0  0.112647  0  0.956191  0  0  0.122427  0  1.017676  0  0  0.126185  0  1.013669  0  0  0.110882  0.11966  0  1.020531  0
C  C32  1  0.00678815  0.12676054  0.75682992  1  0  -0.080519  0  3.678074  0  0  -0.114768  0  3.925087  0  0  -0.11277  0  3.944782  0  0  -0.070916  -0.115746  0  3.911778  0
C  C33  1  0.50678710  0.87323979  0.24317016  1  0  -0.080585  0  3.67821  0  0  -0.114871  0  3.925193  0  0  -0.112872  0  3.944885  0  0  -0.07095  -0.115844  0  3.911878  0
C  C34  1  0.00678656  0.62675995  0.74317040  1  0  -0.080567  0  3.678161  0  0  -0.114834  0  3.92517  0  0  -0.112836  0  3.944864  0  0  -0.070939  -0.115805  0  3.911853  0
C  C35  1  0.50678673  0.37323944  0.25683025  1  0  -0.080533  0  3.67813  0  0  -0.114787  0  3.925139  0  0  -0.112789  0  3.944832  0  0  -0.070914  -0.11576  0  3.911826  0
C  C36  1  0.19021184  0.21319124  0.73387021  1  0  -0.06002  0  3.756089  0  0  -0.036211  0  3.989902  0  0  -0.04612  0  4.014865  0  0  -0.015143  -0.0301  0  3.973265  0
C  C37  1  0.69020868  0.78681007  0.26612985  1  0  -0.059982  0  3.756115  0  0  -0.036141  0  3.989896  0  0  -0.046048  0  4.014857  0  0  -0.015136  -0.030037  0  3.973271  0
C  C38  1  0.19020826  0.71319068  0.76613012  1  0  -0.059992  0  3.756123  0  0  -0.036156  0  3.989906  0  0  -0.046062  0  4.014867  0  0  -0.015133  -0.030051  0  3.973275  0
C  C39  1  0.69020834  0.28680877  0.23386995  1  0  -0.060008  0  3.756159  0  0  -0.036171  0  3.989944  0  0  -0.046077  0  4.014904  0  0  -0.015143  -0.030059  0  3.973307  0
C  C40  1  0.26522997  0.30954494  0.78415767  1  0  -0.039406  0  3.728849  0  0  -0.065022  0  3.978309  0  0  -0.064066  0  4.000242  0  0  -0.074419  -0.065229  0  3.963234  0
C  C41  1  0.76522869  0.69045640  0.21584352  1  0  -0.039409  0  3.728823  0  0  -0.065044  0  3.978277  0  0  -0.06409  0  4.000211  0  0  -0.074426  -0.06525  0  3.963206  0
C  C42  1  0.26522841  0.80954341  0.71584325  1  0  -0.039389  0  3.728861  0  0  -0.065006  0  3.978323  0  0  -0.064048  0  4.000253  0  0  -0.074417  -0.065216  0  3.963249  0
C  C43  1  0.76522634  0.19045515  0.28415681  1  0  -0.039392  0  3.728837  0  0  -0.065001  0  3.978292  0  0  -0.064044  0  4.000223  0  0  -0.074399  -0.065212  0  3.963217  0
C  C44  1  0.15281424  0.32129995  0.85465705  1  0  -0.157572  0  3.725177  0  0  -0.176639  0  3.978176  0  0  -0.183291  0  3.999462  0  0  -0.089497  -0.172245  0  3.963801  0
C  C45  1  0.65281499  0.67869949  0.14534302  1  0  -0.1576  0  3.725064  0  0  -0.176676  0  3.978067  0  0  -0.183328  0  3.999354  0  0  -0.089487  -0.172277  0  3.963694  0
C  C46  1  0.15281473  0.82129928  0.64534333  1  0  -0.15756  0  3.725144  0  0  -0.176635  0  3.978136  0  0  -0.183283  0  3.999421  0  0  -0.089479  -0.172228  0  3.963754  0
C  C47  1  0.65281450  0.17870016  0.35465731  1  0  -0.157563  0  3.725088  0  0  -0.176626  0  3.978079  0  0  -0.183277  0  3.999365  0  0  -0.089475  -0.172229  0  3.963707  0
C  C48  1  0.66180814  0.16811390  0.96984050  1  0  0.155309  0  3.699745  0  0  0.118513  0  3.958621  0  0  0.129988  0  3.97256  0  0  0.062002  0.111093  0  3.949044  0
C  C49  1  0.16180917  0.83188740  0.03015957  1  0  0.155327  0  3.699833  0  0  0.118523  0  3.958704  0  0  0.129997  0  3.972642  0  0  0.061987  0.111108  0  3.949128  0
C  C50  1  0.66180878  0.66811405  0.53015920  1  0  0.155301  0  3.699798  0  0  0.118506  0  3.958665  0  0  0.12998  0  3.972605  0  0  0.061995  0.111086  0  3.949088  0
C  C51  1  0.16180853  0.33188633  0.46984031  1  0  0.155269  0  3.699863  0  0  0.118456  0  3.958749  0  0  0.129928  0  3.97269  0  0  0.061964  0.111034  0  3.94917  0
C  C52  1  0.59068090  0.06436252  0.92605773  1  0  -0.129278  0  3.738562  0  0  -0.140349  0  3.993181  0  0  -0.149585  0  4.014765  0  0  -0.087584  -0.134461  0  3.978641  0
C  C53  1  0.09068007  0.93563598  0.07394235  1  0  -0.129346  0  3.738651  0  0  -0.140414  0  3.993281  0  0  -0.149647  0  4.014863  0  0  -0.087602  -0.134525  0  3.978738  0
C  C54  1  0.59067952  0.56436271  0.57394251  1  0  -0.12934  0  3.738616  0  0  -0.140416  0  3.993236  0  0  -0.14965  0  4.014818  0  0  -0.087636  -0.134529  0  3.978703  0
C  C55  1  0.09067949  0.43563672  0.42605757  1  0  -0.129248  0  3.738578  0  0  -0.140302  0  3.993184  0  0  -0.149536  0  4.014767  0  0  -0.087585  -0.134416  0  3.978649  0
C  C56  1  0.70505967  0.04739080  0.85603172  1  0  -0.01948  0  3.6599  0  0  -0.046262  0  3.903823  0  0  -0.041061  0  3.920108  0  0  -0.053399  -0.04932  0  3.892746  0
C  C57  1  0.20505681  0.95260959  0.14396778  1  0  -0.019414  0  3.659791  0  0  -0.046225  0  3.903682  0  0  -0.041024  0  3.919964  0  0  -0.053376  -0.049284  0  3.892603  0
C  C58  1  0.70505820  0.54739013  0.64396793  1  0  -0.019396  0  3.65986  0  0  -0.046178  0  3.903765  0  0  -0.040977  0  3.920049  0  0  -0.053347  -0.04924  0  3.892695  0
C  C59  1  0.20506023  0.45260933  0.35603156  1  0  -0.019498  0  3.659878  0  0  -0.046284  0  3.903794  0  0  -0.041084  0  3.920078  0  0  -0.053409  -0.049343  0  3.892722  0
C  C60  1  0.88985789  0.13479320  0.82944494  1  0  0.007883  0  3.789972  0  0  0.028814  0  4.018439  0  0  0.02294  0  4.044149  0  0  -0.002082  0.032341  0  4.001171  0
C  C61  1  0.38985683  0.86520632  0.17055510  1  0  0.007822  0  3.790025  0  0  0.028829  0  4.018375  0  0  0.022956  0  4.044083  0  0  -0.002076  0.032363  0  4.001103  0
C  C62  1  0.88985834  0.63479255  0.67055472  1  0  0.007872  0  3.78998  0  0  0.028808  0  4.018422  0  0  0.022935  0  4.044131  0  0  -0.002075  0.03234  0  4.001152  0
C  C63  1  0.38985833  0.36520697  0.32944532  1  0  0.007873  0  3.789995  0  0  0.028799  0  4.018471  0  0  0.022927  0  4.044181  0  0  -0.002094  0.032324  0  4.001214  0
C  C64  1  0.95986282  0.23559609  0.87840244  1  0  0.209471  0  3.764232  0  0  0.206215  0  3.994593  0  0  0.213284  0  4.018363  0  0  0.114233  0.201668  0  3.978422  0
C  C65  1  0.45986168  0.76440438  0.12159760  1  0  0.209481  0  3.764213  0  0  0.206222  0  3.994515  0  0  0.21329  0  4.018284  0  0  0.114226  0.201673  0  3.978353  0
C  C66  1  0.95986139  0.73559539  0.62159725  1  0  0.209426  0  3.764267  0  0  0.206197  0  3.99458  0  0  0.213265  0  4.018352  0  0  0.114222  0.201641  0  3.978415  0
C  C67  1  0.45986312  0.26440415  0.37840222  1  0  0.209432  0  3.764191  0  0  0.206179  0  3.994552  0  0  0.213248  0  4.018322  0  0  0.114213  0.201625  0  3.978392  0
C  C68  1  0.31414581  0.20651837  0.65677148  1  0  0.634605  0  3.931163  0  0  0.586484  0  4.220593  0  0  0.620022  0  4.21425  0  0  0.202032  0.56383  0  4.22412  0
C  C69  1  0.81414451  0.79348299  0.34322857  1  0  0.634639  0  3.931097  0  0  0.586499  0  4.220536  0  0  0.620041  0  4.214189  0  0  0.202027  0.563836  0  4.224077  0
C  C70  1  0.31414604  0.70651881  0.84322884  1  0  0.634626  0  3.931139  0  0  0.586491  0  4.220578  0  0  0.620031  0  4.21423  0  0  0.20201  0.563835  0  4.224109  0
C  C71  1  0.81414428  0.29348069  0.15677121  1  0  0.634565  0  3.931162  0  0  0.586432  0  4.220606  0  0  0.619972  0  4.214257  0  0  0.201974  0.563768  0  4.224141  0
N  N72  1  0.84193336  0.24974182  0.94779181  1  0  -0.38579  0  3.285737  0  0  -0.305433  0  3.565565  0  0  -0.325717  0  3.577003  0  0  -0.324534  -0.291909  0  3.557719  0
N  N73  1  0.34193425  0.75025769  0.05220881  1  0  -0.385801  0  3.285788  0  0  -0.305427  0  3.565589  0  0  -0.325712  0  3.577027  0  0  -0.324545  -0.291918  0  3.557761  0
N  N74  1  0.84193397  0.74974106  0.55220846  1  0  -0.385782  0  3.285829  0  0  -0.305421  0  3.56562  0  0  -0.325707  0  3.577063  0  0  -0.324529  -0.291896  0  3.557773  0
N  N75  1  0.34193168  0.25025844  0.44779158  1  0  -0.385744  0  3.28576  0  0  -0.305392  0  3.565595  0  0  -0.325677  0  3.577036  0  0  -0.324519  -0.291859  0  3.557742  0
O  O76  1  0.50126290  0.27565347  0.64015658  1  0  -0.604404  0  1.905316  0  0  -0.563354  0  2.126157  0  0  -0.585983  0  2.118255  0  0  -0.318713  -0.547606  0  2.131008  0
O  O77  1  0.00125945  0.72435056  0.35984350  1  0  -0.604399  0  1.905388  0  0  -0.563351  0  2.126246  0  0  -0.585978  0  2.118341  0  0  -0.31871  -0.547596  0  2.131097  0
O  O78  1  0.50125921  0.77565207  0.85984317  1  0  -0.604392  0  1.905404  0  0  -0.563344  0  2.126254  0  0  -0.585968  0  2.118347  0  0  -0.318694  -0.547593  0  2.131105  0
O  O79  1  0.00125728  0.22434732  0.14015635  1  0  -0.604382  0  1.905374  0  0  -0.563345  0  2.126246  0  0  -0.585971  0  2.11834  0  0  -0.318693  -0.547591  0  2.131097  0
O  O80  1  0.21327374  0.12471966  0.61063945  1  0  -0.68399  0  2.103262  0  0  -0.597119  0  2.363766  0  0  -0.626824  0  2.348358  0  0  -0.328351  -0.576326  0  2.373602  0
O  O81  1  0.71327250  0.87528258  0.38936061  1  0  -0.68403  0  2.103162  0  0  -0.597156  0  2.363686  0  0  -0.626876  0  2.348294  0  0  -0.328339  -0.576358  0  2.373523  0
O  O82  1  0.21327196  0.62471922  0.88936142  1  0  -0.684022  0  2.103185  0  0  -0.597126  0  2.36367  0  0  -0.626848  0  2.348287  0  0  -0.328334  -0.576336  0  2.373512  0
O  O83  1  0.71327233  0.37528025  0.11063921  1  0  -0.68395  0  2.103141  0  0  -0.597073  0  2.363652  0  0  -0.626791  0  2.348261  0  0  -0.328313  -0.576279  0  2.373496  0
O  O84  1  0.27678992  0.95064409  0.46936024  1  0  -0.998529  0  1.875417  0  0  -0.898224  0  2.180788  0  0  -0.928331  0  2.13864  0  0  -0.607616  -0.876854  0  2.209503  0
O  O85  1  0.77678928  0.04935539  0.53064038  1  0  -0.998525  0  1.8754  0  0  -0.898215  0  2.180757  0  0  -0.928321  0  2.138614  0  0  -0.607609  -0.876848  0  2.209471  0
O  O86  1  0.27678789  0.45064446  0.03063966  1  0  -0.998524  0  1.875411  0  0  -0.898196  0  2.180771  0  0  -0.92831  0  2.138643  0  0  -0.607598  -0.876833  0  2.209487  0
O  O87  1  0.77678936  0.54935595  0.96935983  1  0  -0.998512  0  1.875408  0  0  -0.898193  0  2.180764  0  0  -0.928308  0  2.13864  0  0  -0.607598  -0.876822  0  2.209478  0
