# generated using pymatgen
data_CuH6C6N3Cl2
_symmetry_space_group_name_H-M   'P 1'
_cell_length_a   8.09068279
_cell_length_b   8.62142189
_cell_length_c   14.31261991
_cell_angle_alpha   79.13330838
_cell_angle_beta   73.58822378
_cell_angle_gamma   62.00532195
_symmetry_Int_Tables_number   1
_chemical_formula_structural   CuH6C6N3Cl2
_chemical_formula_sum   'Cu4 H24 C24 N12 Cl8'
_cell_volume   843.77389009
_cell_formula_units_Z   4
loop_
 _symmetry_equiv_pos_site_id
 _symmetry_equiv_pos_as_xyz
  1  'x, y, z'
loop_
 _atom_site_type_symbol
 _atom_site_label
 _atom_site_symmetry_multiplicity
 _atom_site_fract_x
 _atom_site_fract_y
 _atom_site_fract_z
 _atom_site_occupancy
 _atom_site_hle17_ddec_charge
 _atom_site_hle17_ddec_spin_density
 _atom_site_hle17_ddec_sum_bond_order
 _atom_site_hle17_magmom
 _atom_site_hse06_10hf_ddec_charge
 _atom_site_hse06_10hf_ddec_spin_density
 _atom_site_hse06_10hf_ddec_sum_bond_order
 _atom_site_hse06_10hf_magmom
 _atom_site_hse06_ddec_charge
 _atom_site_hse06_ddec_spin_density
 _atom_site_hse06_ddec_sum_bond_order
 _atom_site_hse06_magmom
 _atom_site_pbe_cm5_charge
 _atom_site_pbe_ddec_charge
 _atom_site_pbe_ddec_spin_density
 _atom_site_pbe_ddec_sum_bond_order
 _atom_site_pbe_magmom
Cu  Cu0  1  0.79803600  0.14168827  0.59292308  1  0.692861  0.614787  1.962018  0.421  0.674141  0.72803  2.37232  0.549  0.76949  0.819426  2.295159  0.645  0.577426  0.623281  0.666048  2.419274  0.491
Cu  Cu1  1  0.46736148  0.64180679  0.09294888  1  0.693763  -0.615074  1.962056  -0.421  0.675319  -0.72817  2.372444  -0.549  0.770633  -0.819416  2.295184  -0.644  0.578331  0.62461  -0.666365  2.419382  -0.491
Cu  Cu2  1  0.20197113  0.85831388  0.40707221  1  0.692832  -0.614773  1.962002  -0.421  0.674135  -0.728029  2.372301  -0.549  0.769541  -0.819425  2.295142  -0.645  0.577418  0.623267  -0.666043  2.41927  -0.491
Cu  Cu3  1  0.53264038  0.35819010  0.90705175  1  0.693836  0.615093  1.962086  0.421  0.675354  0.728171  2.372479  0.549  0.770671  0.819414  2.295213  0.644  0.578331  0.624646  0.666364  2.419412  0.491
H  H4  1  0.78391130  0.65604823  0.70208955  1  0.3278  0.00114  0.922057  0.0  0.312143  0.001401  0.98504  0.001  0.319442  0.001081  0.979348  0.001  0.284912  0.307106  0.001606  0.98876  0.001
H  H5  1  0.85795943  0.15615439  0.20221195  1  0.328705  -0.001149  0.920226  0.0  0.312463  -0.001408  0.983904  -0.001  0.319776  -0.001088  0.978204  -0.001  0.285117  0.307417  -0.001614  0.987625  -0.001
H  H6  1  0.21610041  0.34394602  0.29791035  1  0.327788  -0.00114  0.922036  0.0  0.312158  -0.001401  0.985006  -0.001  0.319458  -0.001082  0.979311  -0.001  0.284883  0.307122  -0.001606  0.988737  -0.001
H  H7  1  0.14203590  0.84384118  0.79778816  1  0.328709  0.001149  0.920212  0.0  0.312463  0.001408  0.983911  0.001  0.319777  0.001088  0.978208  0.001  0.285102  0.307409  0.001614  0.987646  0.001
H  H8  1  0.78982201  0.50066493  0.79958211  1  0.326881  -0.002606  0.927011  -0.001  0.306793  -0.001996  0.997958  -0.001  0.314697  -0.001597  0.991397  0.0  0.281945  0.301006  -0.002218  1.002895  -0.001
H  H9  1  0.90989982  0.00064914  0.29966996  1  0.326506  0.002622  0.927591  0.001  0.30651  0.00202  0.998555  0.001  0.314442  0.001618  0.991941  0.0  0.281785  0.300698  0.002236  1.003546  0.001
H  H10  1  0.21018684  0.49932933  0.20041807  1  0.326877  0.002606  0.926911  0.001  0.306807  0.001996  0.997843  0.001  0.314711  0.001597  0.991282  0.0  0.28193  0.301023  0.002219  1.002791  0.001
H  H11  1  0.09010034  0.99934379  0.70032927  1  0.326494  -0.002622  0.927591  -0.001  0.306479  -0.00202  0.998563  -0.001  0.31441  -0.001617  0.991952  0.0  0.281801  0.300665  -0.002236  1.003548  -0.001
H  H12  1  0.75228206  0.31372856  0.38940353  1  0.088004  -5.8e-05  0.974772  0.002  0.093854  -1.3e-05  1.041178  0.001  0.097074  -4.6e-05  1.037872  0.001  0.101738  0.091537  3.1e-05  1.043383  0.002
H  H13  1  0.54482903  0.81397571  0.88949959  1  0.086653  8e-05  0.97659  -0.002  0.093571  3.5e-05  1.041898  -0.001  0.096735  6.3e-05  1.038661  -0.001  0.101535  0.091226  -8e-06  1.044173  -0.002
H  H14  1  0.24774301  0.68627492  0.61058867  1  0.088012  5.9e-05  0.974718  -0.002  0.093882  1.4e-05  1.041205  -0.001  0.097101  4.6e-05  1.037901  -0.001  0.101762  0.091567  -3.1e-05  1.043405  -0.002
H  H15  1  0.45516760  0.18601722  0.11050313  1  0.086679  -8e-05  0.976586  0.002  0.093581  -3.5e-05  1.041909  0.001  0.096756  -6.3e-05  1.038665  0.001  0.101549  0.091245  8e-06  1.04419  0.002
H  H16  1  0.67113283  0.61683290  0.31206507  1  0.109146  0.000285  0.976845  0.0  0.116898  0.000452  1.043018  0.0  0.120444  0.000379  1.041444  0.0  0.096257  0.114188  0.000487  1.044759  0.001
H  H17  1  0.39984031  0.11696174  0.81221852  1  0.10889  -0.000271  0.976383  0.0  0.116268  -0.000438  1.043146  0.0  0.119853  -0.00037  1.041508  0.0  0.096188  0.113599  -0.000469  1.044824  -0.001
H  H18  1  0.32887396  0.38317452  0.68793297  1  0.109152  -0.000287  0.976896  0.0  0.116936  -0.000453  1.043022  0.0  0.120482  -0.000379  1.041448  0.0  0.096287  0.114224  -0.000488  1.044756  -0.001
H  H19  1  0.60015044  0.88303515  0.18778160  1  0.108881  0.000271  0.976327  0.0  0.116278  0.000438  1.043078  0.0  0.119863  0.00037  1.041438  0.0  0.096203  0.113612  0.000469  1.044763  0.001
H  H20  1  0.64317322  0.84871427  0.40999621  1  0.106365  0.00092  0.946279  0.001  0.116622  0.000701  1.003991  0.0  0.120343  0.000527  1.000456  0.0  0.099947  0.113939  0.000822  1.006628  0.0
H  H21  1  0.09791701  0.34878249  0.91011319  1  0.106102  -0.000923  0.945754  -0.001  0.115601  -0.000708  1.004357  0.0  0.119313  -0.000531  1.000833  0.0  0.099717  0.11295  -0.000833  1.006956  0.0
H  H22  1  0.35680788  0.15129314  0.59000932  1  0.106369  -0.000919  0.946334  -0.001  0.116659  -0.000701  1.004005  0.0  0.120387  -0.000527  1.000462  0.0  0.099938  0.113972  -0.000822  1.006639  0.0
H  H23  1  0.90207659  0.65121967  0.08988780  1  0.106132  0.000923  0.94577  0.001  0.115634  0.000708  1.004342  0.0  0.119346  0.000531  1.000819  0.0  0.099717  0.112988  0.000833  1.006937  0.0
H  H24  1  0.71019743  0.76195358  0.57470863  1  0.112993  0.000129  0.989846  0.001  0.121309  0.000391  1.053118  0.001  0.125609  0.000263  1.0501  0.001  0.096067  0.11824  0.000492  1.055264  0.001
H  H25  1  0.95302370  0.26215118  0.07486780  1  0.112891  -0.000126  0.990194  -0.001  0.121538  -0.000386  1.053096  -0.001  0.125768  -0.00026  1.050185  -0.001  0.096152  0.118477  -0.000486  1.055212  -0.001
H  H26  1  0.28978494  0.23805120  0.42529700  1  0.112963  -0.00013  0.989917  -0.001  0.121281  -0.000391  1.053189  -0.001  0.12558  -0.000263  1.050172  -0.001  0.096052  0.118214  -0.000492  1.055336  -0.001
H  H27  1  0.04696988  0.73784438  0.92513531  1  0.112997  0.000126  0.990166  0.001  0.121557  0.000386  1.053138  0.001  0.125778  0.00026  1.050245  0.001  0.096185  0.118541  0.000486  1.055202  0.001
C  C28  1  0.74220434  0.41672279  0.42759724  1  0.148783  -0.008234  3.656717  -0.009  0.120007  -0.002217  3.909761  -0.003  0.129746  -0.003032  3.927679  -0.004  0.047869  0.114098  -0.00155  3.898117  -0.002
C  C29  1  0.41370000  0.91689700  0.92777165  1  0.14921  0.008151  3.659238  0.008  0.119584  0.002185  3.912503  0.003  0.129385  0.003012  3.930477  0.004  0.047741  0.113662  0.0015  3.900843  0.002
C  C30  1  0.25780955  0.58327805  0.57240097  1  0.149013  0.00821  3.65646  0.008  0.120059  0.002217  3.909641  0.003  0.129798  0.003033  3.927563  0.004  0.047899  0.114153  0.001549  3.897988  0.002
C  C31  1  0.58629907  0.08310120  0.07222852  1  0.149277  -0.008161  3.659299  -0.008  0.119625  -0.002183  3.912572  -0.003  0.129415  -0.003013  3.930543  -0.004  0.047744  0.113699  -0.0015  3.90093  -0.002
C  C32  1  0.69774853  0.58710257  0.38529588  1  -0.109344  0.012242  3.708682  0.012  -0.130654  0.006262  3.970317  0.007  -0.13737  0.005275  3.988257  0.006  -0.084527  -0.126949  0.007213  3.959371  0.007
C  C33  1  0.32990331  0.08725861  0.88549952  1  -0.108011  -0.012252  3.706452  -0.012  -0.129267  -0.006258  3.968518  -0.007  -0.136049  -0.00528  3.986438  -0.006  -0.083684  -0.125516  -0.007188  3.957522  -0.007
C  C34  1  0.30226265  0.41290090  0.61470111  1  -0.109509  -0.012212  3.708837  -0.012  -0.130799  -0.006262  3.970525  -0.007  -0.137515  -0.005275  3.988463  -0.006  -0.084613  -0.127088  -0.007213  3.959561  -0.007
C  C35  1  0.67009130  0.91274222  0.11450243  1  -0.107896  0.012264  3.706366  0.012  -0.129176  0.006257  3.968398  0.007  -0.135955  0.00528  3.986318  0.006  -0.083632  -0.125434  0.007188  3.957421  0.007
C  C36  1  0.68369667  0.71285782  0.43899215  1  0.010002  -0.008184  3.697274  -0.008  -0.009368  -0.002505  3.951803  -0.003  -0.004817  -0.002857  3.966285  -0.003  -0.066484  -0.012716  -0.002247  3.942778  -0.002
C  C37  1  0.16442216  0.21298638  0.93917729  1  0.011312  0.008178  3.692353  0.008  -0.007288  0.002507  3.946535  0.003  -0.00273  0.002857  3.961035  0.003  -0.06568  -0.010662  0.002243  3.937522  0.002
C  C38  1  0.31629704  0.28714565  0.56101061  1  0.009906  0.008157  3.697406  0.008  -0.009491  0.002506  3.951929  0.003  -0.004942  0.002857  3.966404  0.003  -0.066493  -0.012838  0.002248  3.942896  0.002
C  C39  1  0.83557538  0.78701577  0.06082364  1  0.011165  -0.008189  3.692513  -0.008  -0.007381  -0.002506  3.946597  -0.003  -0.002823  -0.002857  3.961095  -0.003  -0.065719  -0.010759  -0.002242  3.937601  -0.002
C  C40  1  0.71983450  0.66394920  0.53251137  1  -0.100171  0.008812  3.654543  0.008  -0.122878  0.004807  3.894135  0.005  -0.127645  0.003994  3.911361  0.004  -0.075851  -0.119601  0.00563  3.882486  0.005
C  C41  1  0.08364849  0.16415107  0.03268886  1  -0.101155  -0.008793  3.653677  -0.008  -0.12443  -0.004799  3.892181  -0.005  -0.129103  -0.003994  3.909454  -0.004  -0.076731  -0.121178  -0.005608  3.880513  -0.005
C  C42  1  0.28015969  0.33605691  0.46748830  1  -0.100033  -0.008785  3.654515  -0.008  -0.122724  -0.004808  3.894139  -0.005  -0.127489  -0.003994  3.911366  -0.004  -0.075812  -0.119449  -0.00563  3.882496  -0.005
C  C43  1  0.91634731  0.83584581  0.96731393  1  -0.101347  0.008804  3.653821  0.008  -0.124551  0.004799  3.892334  0.005  -0.129232  0.003993  3.909633  0.004  -0.076823  -0.121338  0.005608  3.880629  0.005
C  C44  1  0.76200617  0.49181764  0.57051861  1  0.124007  -0.004916  3.746004  -0.005  0.131924  -0.000782  3.985229  -0.002  0.137214  -0.0017  4.006051  -0.003  0.117603  0.128289  2.6e-05  3.971908  -0.001
C  C45  1  0.17569746  0.99199053  0.07065382  1  0.123232  0.00489  3.743921  0.005  0.132719  0.00078  3.981068  0.002  0.137882  0.001701  4.002069  0.003  0.117184  0.1292  -3.7e-05  3.96761  0.001
C  C46  1  0.23799817  0.50818451  0.42948198  1  0.12402  0.004893  3.746152  0.005  0.131852  0.000782  3.98546  0.002  0.137143  0.001699  4.006289  0.003  0.117597  0.128212  -2.7e-05  3.972147  0.001
C  C47  1  0.82430154  0.00800636  0.92934709  1  0.123357  -0.004902  3.74376  -0.005  0.132827  -0.000781  3.980886  -0.002  0.137988  -0.001702  4.001886  -0.003  0.117212  0.129312  3.7e-05  3.967426  -0.001
C  C48  1  0.78671281  0.43049651  0.67132084  1  0.426608  0.009135  3.802614  0.007  0.384418  0.011337  4.087134  0.011  0.407407  0.006888  4.100069  0.007  0.251671  0.369234  0.015338  4.077736  0.014
C  C49  1  0.11150271  0.93057351  0.17141598  1  0.425581  -0.009097  3.802384  -0.007  0.383219  -0.011282  4.086591  -0.011  0.406262  -0.006847  4.099522  -0.007  0.251549  0.367974  -0.015289  4.077242  -0.014
C  C50  1  0.21329020  0.56950169  0.32867926  1  0.426525  -0.00913  3.80265  -0.007  0.384366  -0.011338  4.087196  -0.011  0.407355  -0.006889  4.100136  -0.007  0.251659  0.369184  -0.01534  4.077804  -0.014
C  C51  1  0.88849548  0.06942206  0.82858386  1  0.425657  0.009095  3.802313  0.007  0.383249  0.011281  4.086607  0.011  0.406294  0.006846  4.099536  0.007  0.251594  0.368007  0.015287  4.077246  0.014
N  N52  1  0.77004067  0.37108203  0.51864630  1  -0.314065  0.067551  3.355375  0.081  -0.263488  0.055131  3.63888  0.07  -0.295039  0.04801  3.663413  0.065  -0.343812  -0.246234  0.057934  3.625474  0.071
N  N53  1  0.34036229  0.87126608  0.01878532  1  -0.312982  -0.067622  3.355188  -0.081  -0.263364  -0.055155  3.639154  -0.07  -0.294956  -0.048044  3.663754  -0.065  -0.343565  -0.246038  -0.05795  3.625656  -0.071
N  N54  1  0.22997077  0.62892012  0.48134984  1  -0.314143  -0.067535  3.355309  -0.081  -0.263435  -0.055135  3.638831  -0.07  -0.295001  -0.048013  3.66339  -0.065  -0.343796  -0.246182  -0.05794  3.625431  -0.071
N  N55  1  0.65963278  0.12873081  0.98121565  1  -0.313152  0.067629  3.355286  0.081  -0.263466  0.055152  3.639184  0.07  -0.295057  0.048042  3.663789  0.065  -0.343572  -0.246146  0.057945  3.625693  0.071
N  N56  1  0.80019790  0.53095663  0.72598390  1  -0.598983  0.026815  3.148852  0.029  -0.566701  0.01238  3.372849  0.013  -0.591089  0.006508  3.372887  0.007  -0.552103  -0.549104  0.017966  3.371742  0.019
N  N57  1  0.94293253  0.03104112  0.22608434  1  -0.598925  -0.026752  3.148882  -0.029  -0.566326  -0.012401  3.373339  -0.013  -0.590742  -0.006519  3.373317  -0.007  -0.551917  -0.54871  -0.017975  3.372292  -0.019
N  N58  1  0.19980897  0.46904025  0.27401688  1  -0.598898  -0.026823  3.148728  -0.029  -0.566683  -0.012384  3.372687  -0.013  -0.591069  -0.006508  3.372721  -0.007  -0.552021  -0.549088  -0.017966  3.371594  -0.019
N  N59  1  0.05706090  0.96895313  0.77391448  1  -0.598954  0.026746  3.149022  0.029  -0.566304  0.012399  3.373465  0.013  -0.590717  0.006518  3.373442  0.007  -0.551954  -0.548688  0.017976  3.372411  0.019
N  N60  1  0.79388778  0.27190300  0.70089433  1  -0.299936  0.123119  3.259127  0.14  -0.277088  0.070511  3.588727  0.087  -0.315951  0.055534  3.623329  0.073  -0.268492  -0.253636  0.078991  3.567991  0.093
N  N61  1  0.23333182  0.77189689  0.20096195  1  -0.300316  -0.123196  3.257798  -0.14  -0.278376  -0.070529  3.588228  -0.087  -0.31722  -0.055541  3.62269  -0.073  -0.26973  -0.254921  -0.079048  3.567548  -0.093
N  N62  1  0.20611422  0.72809652  0.29910481  1  -0.299915  -0.123147  3.259257  -0.14  -0.277099  -0.070516  3.5889  -0.087  -0.315976  -0.05554  3.623527  -0.073  -0.268517  -0.253652  -0.078992  3.568165  -0.093
N  N63  1  0.76667112  0.22809999  0.79903890  1  -0.300427  0.123179  3.257596  0.14  -0.278465  0.070526  3.588021  0.087  -0.31731  0.055539  3.622481  0.073  -0.269789  -0.255018  0.079049  3.567342  0.093
Cl  Cl64  1  0.71976497  0.94291101  0.69674140  1  -0.517643  0.102362  1.001318  0.113  -0.494329  0.069958  1.276331  0.082  -0.522559  0.056028  1.252432  0.068  -0.296563  -0.478296  0.076319  1.292861  0.086
Cl  Cl65  1  0.64025087  0.44261624  0.19674531  1  -0.517709  -0.10253  1.001776  -0.114  -0.494504  -0.070068  1.276815  -0.082  -0.522748  -0.056114  1.252819  -0.068  -0.296562  -0.478285  -0.076477  1.293251  -0.087
Cl  Cl66  1  0.28022739  0.05710168  0.30325160  1  -0.517688  -0.102351  1.00134  -0.113  -0.494371  -0.069953  1.27636  -0.082  -0.522619  -0.056024  1.252474  -0.068  -0.296562  -0.478323  -0.076309  1.292899  -0.086
Cl  Cl67  1  0.35975318  0.55738065  0.80325826  1  -0.517707  0.102533  1.00179  0.114  -0.494494  0.070069  1.276829  0.082  -0.522735  0.056115  1.252829  0.068  -0.296563  -0.478291  0.076482  1.293285  0.087
Cl  Cl68  1  0.80950123  0.01635632  0.46016904  1  -0.533268  0.097576  1.131762  0.107  -0.513043  0.073277  1.437339  0.085  -0.546381  0.059472  1.412035  0.071  -0.267304  -0.494085  0.079445  1.455127  0.089
Cl  Cl69  1  0.71388858  0.51635879  0.96021534  1  -0.53374  -0.097816  1.131805  -0.107  -0.513752  -0.073422  1.437217  -0.085  -0.547072  -0.059579  1.411825  -0.072  -0.267726  -0.494747  -0.079656  1.454955  -0.089
Cl  Cl70  1  0.19049806  0.98364583  0.53982889  1  -0.53326  -0.097568  1.131751  -0.107  -0.513036  -0.073272  1.437337  -0.085  -0.546384  -0.059467  1.412049  -0.071  -0.267293  -0.494077  -0.079448  1.455125  -0.089
Cl  Cl71  1  0.28611592  0.48364073  0.03978262  1  -0.533758  0.097822  1.131867  0.107  -0.513748  0.073428  1.437244  0.085  -0.547072  0.059585  1.411854  0.072  -0.267707  -0.494746  0.079653  1.454999  0.089
