# generated using pymatgen
data_MnH12C12(ClO2)4
_symmetry_space_group_name_H-M   'P 1'
_cell_length_a   7.34103848
_cell_length_b   7.23694983
_cell_length_c   10.69723225
_cell_angle_alpha   77.96218818
_cell_angle_beta   74.31776432
_cell_angle_gamma   69.62324118
_symmetry_Int_Tables_number   1
_chemical_formula_structural   MnH12C12(ClO2)4
_chemical_formula_sum   'Mn1 H12 C12 Cl4 O8'
_cell_volume   508.77482435
_cell_formula_units_Z   1
loop_
 _symmetry_equiv_pos_site_id
 _symmetry_equiv_pos_as_xyz
  1  'x, y, z'
loop_
 _atom_site_type_symbol
 _atom_site_label
 _atom_site_symmetry_multiplicity
 _atom_site_fract_x
 _atom_site_fract_y
 _atom_site_fract_z
 _atom_site_occupancy
 _atom_site_hle17_ddec_charge
 _atom_site_hle17_ddec_spin_density
 _atom_site_hle17_ddec_sum_bond_order
 _atom_site_hle17_magmom
 _atom_site_hse06_10hf_ddec_charge
 _atom_site_hse06_10hf_ddec_spin_density
 _atom_site_hse06_10hf_ddec_sum_bond_order
 _atom_site_hse06_10hf_magmom
 _atom_site_hse06_ddec_charge
 _atom_site_hse06_ddec_spin_density
 _atom_site_hse06_ddec_sum_bond_order
 _atom_site_hse06_magmom
 _atom_site_pbe_cm5_charge
 _atom_site_pbe_ddec_charge
 _atom_site_pbe_ddec_spin_density
 _atom_site_pbe_ddec_sum_bond_order
 _atom_site_pbe_magmom
Mn  Mn0  1  0.50000105  0.49999643  0.50000334  1  1.231015  4.810617  1.648852  4.698  1.073449  4.742548  2.120702  4.568  1.132095  4.778868  2.050553  4.622  0.598228  1.027837  4.705811  2.171441  4.515
H  H1  1  0.26266148  0.19571445  0.52760943  1  0.079975  0.000138  0.956209  0.0  0.092875  0.000605  1.020704  0.0  0.093626  0.000387  1.020147  0.0  0.112121  0.092204  0.000837  1.021332  0.001
H  H2  1  0.73734360  0.80429294  0.47238802  1  0.079991  0.000133  0.956153  0.0  0.092899  0.000606  1.020636  0.0  0.093651  0.000387  1.020077  0.0  0.112097  0.092227  0.000837  1.021265  0.001
H  H3  1  0.19949651  0.32673139  0.37550700  1  0.066188  -0.000334  0.923978  0.0  0.075284  -0.000235  0.99346  0.0  0.07656  -0.000279  0.991541  0.0  0.100164  0.07433  -0.000187  0.994929  0.0
H  H4  1  0.80050419  0.67327616  0.62449398  1  0.066222  -0.00031  0.923897  0.0  0.075291  -0.000235  0.993412  0.0  0.076566  -0.000279  0.991493  0.0  0.100172  0.074338  -0.000187  0.994881  0.0
H  H5  1  0.08742110  0.68986487  0.35521572  1  0.063432  -0.000425  0.929532  0.0  0.07198  -0.000368  1.001686  0.0  0.072853  -0.00041  1.000547  0.0  0.097161  0.071341  -0.000312  1.002558  0.0
H  H6  1  0.91257957  0.31013818  0.64478406  1  0.063445  -0.000409  0.929578  0.0  0.071984  -0.000368  1.001732  0.0  0.072857  -0.000411  1.000594  0.0  0.097194  0.071346  -0.000312  1.002602  0.0
H  H7  1  0.07268831  0.80135163  0.49421411  1  0.083497  -0.000114  0.924547  0.0  0.09847  0.000175  0.98632  0.0  0.098523  2.6e-05  0.98648  0.0  0.111278  0.098263  0.000316  0.986522  0.001
H  H8  1  0.92731768  0.19865277  0.50578269  1  0.083464  -0.000121  0.924499  0.0  0.098482  0.000174  0.986223  0.0  0.098533  2.6e-05  0.986387  0.0  0.111294  0.098273  0.000317  0.986427  0.001
H  H9  1  0.39707271  0.87315315  0.49900952  1  0.402061  0.000248  0.916291  0.0  0.370407  0.000968  0.9868  0.001  0.381958  0.00073  0.970124  0.001  0.287543  0.362323  0.001196  0.998385  0.001
H  H10  1  0.60292007  0.12683823  0.50099431  1  0.40203  0.000245  0.91622  0.0  0.370387  0.000968  0.986789  0.001  0.381934  0.00073  0.970119  0.001  0.28757  0.362302  0.001195  0.998375  0.001
H  H11  1  0.40891707  0.82537265  0.64648067  1  0.438309  0.000416  0.828873  0.002  0.415341  0.001185  0.888478  0.002  0.425328  0.000839  0.874003  0.002  0.309939  0.408218  0.001487  0.898767  0.003
H  H12  1  0.59108551  0.17463789  0.35352141  1  0.438352  0.000416  0.828868  0.002  0.415397  0.001184  0.888396  0.002  0.425383  0.000839  0.873922  0.002  0.310001  0.408274  0.001487  0.898684  0.003
C  C13  1  0.67366449  0.87897488  0.04230162  1  0.078025  0.000471  3.77711  0.0  0.072421  0.000982  4.053906  0.001  0.075637  0.000617  4.072988  0.0  0.008692  0.069921  0.001446  4.041577  0.001
C  C14  1  0.32632746  0.12102846  0.95770429  1  0.07802  0.000508  3.777095  0.0  0.072368  0.000981  4.053961  0.001  0.075578  0.000619  4.07304  0.0  0.00865  0.069862  0.001445  4.041647  0.001
C  C15  1  0.68223453  0.95425886  0.90952150  1  0.065949  0.000598  3.774944  0.0  0.060733  0.001121  4.052006  0.001  0.063734  0.000717  4.071367  0.001  0.006005  0.058481  0.001662  4.039401  0.001
C  C16  1  0.31776417  0.04574127  0.09047906  1  0.066149  0.000559  3.774845  0.0  0.060955  0.001121  4.051869  0.001  0.063962  0.000714  4.071233  0.001  0.006091  0.058704  0.001661  4.03927  0.001
C  C17  1  0.49134075  0.92469616  0.13272352  1  -0.122647  0.001174  3.728363  0.001  -0.1232  0.001605  3.98225  0.001  -0.126078  0.000909  3.998261  0.001  -0.02089  -0.12192  0.00268  3.972193  0.002
C  C18  1  0.50865337  0.07529526  0.86728193  1  -0.122569  0.00113  3.72814  0.001  -0.123172  0.001608  3.981995  0.001  -0.12603  0.000907  3.997974  0.001  -0.020888  -0.121891  0.002682  3.971939  0.002
C  C19  1  0.48321209  0.84772694  0.27593839  1  0.683374  0.003767  3.92163  0.004  0.628757  0.007085  4.22809  0.006  0.663198  0.005405  4.220029  0.005  0.215141  0.605271  0.008828  4.232552  0.008
C  C20  1  0.51677660  0.15225648  0.72404769  1  0.683102  0.003777  3.9212  0.004  0.628674  0.007091  4.227388  0.006  0.663113  0.005411  4.219332  0.005  0.215181  0.605188  0.008836  4.231842  0.008
C  C21  1  0.16046210  0.32581707  0.48257741  1  0.047293  0.001935  3.620197  0.002  -0.015439  0.003617  3.890989  0.003  -0.008629  0.002608  3.895996  0.002  -0.076666  -0.020152  0.004613  3.887731  0.004
C  C22  1  0.83953379  0.67418760  0.51742483  1  0.0472  0.001898  3.620082  0.002  -0.015515  0.003617  3.890945  0.003  -0.008712  0.002607  3.895935  0.002  -0.076719  -0.020229  0.004613  3.887689  0.004
C  C23  1  0.05074071  0.67714859  0.46293630  1  0.047414  0.00148  3.622565  0.002  -0.01728  0.002964  3.895967  0.003  -0.010564  0.002057  3.902155  0.002  -0.076754  -0.021842  0.003859  3.891738  0.003
C  C24  1  0.94925961  0.32286492  0.53706479  1  0.047401  0.00147  3.622726  0.002  -0.017297  0.002963  3.896129  0.003  -0.010595  0.002061  3.902315  0.002  -0.076855  -0.021861  0.003859  3.891908  0.003
Cl  Cl25  1  0.88612821  0.73180992  0.09571103  1  -0.055535  -9.5e-05  1.375209  0.0  -0.049234  6.1e-05  1.596091  0.0  -0.050126  -8.8e-05  1.588952  0.0  0.008488  -0.048617  0.000253  1.601183  0.0
Cl  Cl26  1  0.11387967  0.26819746  0.90428687  1  -0.055499  -9.2e-05  1.375305  0.0  -0.049189  6.2e-05  1.59622  0.0  -0.050081  -8.6e-05  1.589084  0.0  0.008524  -0.048569  0.000253  1.601316  0.0
Cl  Cl27  1  0.90636665  0.89781301  0.79770165  1  -0.045885  -0.000181  1.403645  0.0  -0.035081  6.2e-05  1.639232  0.0  -0.036152  -0.000139  1.631503  0.0  0.02182  -0.034579  0.000356  1.6448  0.0
Cl  Cl28  1  0.09364306  0.10219855  0.20228783  1  -0.045956  -0.000187  1.403733  0.0  -0.035157  6.2e-05  1.639324  0.0  -0.036228  -0.00014  1.631593  0.0  0.021809  -0.034654  0.000356  1.644893  0.0
O  O29  1  0.47654615  0.96844151  0.34893181  1  -0.645364  0.001257  2.021958  0.002  -0.589434  0.003225  2.248177  0.004  -0.616587  0.002282  2.239094  0.003  -0.305885  -0.57051  0.004328  2.253782  0.005
O  O30  1  0.52345140  0.03152907  0.65107338  1  -0.645238  0.001246  2.022107  0.002  -0.589349  0.003228  2.248211  0.004  -0.616495  0.002282  2.239126  0.003  -0.305889  -0.57043  0.004329  2.253818  0.005
O  O31  1  0.48164546  0.66968195  0.31230171  1  -0.633333  0.029387  2.007427  0.018  -0.573033  0.033663  2.263531  0.018  -0.603966  0.030384  2.250542  0.016  -0.307318  -0.550001  0.036684  2.271336  0.021
O  O32  1  0.51834531  0.33032688  0.68768956  1  -0.633257  0.029411  2.007117  0.018  -0.572982  0.033675  2.263091  0.018  -0.603927  0.030395  2.250117  0.016  -0.307269  -0.549941  0.036698  2.270888  0.021
O  O33  1  0.36136733  0.78490717  0.58213862  1  -0.828454  0.029463  1.868766  0.018  -0.770524  0.038459  2.071283  0.023  -0.794155  0.034467  2.036137  0.02  -0.570818  -0.752605  0.042114  2.095563  0.026
O  O34  1  0.63863958  0.21508406  0.41786467  1  -0.828453  0.029465  1.868739  0.018  -0.770514  0.038458  2.071244  0.023  -0.794142  0.034467  2.036111  0.02  -0.570873  -0.752595  0.042113  2.095524  0.026
O  O35  1  0.18800781  0.49784314  0.51441290  1  -0.339913  0.025526  2.295809  0.015  -0.24991  0.033541  2.553823  0.022  -0.271365  0.030044  2.553003  0.019  -0.219211  -0.234186  0.036923  2.553945  0.025
O  O36  1  0.81199420  0.50215995  0.48558852  1  -0.339803  0.02553  2.295847  0.016  -0.249843  0.03354  2.55389  0.022  -0.271254  0.030044  2.553036  0.019  -0.21913  -0.234121  0.036922  2.554011  0.025
