# generated using pymatgen
data_CdH16C24(NO)4
_symmetry_space_group_name_H-M   'P 1'
_cell_length_a   7.20441488
_cell_length_b   10.94493961
_cell_length_c   15.16933094
_cell_angle_alpha   109.20413811
_cell_angle_beta   89.98001578
_cell_angle_gamma   109.20554867
_symmetry_Int_Tables_number   1
_chemical_formula_structural   CdH16C24(NO)4
_chemical_formula_sum   'Cd2 H32 C48 N8 O8'
_cell_volume   1058.87184543
_cell_formula_units_Z   2
loop_
 _symmetry_equiv_pos_site_id
 _symmetry_equiv_pos_as_xyz
  1  'x, y, z'
loop_
 _atom_site_type_symbol
 _atom_site_label
 _atom_site_symmetry_multiplicity
 _atom_site_fract_x
 _atom_site_fract_y
 _atom_site_fract_z
 _atom_site_occupancy
 _atom_site_hle17_bader_spin_density
 _atom_site_hle17_ddec_charge
 _atom_site_hle17_ddec_spin_density
 _atom_site_hle17_ddec_sum_bond_order
 _atom_site_hle17_magmom
 _atom_site_hse06_10hf_bader_spin_density
 _atom_site_hse06_10hf_ddec_charge
 _atom_site_hse06_10hf_ddec_spin_density
 _atom_site_hse06_10hf_ddec_sum_bond_order
 _atom_site_hse06_10hf_magmom
 _atom_site_hse06_bader_spin_density
 _atom_site_hse06_ddec_charge
 _atom_site_hse06_ddec_spin_density
 _atom_site_hse06_ddec_sum_bond_order
 _atom_site_hse06_magmom
 _atom_site_pbe_bader_spin_density
 _atom_site_pbe_cm5_charge
 _atom_site_pbe_ddec_charge
 _atom_site_pbe_ddec_spin_density
 _atom_site_pbe_ddec_sum_bond_order
 _atom_site_pbe_magmom
Cd  Cd0  1  0.87857102  0.00009363  0.25001941  1  0  1.062406  0  1.698054  0  0  0.868959  0  2.141219  0  0  0.929953  0  2.089266  0  0  0.763451  0.826029  0  2.176577  0
Cd  Cd1  1  0.12142783  0.99990856  0.74997495  1  0  1.062389  0  1.698034  0  0  0.86893  0  2.141187  0  0  0.929927  0  2.089234  0  0  0.763435  0.826  0  2.176547  0
H  H2  1  0.50671476  0.27314946  0.20760359  1  0  0.089321  0  0.981422  0  0  0.097122  0  1.047935  0  0  0.099677  0  1.047523  0  0  0.096725  0.095281  0  1.048314  0
H  H3  1  0.23362921  0.72711510  0.29265425  1  0  0.089427  0  0.981939  0  0  0.097321  0  1.048296  0  0  0.099854  0  1.047929  0  0  0.096624  0.095472  0  1.04865  0
H  H4  1  0.49328790  0.72685483  0.79240445  1  0  0.08922  0  0.981403  0  0  0.097056  0  1.0479  0  0  0.099613  0  1.047485  0  0  0.096671  0.095214  0  1.048281  0
H  H5  1  0.76637938  0.27287882  0.70733817  1  0  0.08936  0  0.982024  0  0  0.097239  0  1.048406  0  0  0.099773  0  1.048038  0  0  0.096599  0.095389  0  1.048758  0
H  H6  1  0.36266731  0.46051036  0.26641279  1  0  0.091053  0  0.970367  0  0  0.101064  0  1.031898  0  0  0.103044  0  1.033002  0  0  0.098081  0.099579  0  1.031361  0
H  H7  1  0.90237133  0.53973710  0.23404705  1  0  0.090897  0  0.970993  0  0  0.100948  0  1.032433  0  0  0.102927  0  1.033537  0  0  0.098083  0.099434  0  1.031914  0
H  H8  1  0.63733500  0.53949599  0.73359508  1  0  0.091032  0  0.97048  0  0  0.101079  0  1.031972  0  0  0.103045  0  1.03309  0  0  0.098073  0.099595  0  1.031427  0
H  H9  1  0.09763244  0.46025272  0.76595363  1  0  0.090847  0  0.971114  0  0  0.100928  0  1.032512  0  0  0.102896  0  1.033628  0  0  0.098127  0.099413  0  1.031991  0
H  H10  1  0.51581051  0.65533951  0.41573334  1  0  0.09169  0  0.948378  0  0  0.102141  0  1.009505  0  0  0.104963  0  1.008117  0  0  0.099931  0.10011  0  1.010562  0
H  H11  1  0.86097359  0.34468880  0.08476341  1  0  0.092544  0  0.94909  0  0  0.102456  0  1.010579  0  0  0.105369  0  1.009093  0  0  0.100169  0.100324  0  1.011736  0
H  H12  1  0.48419561  0.34466890  0.58427568  1  0  0.091667  0  0.948462  0  0  0.102128  0  1.009571  0  0  0.104947  0  1.008186  0  0  0.099929  0.100093  0  1.01063  0
H  H13  1  0.13903346  0.65530205  0.91523356  1  0  0.092582  0  0.948975  0  0  0.102471  0  1.010477  0  0  0.105383  0  1.008993  0  0  0.100166  0.100339  0  1.011636  0
H  H14  1  0.81079736  0.66038562  0.50790417  1  0  0.112608  0  0.95658  0  0  0.118449  0  1.023895  0  0  0.122248  0  1.021992  0  0  0.104901  0.115644  0  1.025433  0
H  H15  1  0.15076509  0.33975084  0.99244234  1  0  0.112597  0  0.956115  0  0  0.117898  0  1.024062  0  0  0.121752  0  1.022114  0  0  0.104854  0.115067  0  1.025617  0
H  H16  1  0.18920186  0.33961455  0.49210488  1  0  0.112598  0  0.956605  0  0  0.118421  0  1.023948  0  0  0.122219  0  1.022039  0  0  0.104877  0.115601  0  1.025487  0
H  H17  1  0.84923137  0.66024101  0.00754629  1  0  0.112533  0  0.956241  0  0  0.11786  0  1.024145  0  0  0.121708  0  1.02221  0  0  0.104855  0.115029  0  1.025702  0
H  H18  1  0.08833369  0.16383826  0.10896719  1  0  0.085867  0  0.939128  0  0  0.094441  0  1.002205  0  0  0.096593  0  1.001355  0  0  0.117954  0.093242  0  1.002194  0
H  H19  1  0.92449927  0.83701316  0.39121583  1  0  0.085668  0  0.937496  0  0  0.09424  0  1.000784  0  0  0.096355  0  0.999919  0  0  0.117817  0.092817  0  1.00126  0
H  H20  1  0.91166967  0.83616185  0.89102470  1  0  0.085875  0  0.939038  0  0  0.094448  0  1.002115  0  0  0.0966  0  1.001265  0  0  0.117975  0.093248  0  1.002104  0
H  H21  1  0.07549140  0.16299211  0.60877531  1  0  0.085726  0  0.937532  0  0  0.094293  0  1.000831  0  0  0.096408  0  0.999968  0  0  0.117826  0.092875  0  1.0013  0
H  H22  1  0.35161592  0.16726622  0.00334242  1  0  0.123622  0  0.958024  0  0  0.132409  0  1.017825  0  0  0.136026  0  1.01643  0  0  0.113113  0.129855  0  1.018972  0
H  H23  1  0.18383735  0.83331001  0.49693869  1  0  0.123357  0  0.95845  0  0  0.131941  0  1.018526  0  0  0.135546  0  1.017184  0  0  0.112883  0.129326  0  1.019753  0
H  H24  1  0.64838265  0.83272151  0.99665052  1  0  0.123489  0  0.958082  0  0  0.132421  0  1.017728  0  0  0.136033  0  1.016336  0  0  0.113113  0.129865  0  1.018877  0
H  H25  1  0.81613810  0.16668701  0.50305380  1  0  0.123312  0  0.958466  0  0  0.131925  0  1.018529  0  0  0.135529  0  1.017188  0  0  0.112855  0.129308  0  1.019755  0
H  H26  1  0.42002985  0.82554497  0.06812241  1  0  0.11465  0  0.98214  0  0  0.122224  0  1.044502  0  0  0.125452  0  1.043908  0  0  0.110412  0.119992  0  1.044917  0
H  H27  1  0.59480948  0.17424407  0.43179262  1  0  0.114646  0  0.981112  0  0  0.121791  0  1.043959  0  0  0.124996  0  1.043393  0  0  0.110085  0.119484  0  1.044546  0
H  H28  1  0.57997785  0.17445829  0.93188605  1  0  0.114689  0  0.982196  0  0  0.122301  0  1.044478  0  0  0.125511  0  1.043927  0  0  0.110455  0.120068  0  1.044891  0
H  H29  1  0.40517134  0.82575817  0.56821692  1  0  0.11458  0  0.980911  0  0  0.121776  0  1.043728  0  0  0.124982  0  1.043159  0  0  0.110079  0.11947  0  1.044317  0
H  H30  1  0.14961759  0.83323637  0.16662221  1  0  0.074327  0  0.952183  0  0  0.081952  0  1.018763  0  0  0.083665  0  1.0183  0  0  0.114277  0.08095  0  1.018725  0
H  H31  1  0.31727871  0.16695560  0.33324253  1  0  0.073535  0  0.954261  0  0  0.081754  0  1.0202  0  0  0.083319  0  1.019946  0  0  0.114296  0.080545  0  1.020521  0
H  H32  1  0.85038972  0.16677721  0.83338803  1  0  0.074349  0  0.95225  0  0  0.081972  0  1.01883  0  0  0.083686  0  1.018363  0  0  0.114283  0.080969  0  1.018792  0
H  H33  1  0.68271940  0.83305900  0.66676664  1  0  0.073625  0  0.954176  0  0  0.081837  0  1.020125  0  0  0.083405  0  1.019868  0  0  0.114329  0.080627  0  1.020447  0
C  C34  1  0.80021153  0.23877197  0.29158169  1  0  0.633534  0  3.928688  0  0  0.58677  0  4.2149  0  0  0.621683  0  4.20869  0  0  0.189727  0.563126  0  4.218133  0
C  C35  1  0.56130372  0.76151633  0.20871403  1  0  0.633396  0  3.928844  0  0  0.586812  0  4.215276  0  0  0.621772  0  4.209017  0  0  0.19021  0.563312  0  4.218385  0
C  C36  1  0.19979910  0.76123436  0.70842025  1  0  0.633593  0  3.92862  0  0  0.586842  0  4.214887  0  0  0.621756  0  4.208671  0  0  0.189742  0.5632  0  4.218124  0
C  C37  1  0.43870766  0.23847759  0.79127905  1  0  0.633562  0  3.928902  0  0  0.586903  0  4.215461  0  0  0.621867  0  4.209199  0  0  0.190229  0.563399  0  4.218567  0
C  C38  1  0.73354125  0.36018448  0.32410411  1  0  -0.122682  0  3.730636  0  0  -0.104518  0  3.960038  0  0  -0.113203  0  3.981513  0  0  -0.013961  -0.099056  0  3.945841  0
C  C39  1  0.37333912  0.64005787  0.17609982  1  0  -0.121949  0  3.730477  0  0  -0.104693  0  3.961368  0  0  -0.113413  0  3.982851  0  0  -0.014322  -0.099342  0  3.9471  0
C  C40  1  0.26647288  0.63981774  0.67590411  1  0  -0.122529  0  3.730403  0  0  -0.104486  0  3.960024  0  0  -0.113173  0  3.981498  0  0  -0.013891  -0.09903  0  3.945827  0
C  C41  1  0.62666253  0.35993605  0.82388929  1  0  -0.121998  0  3.730536  0  0  -0.104723  0  3.961451  0  0  -0.113441  0  3.982929  0  0  -0.014331  -0.099373  0  3.947181  0
C  C42  1  0.57066596  0.35907075  0.27319840  1  0  -0.076322  0  3.759804  0  0  -0.095346  0  4.004719  0  0  -0.094888  0  4.024149  0  0  -0.088223  -0.095564  0  3.991888  0
C  C43  1  0.21155393  0.64117755  0.22704739  1  0  -0.07748  0  3.761816  0  0  -0.096258  0  4.00714  0  0  -0.095819  0  4.026604  0  0  -0.088177  -0.096571  0  3.994004  0
C  C44  1  0.42934036  0.64093250  0.72681006  1  0  -0.076315  0  3.759767  0  0  -0.095315  0  4.004716  0  0  -0.094855  0  4.02414  0  0  -0.088243  -0.095534  0  3.991888  0
C  C45  1  0.78844978  0.35882050  0.77294534  1  0  -0.077325  0  3.761711  0  0  -0.096091  0  4.00703  0  0  -0.09565  0  4.026488  0  0  -0.088116  -0.096407  0  3.993893  0
C  C46  1  0.49098620  0.46357697  0.30614034  1  0  -0.068702  0  3.750894  0  0  -0.086147  0  4.003859  0  0  -0.089158  0  4.024693  0  0  -0.090105  -0.084485  0  3.990208  0
C  C47  1  0.02749694  0.53660229  0.19419622  1  0  -0.067183  0  3.750161  0  0  -0.084669  0  4.00281  0  0  -0.08762  0  4.023558  0  0  -0.089547  -0.082741  0  3.988883  0
C  C48  1  0.50902151  0.53642629  0.69386944  1  0  -0.068713  0  3.750924  0  0  -0.086193  0  4.003896  0  0  -0.089193  0  4.024736  0  0  -0.090124  -0.084521  0  3.990219  0
C  C49  1  0.97250646  0.46338958  0.80579835  1  0  -0.067098  0  3.750161  0  0  -0.084603  0  4.002801  0  0  -0.087544  0  4.023549  0  0  -0.089614  -0.082675  0  3.988869  0
C  C50  1  0.57652711  0.57272581  0.39057391  1  0  -0.036998  0  3.754387  0  0  -0.053109  0  4.008787  0  0  -0.052484  0  4.028303  0  0  -0.0835  -0.053292  0  3.995354  0
C  C51  1  0.00413748  0.42740098  0.10980820  1  0  -0.038263  0  3.753885  0  0  -0.053812  0  4.007956  0  0  -0.053287  0  4.027477  0  0  -0.083697  -0.054003  0  3.994641  0
C  C52  1  0.42347123  0.42727539  0.60943604  1  0  -0.03697  0  3.754591  0  0  -0.053081  0  4.008974  0  0  -0.052456  0  4.028493  0  0  -0.083463  -0.053262  0  3.995534  0
C  C53  1  0.99586367  0.57259193  0.89018727  1  0  -0.038533  0  3.753951  0  0  -0.054053  0  4.008041  0  0  -0.053526  0  4.027561  0  0  -0.083762  -0.054244  0  3.994719  0
C  C54  1  0.73965787  0.57638089  0.44214188  1  0  -0.146526  0  3.718445  0  0  -0.166655  0  3.967218  0  0  -0.171408  0  3.988762  0  0  -0.087447  -0.163325  0  3.952577  0
C  C55  1  0.16362650  0.42381434  0.05816733  1  0  -0.145918  0  3.718174  0  0  -0.165402  0  3.966812  0  0  -0.170247  0  3.98835  0  0  -0.087526  -0.162382  0  3.952266  0
C  C56  1  0.26033462  0.42361414  0.55787057  1  0  -0.146578  0  3.718566  0  0  -0.166665  0  3.967328  0  0  -0.171416  0  3.98887  0  0  -0.087432  -0.16332  0  3.952691  0
C  C57  1  0.83637531  0.57618268  0.94182582  1  0  -0.145592  0  3.718229  0  0  -0.165096  0  3.966838  0  0  -0.169943  0  3.988376  0  0  -0.087449  -0.16208  0  3.952294  0
C  C58  1  0.81817594  0.47016456  0.40943993  1  0  0.148611  0  3.785276  0  0  0.147115  0  4.03674  0  0  0.150591  0  4.058287  0  0  0.090953  0.144848  0  4.022192  0
C  C59  1  0.34825137  0.53007802  0.09074707  1  0  0.148305  0  3.786504  0  0  0.146962  0  4.037926  0  0  0.15048  0  4.059427  0  0  0.091336  0.144721  0  4.02356  0
C  C60  1  0.18181947  0.52983355  0.59057127  1  0  0.148811  0  3.785103  0  0  0.147292  0  4.036698  0  0  0.150772  0  4.05824  0  0  0.091029  0.145032  0  4.022134  0
C  C61  1  0.65174802  0.46991692  0.90924097  1  0  0.148161  0  3.786414  0  0  0.146783  0  4.037904  0  0  0.150304  0  4.059404  0  0  0.091346  0.14454  0  4.023536  0
C  C62  1  0.16646488  0.09070069  0.09736644  1  0  0.125674  0  3.722927  0  0  0.09598  0  3.975887  0  0  0.102848  0  3.994947  0  0  0.048429  0.091491  0  3.96257  0
C  C63  1  0.07589878  0.90988122  0.40273488  1  0  0.124988  0  3.719224  0  0  0.095203  0  3.972297  0  0  0.102121  0  3.991414  0  0  0.048074  0.090718  0  3.959234  0
C  C64  1  0.83354194  0.90930356  0.90262973  1  0  0.125628  0  3.722999  0  0  0.09591  0  3.976009  0  0  0.102778  0  3.995067  0  0  0.048372  0.091421  0  3.962692  0
C  C65  1  0.92408705  0.09011992  0.59725726  1  0  0.124854  0  3.719602  0  0  0.095044  0  3.972693  0  0  0.101963  0  3.991808  0  0  0.047959  0.090554  0  3.959625  0
C  C66  1  0.31605087  0.09262544  0.03930667  1  0  -0.143164  0  3.650595  0  0  -0.161222  0  3.89614  0  0  -0.168397  0  3.915225  0  0  -0.071711  -0.156718  0  3.883477  0
C  C67  1  0.22329711  0.90778387  0.46084374  1  0  -0.141418  0  3.650343  0  0  -0.159237  0  3.895925  0  0  -0.166403  0  3.914995  0  0  -0.070864  -0.154745  0  3.883352  0
C  C68  1  0.68395547  0.90736953  0.96068929  1  0  -0.143188  0  3.650519  0  0  -0.161349  0  3.896006  0  0  -0.16852  0  3.915087  0  0  -0.071744  -0.156843  0  3.883343  0
C  C69  1  0.77668563  0.09221109  0.53914958  1  0  -0.141358  0  3.650523  0  0  -0.159243  0  3.89614  0  0  -0.166408  0  3.915215  0  0  -0.070789  -0.154752  0  3.883567  0
C  C70  1  0.41635670  0.99889236  0.02825979  1  0  0.119687  0  3.705802  0  0  0.130232  0  3.935139  0  0  0.135411  0  3.953755  0  0  0.026688  0.126891  0  3.922566  0
C  C71  1  0.41745093  0.00118625  0.47175957  1  0  0.118971  0  3.709062  0  0  0.129338  0  3.938345  0  0  0.134482  0  3.957092  0  0  0.026439  0.125999  0  3.925605  0
C  C72  1  0.58364687  0.00110262  0.97174012  1  0  0.119982  0  3.705775  0  0  0.130573  0  3.935077  0  0  0.135754  0  3.95369  0  0  0.026824  0.12723  0  3.922503  0
C  C73  1  0.58252988  0.99881597  0.52824469  1  0  0.118998  0  3.709176  0  0  0.129451  0  3.938413  0  0  0.13459  0  3.957168  0  0  0.0265  0.126113  0  3.925674  0
C  C74  1  0.35114184  0.90210521  0.07360876  1  0  -0.140342  0  3.67447  0  0  -0.158737  0  3.918336  0  0  -0.165965  0  3.938522  0  0  -0.073857  -0.15394  0  3.904585  0
C  C75  1  0.44923571  0.09791113  0.42636450  1  0  -0.139795  0  3.675485  0  0  -0.157627  0  3.919432  0  0  -0.16483  0  3.939565  0  0  -0.073458  -0.152861  0  3.905839  0
C  C76  1  0.64886102  0.09789391  0.92639609  1  0  -0.140498  0  3.674627  0  0  -0.15891  0  3.918482  0  0  -0.166149  0  3.938672  0  0  -0.073918  -0.154112  0  3.904732  0
C  C77  1  0.55075184  0.90209625  0.57364230  1  0  -0.139644  0  3.675262  0  0  -0.157528  0  3.919187  0  0  -0.164731  0  3.939328  0  0  -0.073474  -0.152761  0  3.90559  0
C  C78  1  0.20023347  0.90666107  0.12989771  1  0  0.127722  0  3.71931  0  0  0.099289  0  3.968957  0  0  0.105852  0  3.988993  0  0  0.045684  0.09499  0  3.955031  0
C  C79  1  0.29407091  0.09360849  0.37007000  1  0  0.127257  0  3.72133  0  0  0.09823  0  3.971152  0  0  0.104886  0  3.991186  0  0  0.045101  0.093956  0  3.957412  0
C  C80  1  0.79977177  0.09334837  0.87010693  1  0  0.127738  0  3.719303  0  0  0.099292  0  3.968954  0  0  0.105858  0  3.98898  0  0  0.04574  0.094992  0  3.955027  0
C  C81  1  0.70592080  0.90639887  0.62993086  1  0  0.127078  0  3.721475  0  0  0.09803  0  3.971309  0  0  0.10468  0  3.991352  0  0  0.04505  0.093756  0  3.95757  0
N  N82  1  0.11099571  0.00072044  0.14335165  1  0  -0.343971  0  3.284708  0  0  -0.266402  0  3.551929  0  0  -0.287003  0  3.571103  0  0  -0.334566  -0.252344  0  3.538714  0
N  N83  1  0.11070505  0.99973255  0.35664455  1  0  -0.342638  0  3.282513  0  0  -0.264785  0  3.549488  0  0  -0.285382  0  3.568669  0  0  -0.333962  -0.250675  0  3.536076  0
N  N84  1  0.88901075  0.99928588  0.85664764  1  0  -0.343938  0  3.284862  0  0  -0.266344  0  3.552065  0  0  -0.286943  0  3.571238  0  0  -0.334617  -0.252287  0  3.538849  0
N  N85  1  0.88928630  0.00027686  0.64335350  1  0  -0.342522  0  3.282735  0  0  -0.264592  0  3.549619  0  0  -0.285189  0  3.568804  0  0  -0.333828  -0.250483  0  3.536208  0
N  N86  1  0.99555018  0.47952116  0.45588038  1  0  -0.114669  0  2.994111  0  0  -0.096082  0  3.281927  0  0  -0.096294  0  3.288688  0  0  -0.131935  -0.095755  0  3.277093  0
N  N87  1  0.51620966  0.52074871  0.04412713  1  0  -0.115785  0  2.992289  0  0  -0.097092  0  3.279808  0  0  -0.097295  0  3.286517  0  0  -0.132582  -0.096819  0  3.275131  0
N  N88  1  0.00444714  0.52047798  0.54413107  1  0  -0.11466  0  2.99403  0  0  -0.096098  0  3.281888  0  0  -0.096309  0  3.288647  0  0  -0.1318  -0.095772  0  3.277052  0
N  N89  1  0.48379060  0.47924519  0.95585935  1  0  -0.115406  0  2.992017  0  0  -0.096631  0  3.279485  0  0  -0.096835  0  3.286195  0  0  -0.132324  -0.096355  0  3.274802  0
O  O90  1  0.77173031  0.16559509  0.20479409  1  0  -0.631724  0  1.914126  0  0  -0.574055  0  2.144789  0  0  -0.60219  0  2.137893  0  0  -0.332764  -0.554204  0  2.148683  0
O  O91  1  0.60612471  0.83439849  0.29552759  1  0  -0.631619  0  1.91374  0  0  -0.573849  0  2.14394  0  0  -0.601876  0  2.136874  0  0  -0.332933  -0.554037  0  2.147926  0
O  O92  1  0.22828603  0.83441433  0.79520726  1  0  -0.631787  0  1.914159  0  0  -0.574118  0  2.144822  0  0  -0.602255  0  2.137928  0  0  -0.332768  -0.554267  0  2.148718  0
O  O93  1  0.39386964  0.16559748  0.70446070  1  0  -0.631663  0  1.91359  0  0  -0.573877  0  2.143837  0  0  -0.60191  0  2.136775  0  0  -0.332883  -0.554064  0  2.14782  0
O  O94  1  0.87439396  0.20745325  0.35472721  1  0  -0.644929  0  1.989598  0  0  -0.58206  0  2.236714  0  0  -0.612677  0  2.227087  0  0  -0.330769  -0.560546  0  2.242452  0
O  O95  1  0.66658805  0.79307191  0.14553974  1  0  -0.644586  0  1.990256  0  0  -0.581661  0  2.237476  0  0  -0.612391  0  2.227964  0  0  -0.330696  -0.560169  0  2.243137  0
O  O96  1  0.12560438  0.79254794  0.64527944  1  0  -0.645012  0  1.989658  0  0  -0.582144  0  2.236817  0  0  -0.61276  0  2.227185  0  0  -0.330847  -0.560629  0  2.242555  0
O  O97  1  0.33342590  0.20692718  0.85445521  1  0  -0.644652  0  1.990366  0  0  -0.58169  0  2.237595  0  0  -0.612416  0  2.228085  0  0  -0.330714  -0.560198  0  2.243255  0
