# generated using pymatgen
data_MnH16C12(N2O3)2
_symmetry_space_group_name_H-M   'P 1'
_cell_length_a   5.21606199
_cell_length_b   8.81488471
_cell_length_c   15.51934026
_cell_angle_alpha   92.34442170
_cell_angle_beta   89.99990433
_cell_angle_gamma   90.00037580
_symmetry_Int_Tables_number   1
_chemical_formula_structural   MnH16C12(N2O3)2
_chemical_formula_sum   'Mn2 H32 C24 N8 O12'
_cell_volume   712.96624747
_cell_formula_units_Z   2
loop_
 _symmetry_equiv_pos_site_id
 _symmetry_equiv_pos_as_xyz
  1  'x, y, z'
loop_
 _atom_site_type_symbol
 _atom_site_label
 _atom_site_symmetry_multiplicity
 _atom_site_fract_x
 _atom_site_fract_y
 _atom_site_fract_z
 _atom_site_occupancy
 _atom_site_hle17_ddec_charge
 _atom_site_hle17_ddec_spin_density
 _atom_site_hle17_ddec_sum_bond_order
 _atom_site_hle17_magmom
 _atom_site_hse06_10hf_ddec_charge
 _atom_site_hse06_10hf_ddec_spin_density
 _atom_site_hse06_10hf_ddec_sum_bond_order
 _atom_site_hse06_10hf_magmom
 _atom_site_hse06_ddec_charge
 _atom_site_hse06_ddec_spin_density
 _atom_site_hse06_ddec_sum_bond_order
 _atom_site_hse06_magmom
 _atom_site_pbe_cm5_charge
 _atom_site_pbe_ddec_charge
 _atom_site_pbe_ddec_spin_density
 _atom_site_pbe_ddec_sum_bond_order
 _atom_site_pbe_magmom
Mn  Mn0  1  0.01189900  0.01976773  0.20898185  1  1.150971  4.810307  1.725291  4.686  0.983524  4.742419  2.212394  4.55  1.040977  4.77952  2.146076  4.606  0.587308  0.938208  4.70623  2.262469  4.496
Mn  Mn1  1  0.98809345  0.51975743  0.70898416  1  1.15103  4.810189  1.725249  4.686  0.983584  4.742317  2.212407  4.55  1.041051  4.779419  2.146051  4.606  0.587339  0.938268  4.706127  2.262491  4.496
H  H2  1  0.45052738  0.92218426  0.12225083  1  0.419967  -0.000501  0.884695  0.001  0.388964  0.000138  0.949502  0.002  0.399793  -0.000116  0.934067  0.001  0.290209  0.381281  0.000385  0.960398  0.002
H  H3  1  0.54946170  0.42218032  0.62225222  1  0.419904  -0.000501  0.884784  0.001  0.388915  0.000138  0.949543  0.002  0.399743  -0.000116  0.934111  0.001  0.290193  0.381236  0.000385  0.960431  0.002
H  H4  1  0.19365555  0.90087461  0.06963232  1  0.401007  0.000184  0.915108  0.0  0.368335  0.000968  0.98493  0.001  0.380518  0.000699  0.967392  0.001  0.282015  0.359647  0.001219  0.997426  0.001
H  H5  1  0.80633377  0.40088208  0.56963390  1  0.40099  0.000184  0.915184  0.0  0.368316  0.000968  0.98499  0.001  0.380499  0.0007  0.967448  0.001  0.281983  0.359627  0.00122  0.997484  0.001
H  H6  1  0.57594597  0.19471909  0.21381475  1  0.41964  -0.000489  0.882563  0.001  0.388522  0.000183  0.949481  0.002  0.399161  -8.5e-05  0.934284  0.002  0.291056  0.380875  0.000452  0.960477  0.002
H  H7  1  0.42405374  0.69470493  0.71380548  1  0.419653  -0.000489  0.882713  0.001  0.388542  0.000183  0.949478  0.002  0.399177  -8.5e-05  0.93429  0.002  0.291039  0.380896  0.000452  0.960471  0.002
H  H8  1  0.83360057  0.28672756  0.20329948  1  0.397695  0.000274  0.92692  0.0  0.365184  0.001011  0.994984  0.001  0.377142  0.000764  0.977936  0.001  0.281733  0.356757  0.00125  1.006983  0.001
H  H9  1  0.16640197  0.78671332  0.70328833  1  0.39773  0.000274  0.926891  0.0  0.365277  0.001011  0.99487  0.001  0.377235  0.000764  0.977821  0.001  0.281756  0.356849  0.00125  1.006868  0.001
H  H10  1  0.96829010  0.66038368  0.18977180  1  0.116502  -0.0  0.955176  0.0  0.123189  0.000284  1.017794  0.0  0.126642  0.000176  1.015526  0.0  0.121547  0.120684  0.000426  1.019586  0.0
H  H11  1  0.03170759  0.16037278  0.68977184  1  0.116549  3e-06  0.955017  0.0  0.12316  0.000284  1.017731  0.0  0.126621  0.000176  1.015454  0.0  0.121554  0.120656  0.000426  1.019523  0.0
H  H12  1  0.62317225  0.47259081  0.27063837  1  0.124581  2.1e-05  0.958415  0.0  0.135589  0.000281  1.015531  0.0  0.138929  0.000122  1.013325  0.0  0.128089  0.132153  0.000741  1.018548  0.0
H  H13  1  0.37683713  0.97258896  0.77063517  1  0.124665  2.1e-05  0.958314  0.0  0.135586  0.000282  1.015535  0.0  0.138924  0.000122  1.013329  0.0  0.128092  0.13214  0.000741  1.018557  0.0
H  H14  1  0.15728693  0.73086737  0.39520544  1  0.073021  -0.000258  0.928724  0.0  0.08775  -0.000251  0.99307  0.0  0.088237  -0.000251  0.993388  0.0  0.111049  0.087266  -0.000245  0.992957  0.0
H  H15  1  0.84271927  0.23086929  0.89520238  1  0.072992  -0.000257  0.92864  0.0  0.087717  -0.000252  0.993036  0.0  0.088198  -0.000251  0.993349  0.0  0.111044  0.087233  -0.000245  0.992924  0.0
H  H16  1  0.16437408  0.55123092  0.34103194  1  0.081392  -3.6e-05  0.928899  0.0  0.095445  4e-06  0.993081  0.0  0.096299  -1.8e-05  0.992959  0.0  0.113773  0.095267  3.3e-05  0.992148  0.0
H  H17  1  0.83561947  0.05123166  0.84102758  1  0.081378  -3.6e-05  0.928847  0.0  0.095457  4e-06  0.993041  0.0  0.0963  -1.8e-05  0.992923  0.0  0.113762  0.095278  3.3e-05  0.992108  0.0
H  H18  1  0.50563895  0.64291156  0.49734235  1  0.112746  -0.000251  0.946122  0.0  0.125378  -0.000251  1.010607  0.0  0.127553  -0.00026  1.010003  0.0  0.10242  0.124054  -0.00023  1.010575  0.0
H  H19  1  0.49439053  0.14291078  0.99734574  1  0.11273  -0.000246  0.946106  0.0  0.125341  -0.000252  1.010619  0.0  0.127514  -0.00026  1.010015  0.0  0.102457  0.124013  -0.00023  1.010587  0.0
H  H20  1  0.51777592  0.46847622  0.44013188  1  0.122229  -2.2e-05  0.934706  0.0  0.136824  0.000182  0.995268  0.0  0.139249  8e-05  0.994312  0.0  0.108414  0.134798  0.000325  0.996804  0.0
H  H21  1  0.48221284  0.96847944  0.94013263  1  0.122234  -1.8e-05  0.934739  0.0  0.136805  0.000182  0.995319  0.0  0.13923  8.1e-05  0.99436  0.0  0.108419  0.134776  0.000325  0.996855  0.0
H  H22  1  0.04194493  0.24054875  0.37981375  1  0.118858  -0.000102  0.951228  0.0  0.12589  0.000144  1.012952  0.0  0.129365  4.3e-05  1.010746  0.0  0.122199  0.123477  0.000255  1.014236  0.0
H  H23  1  0.95806915  0.74055300  0.87980799  1  0.118984  -0.000104  0.95111  0.0  0.125979  0.000144  1.012854  0.0  0.129455  4.3e-05  1.010653  0.0  0.122256  0.123564  0.000255  1.01414  0.0
H  H24  1  0.37946323  0.21349814  0.51764350  1  0.123552  0.000111  0.95631  0.0  0.13384  0.000357  1.015234  0.0  0.137098  0.000194  1.013394  0.0  0.128854  0.130976  0.000576  1.017751  0.0
H  H25  1  0.62054787  0.71350399  0.01764019  1  0.123558  0.000114  0.956259  0.0  0.133841  0.000357  1.015193  0.0  0.137105  0.000194  1.013333  0.0  0.128859  0.130976  0.000576  1.01771  0.0
H  H26  1  0.86567226  0.04720542  0.50400600  1  0.080426  -4.1e-05  0.936122  0.0  0.094374  4.4e-05  1.000962  0.0  0.095403  -1e-06  1.000509  0.0  0.110935  0.093409  9.6e-05  1.001644  0.0
H  H27  1  0.13433172  0.54721695  0.00400095  1  0.080414  -3.9e-05  0.936155  0.0  0.094319  4.4e-05  1.001067  0.0  0.095342  -1e-06  1.000621  0.0  0.110922  0.093353  9.6e-05  1.001748  0.0
H  H28  1  0.79361213  0.86432034  0.45920232  1  0.070276  -0.00016  0.929985  0.0  0.085859  -0.000161  0.993464  0.0  0.086546  -0.000155  0.993374  0.0  0.11153  0.085127  -0.00016  0.993802  0.0
H  H29  1  0.20638130  0.36432724  0.95919819  1  0.070313  -0.000157  0.929936  0.0  0.085892  -0.000161  0.993413  0.0  0.086581  -0.000155  0.993319  0.0  0.11154  0.085159  -0.00016  0.993749  0.0
H  H30  1  0.42277438  0.85245800  0.57074552  1  0.112894  -0.000163  0.951006  0.0  0.124921  -0.000111  1.013597  0.0  0.12775  -0.000129  1.012137  0.0  0.100537  0.123016  -9.9e-05  1.014364  0.0
H  H31  1  0.57720875  0.35246642  0.07074629  1  0.112801  -0.00016  0.95118  0.0  0.124883  -0.000111  1.013751  0.0  0.127708  -0.000129  1.012295  0.0  0.100527  0.122986  -9.9e-05  1.014508  0.0
H  H32  1  0.54290903  0.02355921  0.61777689  1  0.10848  -0.000177  0.943939  0.0  0.12192  -9.4e-05  1.009027  0.0  0.12394  -0.000132  1.008569  0.0  0.102455  0.12065  1.9e-05  1.009084  0.0
H  H33  1  0.45708038  0.52357113  0.11777502  1  0.108509  -0.000174  0.943827  0.0  0.121958  -9.4e-05  1.008953  0.0  0.123976  -0.000131  1.008499  0.0  0.102509  0.120689  1.9e-05  1.009011  0.0
C  C34  1  0.56671345  0.83375732  0.31596096  1  0.208821  0.003368  3.747772  0.004  0.178352  0.005961  4.021568  0.006  0.19028  0.00488  4.03576  0.005  0.21877  0.170345  0.006978  4.012147  0.007
C  C35  1  0.43328665  0.33375284  0.81596365  1  0.208857  0.003361  3.747764  0.004  0.178391  0.00596  4.02151  0.006  0.190313  0.004884  4.035707  0.005  0.218814  0.170384  0.00698  4.012086  0.007
C  C36  1  0.81620596  0.68960696  0.23504225  1  0.014395  0.001802  3.731793  0.002  -0.020824  0.003887  4.010774  0.003  -0.018759  0.003189  4.027984  0.003  0.007063  -0.022517  0.004579  3.999297  0.004
C  C37  1  0.18379353  0.18959906  0.73504555  1  0.014539  0.001773  3.73163  0.002  -0.020585  0.003888  4.01055  0.003  -0.018527  0.003187  4.027754  0.003  0.007129  -0.022282  0.004578  3.999073  0.004
C  C38  1  0.64351572  0.59508403  0.27304018  1  -0.040002  -0.000762  3.64082  0.0  -0.08126  0.000143  3.899792  0.001  -0.078828  -0.000517  3.915979  0.0  0.012409  -0.082396  0.000696  3.889448  0.001
C  C39  1  0.35648453  0.09508031  0.77303967  1  -0.040159  -0.000735  3.640875  0.0  -0.081371  0.000141  3.899824  0.001  -0.078935  -0.000515  3.916007  0.0  0.012352  -0.082494  0.000695  3.889485  0.001
C  C40  1  0.28108686  0.63334295  0.37864260  1  0.031873  0.000895  3.646404  0.001  -0.035434  0.001274  3.913232  0.001  -0.030133  0.000958  3.923429  0.001  -0.05221  -0.038425  0.001705  3.905133  0.002
C  C41  1  0.71891286  0.13334089  0.87863948  1  0.032083  0.000897  3.646214  0.001  -0.035351  0.001273  3.913182  0.001  -0.030026  0.000957  3.923351  0.001  -0.052173  -0.038344  0.001706  3.90508  0.002
C  C42  1  0.38776822  0.56243777  0.45893477  1  -0.301475  0.000573  3.67165  0.001  -0.342995  0.000939  3.926773  0.001  -0.349196  0.000611  3.933376  0.001  -0.16889  -0.338442  0.001315  3.921708  0.001
C  C43  1  0.61223978  0.06243636  0.95893298  1  -0.301546  0.000554  3.671816  0.001  -0.343025  0.000943  3.926897  0.001  -0.349222  0.000609  3.933482  0.001  -0.16894  -0.33848  0.001316  3.921853  0.001
C  C44  1  0.18049831  0.50010276  0.51637543  1  0.703033  0.004142  3.840983  0.004  0.654785  0.007608  4.139078  0.007  0.688095  0.005513  4.132875  0.005  0.214418  0.63157  0.010129  4.142892  0.009
C  C45  1  0.81949748  0.00008727  0.01636923  1  0.703047  0.004155  3.841143  0.004  0.654866  0.00761  4.139108  0.007  0.688173  0.005518  4.132909  0.005  0.214392  0.631647  0.010132  4.14292  0.009
C  C46  1  0.44175368  0.96446383  0.35914521  1  0.216984  0.003566  3.748699  0.004  0.186229  0.006125  4.020335  0.006  0.198542  0.005095  4.034485  0.005  0.221319  0.177514  0.007363  4.010915  0.007
C  C47  1  0.55825106  0.46446217  0.85914471  1  0.21702  0.003583  3.748649  0.004  0.186268  0.006127  4.020252  0.006  0.198588  0.005099  4.034395  0.005  0.221282  0.177553  0.007365  4.010831  0.007
C  C48  1  0.19424141  0.15886542  0.38892573  1  0.012755  0.001634  3.726194  0.002  -0.020862  0.003552  3.999944  0.004  -0.019214  0.002888  4.018477  0.003  0.007297  -0.022245  0.004237  3.987531  0.004
C  C49  1  0.80576228  0.65886670  0.88892123  1  0.01268  0.001671  3.726022  0.002  -0.02091  0.003553  3.999783  0.004  -0.019264  0.002891  4.018316  0.003  0.007334  -0.022295  0.004239  3.987367  0.004
C  C50  1  0.36041433  0.14788810  0.45737200  1  -0.042366  -0.001006  3.637457  0.0  -0.083028  -0.000111  3.893611  0.0  -0.081067  -0.000764  3.910746  0.0  0.011604  -0.084985  0.000488  3.883914  0.001
C  C51  1  0.63959444  0.64789200  0.95736629  1  -0.042343  -0.001063  3.637498  0.0  -0.083016  -0.000111  3.893656  0.0  -0.081046  -0.000767  3.91079  0.0  0.011502  -0.084971  0.000488  3.883955  0.001
C  C52  1  0.71165213  0.96373022  0.49412769  1  0.034038  0.000759  3.628177  0.001  -0.033309  0.001184  3.894417  0.001  -0.027859  0.00086  3.903973  0.001  -0.049965  -0.036602  0.001542  3.887516  0.001
C  C53  1  0.28834573  0.46373979  0.99412554  1  0.03403  0.000754  3.628344  0.001  -0.033267  0.001185  3.894595  0.001  -0.027817  0.000862  3.904158  0.001  -0.050016  -0.036551  0.001542  3.887679  0.001
C  C54  1  0.59752333  0.91993294  0.58028972  1  -0.297701  0.00094  3.66603  0.001  -0.340035  0.001398  3.92315  0.001  -0.346048  0.001014  3.929068  0.001  -0.169601  -0.335781  0.00175  3.918581  0.001
C  C55  1  0.40246799  0.41994166  0.08028795  1  -0.297402  0.000929  3.665863  0.001  -0.339856  0.001399  3.923081  0.001  -0.345882  0.001011  3.929031  0.001  -0.169585  -0.335612  0.001749  3.918507  0.001
C  C56  1  0.79403880  0.83477289  0.63232999  1  0.703892  0.001913  3.83949  0.002  0.656105  0.004461  4.137526  0.004  0.689432  0.003137  4.130911  0.003  0.215071  0.633334  0.005999  4.14105  0.005
C  C57  1  0.20594749  0.33477957  0.13232950  1  0.703663  0.001925  3.839361  0.002  0.655888  0.00446  4.13742  0.004  0.689213  0.00314  4.130804  0.003  0.214974  0.633119  0.005999  4.140944  0.005
N  N58  1  0.76884510  0.83746737  0.26255300  1  -0.409629  0.028694  3.192277  0.014  -0.355056  0.034128  3.489189  0.014  -0.374004  0.030478  3.502375  0.012  -0.335973  -0.340735  0.036882  3.480314  0.016
N  N59  1  0.23115164  0.33746078  0.76255116  1  -0.409814  0.028713  3.192252  0.014  -0.355261  0.034135  3.489172  0.014  -0.374215  0.030485  3.50237  0.012  -0.336067  -0.340938  0.036889  3.480302  0.016
N  N60  1  0.48645681  0.68696378  0.32345921  1  -0.079904  0.001736  3.535511  0.002  0.009012  0.003201  3.755185  0.003  -0.005249  0.002575  3.780839  0.003  -0.232392  0.018349  0.003836  3.737609  0.004
N  N61  1  0.51353808  0.18696193  0.82346065  1  -0.079925  0.001732  3.535687  0.002  0.009086  0.003202  3.755274  0.003  -0.005177  0.002572  3.78092  0.003  -0.232344  0.018423  0.003837  3.737692  0.004
N  N62  1  0.24511670  0.04396516  0.32845453  1  -0.408572  0.027527  3.20065  0.012  -0.352361  0.032384  3.496554  0.011  -0.371542  0.028971  3.509499  0.009  -0.335963  -0.338372  0.035718  3.48804  0.014
N  N63  1  0.75488455  0.54396167  0.82845058  1  -0.408608  0.027516  3.200593  0.012  -0.352391  0.032389  3.496484  0.011  -0.371575  0.028974  3.509428  0.009  -0.335998  -0.338401  0.035724  3.487969  0.014
N  N64  1  0.51549446  0.02497840  0.43791496  1  -0.078665  0.001657  3.529078  0.002  0.01233  0.003062  3.745631  0.003  -0.001904  0.002442  3.771181  0.003  -0.230532  0.021911  0.003725  3.727898  0.004
N  N65  1  0.48451146  0.52498274  0.93791186  1  -0.078838  0.001662  3.529456  0.002  0.012181  0.003064  3.745948  0.003  -0.002053  0.002443  3.771493  0.003  -0.230474  0.021761  0.003726  3.728215  0.004
O  O66  1  0.24275368  0.48188044  0.59558063  1  -0.69405  0.026045  2.067041  0.016  -0.616791  0.031399  2.318206  0.019  -0.64749  0.02814  2.305902  0.016  -0.321082  -0.594287  0.034708  2.326161  0.022
O  O67  1  0.75725723  0.98187899  0.09557844  1  -0.694151  0.026049  2.067186  0.016  -0.616892  0.031403  2.31832  0.019  -0.647595  0.028143  2.306021  0.016  -0.321105  -0.594359  0.034712  2.326228  0.022
O  O68  1  0.96341460  0.46696675  0.48498661  1  -0.624542  0.001283  1.931248  0.002  -0.568666  0.003006  2.149853  0.004  -0.593192  0.002038  2.141602  0.003  -0.314538  -0.551467  0.00413  2.155373  0.005
O  O69  1  0.03657952  0.96693379  0.98498089  1  -0.624571  0.001281  1.931155  0.002  -0.568683  0.003008  2.14966  0.004  -0.59321  0.00204  2.141412  0.003  -0.314523  -0.551488  0.004132  2.155181  0.005
O  O70  1  0.72705655  0.70910190  0.66448588  1  -0.679717  0.025196  2.045797  0.017  -0.604905  0.03191  2.293083  0.021  -0.634503  0.028447  2.280986  0.018  -0.312375  -0.583353  0.034971  2.300801  0.024
O  O71  1  0.27293412  0.20911230  0.16448481  1  -0.679731  0.025194  2.045699  0.017  -0.604927  0.031911  2.292985  0.021  -0.634523  0.028445  2.280883  0.018  -0.312414  -0.583372  0.034971  2.300697  0.024
O  O72  1  0.01500304  0.89309887  0.64031184  1  -0.628411  8.2e-05  1.963702  0.0  -0.567877  0.001097  2.182063  0.002  -0.593766  0.000524  2.174607  0.001  -0.314418  -0.54946  0.001714  2.186429  0.002
O  O73  1  0.98499329  0.39311264  0.14031845  1  -0.628336  7.8e-05  1.963762  0.0  -0.567725  0.001098  2.182072  0.002  -0.593597  0.000525  2.174594  0.001  -0.314319  -0.54931  0.001714  2.18644  0.002
O  O74  1  0.27477772  0.87837939  0.12690124  1  -0.83474  0.02951  1.859633  0.019  -0.776505  0.03812  2.063185  0.024  -0.800981  0.033664  2.028176  0.021  -0.581648  -0.75804  0.042214  2.08749  0.027
O  O75  1  0.72521285  0.37837284  0.62690061  1  -0.834697  0.02951  1.859752  0.019  -0.776451  0.038121  2.06331  0.024  -0.800928  0.033666  2.028301  0.021  -0.581608  -0.757981  0.042215  2.087612  0.027
O  O76  1  0.74815054  0.20883298  0.24074279  1  -0.840181  0.031798  1.876303  0.022  -0.782402  0.040156  2.082587  0.027  -0.80721  0.035439  2.048167  0.023  -0.58246  -0.763564  0.044081  2.107708  0.029
O  O77  1  0.25185099  0.70882143  0.74073425  1  -0.840309  0.031803  1.876429  0.022  -0.782551  0.040161  2.082549  0.027  -0.807358  0.035441  2.048126  0.023  -0.582497  -0.763708  0.044086  2.107669  0.029
