# generated using pymatgen
data_Zn3H6C35(I4O11)2
_symmetry_space_group_name_H-M   'P 1'
_cell_length_a   21.99781426
_cell_length_b   21.90345099
_cell_length_c   22.24583850
_cell_angle_alpha   119.10770288
_cell_angle_beta   119.63114613
_cell_angle_gamma   89.99900490
_symmetry_Int_Tables_number   1
_chemical_formula_structural   Zn3H6C35(I4O11)2
_chemical_formula_sum   'Zn6 H12 C70 I16 O44'
_cell_volume   7721.35837020
_cell_formula_units_Z   2
loop_
 _symmetry_equiv_pos_site_id
 _symmetry_equiv_pos_as_xyz
  1  'x, y, z'
loop_
 _atom_site_type_symbol
 _atom_site_label
 _atom_site_symmetry_multiplicity
 _atom_site_fract_x
 _atom_site_fract_y
 _atom_site_fract_z
 _atom_site_occupancy
 _atom_site_pbe_bader_charge
 _atom_site_pbe_bader_spin_density
 _atom_site_pbe_cm5_charge
 _atom_site_pbe_ddec_charge
 _atom_site_pbe_ddec_spin_density
 _atom_site_pbe_ddec_sum_bond_order
 _atom_site_pbe_magmom
Zn  Zn0  1  0.44011461  0.49998138  0.99998319  1  1.306841  0  0.744836  0.978159  0  2.065824  0
Zn  Zn1  1  0.55824329  0.50002095  0.00000966  1  1.304068  0  0.748778  0.987431  0  2.036222  0
Zn  Zn2  1  0.00080524  0.94088768  0.99992883  1  1.302023  0  0.743469  0.99511  0  2.029444  0
Zn  Zn3  1  0.00087346  0.05911576  0.00008286  1  1.302836  0  0.743536  0.995265  0  2.029359  0
Zn  Zn4  1  0.54179446  0.04099178  0.08088722  1  1.30132  0  0.74121  1.001887  0  2.022035  0
Zn  Zn5  1  0.46095709  0.95902931  0.91916394  1  1.294352  0  0.741035  1.001524  0  2.022565  0
H  H6  1  0.60752929  0.24073881  0.10318699  1  0.129443  0  0.121094  0.13511  0  0.968249  0
H  H7  1  0.50431321  0.75925021  0.89680792  1  0.124935  0  0.121103  0.135073  0  0.968029  0
H  H8  1  0.37719605  0.15377107  0.64679638  1  0.630769  0  0.358795  0.396745  0  0.826094  0
H  H9  1  0.72949796  0.84628688  0.35301487  1  0.631015  0  0.358891  0.397362  0  0.825462  0
H  H10  1  0.27533303  0.27238769  0.84311520  1  0.625576  0  0.352087  0.393084  0  0.832209  0
H  H11  1  0.43208297  0.72753610  0.15675281  1  0.609197  0  0.352204  0.393188  0  0.83219  0
H  H12  1  0.35692848  0.15964340  0.35742298  1  0.625337  0  0.350411  0.389216  0  0.843347  0
H  H13  1  0.99946257  0.84108363  0.64255055  1  0.626043  0  0.350646  0.389592  0  0.842564  0
H  H14  1  0.11511744  0.34471206  0.35507716  1  0.623513  0  0.356504  0.394387  0  0.830551  0
H  H15  1  0.76072575  0.65510477  0.64495633  1  0.623474  0  0.356529  0.394656  0  0.83011  0
H  H16  1  0.66922258  0.47641197  0.20946481  1  0.619219  0  0.334197  0.37135  0  0.883564  0
H  H17  1  0.45975104  0.52358894  0.79058179  1  0.631956  0  0.334067  0.371082  0  0.883583  0
C  C18  1  0.49937391  0.38344928  0.00300045  1  1.59691  0  0.22488  0.609747  0  4.173434  0
C  C19  1  0.49635722  0.61657521  0.99703156  1  1.609558  0  0.224604  0.609391  0  4.174105  0
C  C20  1  0.20768931  0.20673653  0.41263009  1  0.11131  0  0.015821  0.102262  0  3.768978  0
C  C21  1  0.79512681  0.79328390  0.58737772  1  0.107157  0  0.015557  0.102714  0  3.768629  0
C  C22  1  0.30178723  0.30808165  0.52788967  1  -0.133939  0  -0.018462  0.025625  0  3.520684  0
C  C23  1  0.77412187  0.69205607  0.47211211  1  -0.120659  0  -0.018937  0.024712  0  3.521972  0
C  C24  1  0.29391571  0.22491391  0.47094736  1  0.04102  0  0.013766  -0.055137  0  3.60113  0
C  C25  1  0.82297439  0.77530983  0.52903530  1  0.025543  0  0.014368  -0.055564  0  3.602468  0
C  C26  1  0.33772554  0.33656379  0.67422726  1  -0.151074  0  -0.027125  -0.016395  0  4.071151  0
C  C27  1  0.66352070  0.66343353  0.32576433  1  -0.100392  0  -0.027359  -0.016621  0  4.071594  0
C  C28  1  0.16367391  0.16184271  0.32465655  1  -0.210006  0  -0.025233  -0.00653  0  4.051248  0
C  C29  1  0.83907070  0.83818210  0.67534427  1  -0.248855  0  -0.025101  -0.006671  0  4.051347  0
C  C30  1  0.56156883  0.31030079  0.06213641  1  0.055218  0  -0.002067  -0.039041  0  3.938027  0
C  C31  1  0.49941078  0.68971574  0.93788838  1  0.063363  0  -0.002213  -0.039216  0  3.938647  0
C  C32  1  0.55870598  0.24469794  0.05803544  1  -0.01785  0  -0.061905  -0.087736  0  3.907607  0
C  C33  1  0.50066466  0.75531533  0.94198834  1  -0.014607  0  -0.061937  -0.087497  0  3.907944  0
C  C34  1  0.49453208  0.18397536  0.99736868  1  0.004236  0  -0.013451  -0.044834  0  3.956023  0
C  C35  1  0.49718448  0.81604593  0.00267287  1  0.014136  0  -0.013203  -0.04479  0  3.95621  0
C  C36  1  0.43118783  0.18909599  0.93946569  1  -0.172514  0  -0.031454  0.022698  0  3.846462  0
C  C37  1  0.49170346  0.81091894  0.06055117  1  -0.20367  0  -0.03157  0.022715  0  3.846188  0
C  C38  1  0.43330906  0.25488398  0.94305140  1  0.052139  0  -0.006089  -0.067548  0  3.919379  0
C  C39  1  0.49023094  0.74512816  0.05695441  1  0.054668  0  -0.006104  -0.067608  0  3.920049  0
C  C40  1  0.41984890  0.41953070  0.83959174  1  1.585106  0  0.232479  0.681402  0  4.211271  0
C  C41  1  0.58022146  0.58050459  0.16040007  1  1.6213  0  0.231866  0.68022  0  4.212064  0
C  C42  1  0.49856300  0.31522952  0.00382471  1  -0.030398  0  0.010872  -0.025372  0  3.858636  0
C  C43  1  0.49470929  0.68478066  0.99618661  1  -0.023191  0  0.011015  -0.025345  0  3.859795  0
C  C44  1  0.88338582  0.00005189  0.00001794  1  1.610109  0  0.207468  0.601587  0  4.199325  0
C  C45  1  0.08052966  0.07765457  0.15941053  1  1.612242  0  0.225734  0.669012  0  4.222692  0
C  C46  1  0.92113536  0.92229274  0.84060104  1  1.623437  0  0.225424  0.668509  0  4.223286  0
C  C47  1  0.11856007  0.00000145  0.00000724  1  1.6073  0  0.205743  0.598603  0  4.206896  0
C  C48  1  0.38391691  0.00000133  0.99996944  1  1.602837  0  0.207814  0.604462  0  4.183019  0
C  C49  1  0.49817587  0.11630725  0.99865784  1  1.570883  0  0.219546  0.608759  0  4.154719  0
C  C50  1  0.49958440  0.88374046  0.00144059  1  1.581908  0  0.218946  0.607813  0  4.156181  0
C  C51  1  0.61834921  0.99997873  0.99999387  1  1.602993  0  0.208944  0.605138  0  4.186291  0
C  C52  1  0.75409735  0.00840496  0.94273819  1  -0.172284  0  -0.049726  0.008241  0  3.865879  0
C  C53  1  0.81138533  0.99163267  0.05729373  1  -0.171897  0  -0.049927  0.008137  0  3.866266  0
C  C54  1  0.69202281  0.01270773  0.94614336  1  -0.167358  0  -0.049267  0.01065  0  3.866982  0
C  C55  1  0.74589980  0.98729779  0.05387091  1  -0.173196  0  -0.049222  0.010619  0  3.867402  0
C  C56  1  0.68695705  0.99999453  0.00000722  1  0.084877  0  -0.020324  -0.060353  0  3.921211  0
C  C57  1  0.20005098  0.19059705  0.47119268  1  -0.138537  0  -0.030275  0.006748  0  3.553577  0
C  C58  1  0.72874217  0.80926263  0.52881566  1  -0.12511  0  -0.030196  0.006728  0  3.552827  0
C  C59  1  0.81468591  0.00003075  0.00002010  1  0.022648  0  -0.019557  -0.054968  0  3.912443  0
C  C60  1  0.24838845  0.06454915  0.05798486  1  -0.156038  0  -0.05166  0.005156  0  3.873586  0
C  C61  1  0.19039222  0.93546509  0.94199388  1  -0.169835  0  -0.051394  0.005477  0  3.873617  0
C  C62  1  0.31026552  0.06580433  0.05423213  1  -0.216867  0  -0.050877  0.006558  0  3.871849  0
C  C63  1  0.25601674  0.93420616  0.94572414  1  -0.230196  0  -0.050981  0.006478  0  3.872174  0
C  C64  1  0.31526378  0.00000659  0.99997290  1  0.08839  0  -0.022458  -0.06018  0  3.915873  0
C  C65  1  0.18733723  0.00000596  0.99999712  1  0.082903  0  -0.019375  -0.053926  0  3.91598  0
C  C66  1  0.28623445  0.20923748  0.52884756  1  0.014951  0  0.013931  -0.049162  0  3.600267  0
C  C67  1  0.75720426  0.79082771  0.47113571  1  0.034224  0  0.013366  -0.049629  0  3.6014  0
C  C68  1  0.37523935  0.37545669  0.75002283  1  -0.015608  0  -0.026325  -0.147591  0  3.92303  0
C  C69  1  0.62518905  0.62458191  0.24997620  1  -0.031571  0  -0.026115  -0.147172  0  3.923105  0
C  C70  1  0.12510703  0.12225918  0.24891918  1  0.073693  0  -0.031917  -0.154126  0  3.935169  0
C  C71  1  0.87621885  0.87771343  0.75108954  1  0.113142  0  -0.031873  -0.153999  0  3.935209  0
C  C72  1  0.20762863  0.27336784  0.52754851  1  -0.136541  0  -0.031536  0.011901  0  3.556569  0
C  C73  1  0.68018504  0.72639368  0.47246095  1  -0.1432  0  -0.031351  0.012514  0  3.555265  0
C  C74  1  0.29401895  0.29228645  0.58644326  1  0.170067  0  0.010242  0.089775  0  3.803151  0
C  C75  1  0.70761186  0.70768942  0.41355553  1  0.085834  0  0.010231  0.089797  0  3.803066  0
C  C76  1  0.21607651  0.29018703  0.47024079  1  0.038369  0  0.001952  -0.072282  0  3.627252  0
C  C77  1  0.74612764  0.70975837  0.52978484  1  0.020118  0  0.002069  -0.071951  0  3.627155  0
C  C78  1  0.32152840  0.15949272  0.55280464  1  1.589042  0  0.228521  0.57928  0  4.152615  0
C  C79  1  0.76821372  0.84061864  0.44710766  1  1.578895  0  0.228898  0.580074  0  4.15265  0
C  C80  1  0.36909945  0.26036710  0.87746444  1  1.547622  0  0.223457  0.57955  0  4.172057  0
C  C81  1  0.49157148  0.73966003  0.12252658  1  1.566288  0  0.223391  0.57948  0  4.17226  0
C  C82  1  0.34752024  0.20219681  0.44854497  1  1.573591  0  0.228845  0.5819  0  4.140059  0
C  C83  1  0.89892890  0.79821443  0.55137848  1  1.558268  0  0.228511  0.582291  0  4.140176  0
C  C84  1  0.18192480  0.34073651  0.44739257  1  1.545118  0  0.222363  0.575477  0  4.155202  0
C  C85  1  0.73507121  0.65915156  0.55265282  1  1.544519  0  0.222367  0.576549  0  4.154054  0
C  C86  1  0.63229247  0.37255401  0.13100964  1  1.556674  0  0.232402  0.584924  0  4.12002  0
C  C87  1  0.50126753  0.62747041  0.86901880  1  1.542207  0  0.231985  0.584145  0  4.120687  0
I  I88  1  0.75538248  0.00754962  0.84830825  1  0.165614  0  0.081608  0.003532  0  1.568315  0
I  I89  1  0.90709076  0.99249485  0.15173353  1  0.171115  0  0.081681  0.003599  0  1.567937  0
I  I90  1  0.60933155  0.04438417  0.87684166  1  0.163826  0  0.082894  0.014511  0  1.520309  0
I  I91  1  0.73249554  0.95561560  0.12316805  1  0.164037  0  0.082884  0.014524  0  1.520174  0
I  I92  1  0.24795210  0.15586668  0.15412427  1  0.169533  0  0.09099  0.019553  0  1.553468  0
I  I93  1  0.09382316  0.84414635  0.84589541  1  0.171451  0  0.090943  0.01947  0  1.553376  0
I  I94  1  0.39219853  0.16644353  0.12336778  1  0.167742  0  0.084249  0.011551  0  1.545012  0
I  I95  1  0.26881262  0.83355956  0.87660108  1  0.169396  0  0.084251  0.01158  0  1.544942  0
I  I96  1  0.12157147  0.09848523  0.42650831  1  0.151812  0  0.079277  -0.002053  0  1.348702  0
I  I97  1  0.69475703  0.90122181  0.57356296  1  0.151502  0  0.079299  -0.00198  0  1.347936  0
I  I98  1  0.38231464  0.39907080  0.57275506  1  0.150278  0  0.09179  0.005933  0  1.301013  0
I  I99  1  0.81009130  0.60132041  0.42729131  1  0.150621  0  0.091895  0.006272  0  1.301309  0
I  I100  1  0.14097729  0.31052231  0.57116833  1  0.148879  0  0.074428  -0.005682  0  1.320599  0
I  I101  1  0.56999020  0.68879624  0.42884921  1  0.149497  0  0.074412  -0.005929  0  1.319847  0
I  I102  1  0.33172403  0.10084016  0.84867327  1  0.163554  0  0.090311  0.017464  0  1.438404  0
I  I103  1  0.48291369  0.89913607  0.15126334  1  0.167223  0  0.090417  0.017559  0  1.438321  0
O  O104  1  0.44902414  0.41103982  0.00574312  1  -1.137991  0  -0.305226  -0.536531  0  2.289219  0
O  O105  1  0.44324851  0.58894373  0.99423674  1  -1.138062  0  -0.305366  -0.536589  0  2.289039  0
O  O106  1  0.52527236  0.12627459  0.06962455  1  -1.136591  0  -0.308793  -0.540888  0  2.306252  0
O  O107  1  0.45572622  0.87379991  0.93049179  1  -1.141103  0  -0.308682  -0.540541  0  2.307103  0
O  O108  1  0.47595873  0.05548028  0.93020610  1  -1.14648  0  -0.311861  -0.55904  0  2.391357  0
O  O109  1  0.54581549  0.94455875  0.06991556  1  -1.151825  0  -0.311368  -0.558321  0  2.391247  0
O  O110  1  0.62616686  0.04840361  0.06790167  1  -1.14692  0  -0.311065  -0.541654  0  2.30418  0
O  O111  1  0.55827804  0.95154427  0.93207157  1  -1.154409  0  -0.311028  -0.541279  0  2.303781  0
O  O112  1  0.54857032  0.40622561  0.99778901  1  -1.138678  0  -0.304425  -0.537325  0  2.271909  0
O  O113  1  0.55080429  0.59384646  0.00231788  1  -1.141086  0  -0.304159  -0.537076  0  2.272624  0
O  O114  1  0.38561401  0.43408904  0.87493593  1  -1.120888  0  -0.305591  -0.538567  0  2.238196  0
O  O115  1  0.51063890  0.56588780  0.12503142  1  -1.111003  0  -0.305539  -0.53824  0  2.238177  0
O  O116  1  0.48962395  0.44009610  0.87510776  1  -1.121482  0  -0.30723  -0.540573  0  2.229757  0
O  O117  1  0.61450002  0.55997892  0.12490647  1  -1.118287  0  -0.306805  -0.539914  0  2.2302  0
O  O118  1  0.90014634  0.94079697  0.98143048  1  -1.148953  0  -0.31036  -0.54132  0  2.299813  0
O  O119  1  0.91870938  0.05930254  0.01858275  1  -1.14713  0  -0.310509  -0.541488  0  2.300072  0
O  O120  1  0.05288115  0.00876518  0.12381552  1  -1.13382  0  -0.307075  -0.539493  0  2.270976  0
O  O121  1  0.92906631  0.99117980  0.87620274  1  -1.131999  0  -0.306705  -0.539153  0  2.271219  0
O  O122  1  0.07289276  0.11138038  0.12383830  1  -1.12589  0  -0.307842  -0.54354  0  2.272598  0
O  O123  1  0.94909286  0.88857368  0.87617746  1  -1.130833  0  -0.308004  -0.543475  0  2.27295  0
O  O124  1  0.10150696  0.95857472  0.01783385  1  -1.146496  0  -0.309681  -0.541678  0  2.297309  0
O  O125  1  0.08366766  0.04142665  0.98218824  1  -1.146478  0  -0.309892  -0.54196  0  2.297394  0
O  O126  1  0.44439609  0.02130923  0.06868626  1  -1.145293  0  -0.311546  -0.553927  0  2.356786  0
O  O127  1  0.37568035  0.97867349  0.93125230  1  -1.146673  0  -0.311272  -0.553381  0  2.356187  0
O  O128  1  0.31590306  0.09833008  0.50150290  1  -1.120454  0  -0.286469  -0.470747  0  2.059047  0
O  O129  1  0.35695697  0.18958649  0.63532236  1  -1.10593  0  -0.312111  -0.449194  0  2.242865  0
O  O130  1  0.81372659  0.90187159  0.49833893  1  -1.123705  0  -0.287143  -0.471207  0  2.058407  0
O  O131  1  0.72100927  0.81045361  0.36458763  1  -1.109725  0  -0.311855  -0.450059  0  2.24373  0
O  O132  1  0.36807732  0.25692116  0.82056629  1  -1.108437  0  -0.283256  -0.470507  0  2.083434  0
O  O133  1  0.31414170  0.27000916  0.88900098  1  -1.11311  0  -0.330876  -0.47498  0  2.242596  0
O  O134  1  0.54743850  0.74312968  0.17945471  1  -1.128754  0  -0.283382  -0.470559  0  2.083523  0
O  O135  1  0.42505633  0.72997132  0.11092115  1  -1.094601  0  -0.330738  -0.474886  0  2.243211  0
O  O136  1  0.41099147  0.21243323  0.50024530  1  -1.116968  0  -0.282547  -0.463392  0  2.057433  0
O  O137  1  0.31822866  0.17202243  0.36680530  1  -1.119498  0  -0.323167  -0.473774  0  2.259019  0
O  O138  1  0.91062648  0.78796699  0.49962244  1  -1.102259  0  -0.282519  -0.463758  0  2.056592  0
O  O139  1  0.95139985  0.82855011  0.63314265  1  -1.114594  0  -0.322919  -0.473794  0  2.258814  0
O  O140  1  0.19522512  0.40481895  0.49976157  1  -1.119436  0  -0.285713  -0.474753  0  2.09053  0
O  O141  1  0.13540844  0.30771336  0.36389612  1  -1.102506  0  -0.320438  -0.459748  0  2.22017  0
O  O142  1  0.69613187  0.59502844  0.50030017  1  -1.117783  0  -0.285942  -0.475617  0  2.089879  0
O  O143  1  0.77209416  0.69215125  0.63614788  1  -1.102765  0  -0.320358  -0.460302  0  2.219382  0
O  O144  1  0.69318523  0.36484045  0.15505836  1  -1.11989  0  -0.295747  -0.480658  0  2.033863  0
O  O145  1  0.62083405  0.43816588  0.16626910  1  -1.120246  0  -0.330457  -0.47648  0  2.271279  0
O  O146  1  0.53812513  0.63515392  0.84497114  1  -1.117821  0  -0.295406  -0.480096  0  2.034224  0
O  O147  1  0.45454645  0.56186191  0.83375703  1  -1.130563  0  -0.330467  -0.476229  0  2.27139  0
