# generated using pymatgen
data_ZnH23C31S2NO6
_symmetry_space_group_name_H-M   'P 1'
_cell_length_a   10.15401680
_cell_length_b   12.42072057
_cell_length_c   12.67665916
_cell_angle_alpha   64.65885099
_cell_angle_beta   72.33622771
_cell_angle_gamma   86.50041222
_symmetry_Int_Tables_number   1
_chemical_formula_structural   ZnH23C31S2NO6
_chemical_formula_sum   'Zn2 H46 C62 S4 N2 O12'
_cell_volume   1372.41209743
_cell_formula_units_Z   2
loop_
 _symmetry_equiv_pos_site_id
 _symmetry_equiv_pos_as_xyz
  1  'x, y, z'
loop_
 _atom_site_type_symbol
 _atom_site_label
 _atom_site_symmetry_multiplicity
 _atom_site_fract_x
 _atom_site_fract_y
 _atom_site_fract_z
 _atom_site_occupancy
 _atom_site_pbe_bader_spin_density
 _atom_site_pbe_cm5_charge
 _atom_site_pbe_ddec_charge
 _atom_site_pbe_ddec_spin_density
 _atom_site_pbe_ddec_sum_bond_order
 _atom_site_pbe_magmom
Zn  Zn0  1  0.99829750  0.56474014  0.36915980  1  0  0.68616  0.850033  0  2.342574  0
Zn  Zn1  1  0.00170432  0.43525607  0.63084200  1  0  0.686107  0.850021  0  2.342654  0
H  H2  1  0.52766326  0.26787416  0.08128557  1  0  0.094309  0.093165  0  1.052971  0
H  H3  1  0.47232842  0.73213543  0.91871705  1  0  0.094351  0.093245  0  1.052833  0
H  H4  1  0.06513883  0.85738885  0.35480427  1  0  0.102969  0.110645  0  1.035249  0
H  H5  1  0.93486990  0.14260378  0.64519660  1  0  0.102985  0.110692  0  1.035285  0
H  H6  1  0.78440162  0.36824844  0.24659889  1  0  0.095493  0.104257  0  1.037531  0
H  H7  1  0.21560214  0.63174601  0.75340082  1  0  0.095511  0.104311  0  1.037513  0
H  H8  1  0.07732785  0.28061868  0.29790587  1  0  0.103954  0.112317  0  1.034364  0
H  H9  1  0.92267307  0.71937846  0.70209260  1  0  0.103965  0.112337  0  1.034391  0
H  H10  1  0.85338558  0.96884490  0.34967700  1  0  0.091459  0.086142  0  1.043176  0
H  H11  1  0.14662119  0.03114864  0.65032236  1  0  0.091428  0.086117  0  1.043167  0
H  H12  1  0.86185480  0.18053682  0.31554606  1  0  0.087745  0.078288  0  1.078703  0
H  H13  1  0.13814880  0.81945584  0.68445363  1  0  0.087732  0.078283  0  1.078731  0
H  H14  1  0.53980400  0.84317823  0.98427660  1  0  0.095101  0.088206  0  1.035724  0
H  H15  1  0.46021057  0.15682236  0.01572514  1  0  0.095087  0.088171  0  1.0356  0
H  H16  1  0.52948357  0.97117005  0.09226468  1  0  0.097691  0.095221  0  1.035415  0
H  H17  1  0.47052763  0.02883777  0.90772936  1  0  0.097674  0.09518  0  1.035576  0
H  H18  1  0.64687774  0.68027338  0.37942304  1  0  0.098081  0.110213  0  1.035629  0
H  H19  1  0.35311998  0.31972203  0.62057296  1  0  0.09806  0.110177  0  1.035642  0
H  H20  1  0.82386539  0.57364662  0.86352537  1  0  0.096621  0.097728  0  1.050651  0
H  H21  1  0.17612782  0.42635759  0.13647990  1  0  0.096619  0.097736  0  1.050619  0
H  H22  1  0.89693865  0.53620562  0.04721974  1  0  0.096036  0.088961  0  1.040968  0
H  H23  1  0.10306521  0.46379057  0.95278317  1  0  0.095998  0.088883  0  1.040986  0
H  H24  1  0.59637765  0.63054738  0.07752504  1  0  0.100227  0.099697  0  1.028611  0
H  H25  1  0.40362588  0.36945514  0.92246903  1  0  0.100237  0.099741  0  1.028603  0
H  H26  1  0.63886554  0.44122309  0.88187496  1  0  0.10025  0.101405  0  1.009341  0
H  H27  1  0.36111994  0.55878735  0.11813350  1  0  0.100258  0.101385  0  1.009224  0
H  H28  1  0.64742422  0.54993198  0.27671541  1  0  0.098332  0.096996  0  1.025064  0
H  H29  1  0.35257247  0.45006343  0.72328082  1  0  0.098329  0.096995  0  1.025104  0
H  H30  1  0.25493745  0.77479751  0.53604290  1  0  0.103276  0.083824  0  1.038991  0
H  H31  1  0.74506494  0.22520411  0.46395260  1  0  0.103291  0.083776  0  1.038996  0
H  H32  1  0.39076962  0.69990638  0.47554495  1  0  0.101789  0.084556  0  1.015193  0
H  H33  1  0.60922215  0.30009339  0.52446090  1  0  0.101791  0.084525  0  1.015069  0
H  H34  1  0.41389251  0.36893307  0.37319483  1  0  0.107804  0.098467  0  0.973964  0
H  H35  1  0.58610055  0.63106689  0.62679486  1  0  0.107839  0.098439  0  0.973839  0
H  H36  1  0.32006899  0.22771421  0.47311567  1  0  0.097245  0.072222  0  1.066248  0
H  H37  1  0.67993207  0.77229377  0.52686885  1  0  0.097185  0.07218  0  1.066151  0
H  H38  1  0.88687142  0.62785465  0.16265682  1  0  0.118177  0.085096  0  1.032577  0
H  H39  1  0.11312841  0.37214328  0.83735105  1  0  0.118197  0.085081  0  1.032648  0
H  H40  1  0.20382130  0.77567056  0.21356884  1  0  0.119388  0.097806  0  1.032433  0
H  H41  1  0.79617533  0.22432564  0.78643576  1  0  0.119376  0.097841  0  1.032416  0
H  H42  1  0.11578496  0.95275225  0.86823723  1  0  0.102328  0.092431  0  1.032381  0
H  H43  1  0.88420856  0.04724312  0.13176370  1  0  0.102335  0.092424  0  1.032475  0
H  H44  1  0.25495639  0.94631079  0.00340054  1  0  0.101945  0.10366  0  1.039278  0
H  H45  1  0.74504366  0.05368813  0.99659820  1  0  0.101918  0.103644  0  1.039283  0
H  H46  1  0.92677642  0.78959367  0.94971749  1  0  0.108951  0.11504  0  1.004469  0
H  H47  1  0.07321925  0.21040342  0.05028776  1  0  0.10893  0.114984  0  1.00451  0
C  C48  1  0.31437495  0.94297985  0.33294083  1  0  0.072342  0.13915  0  4.04763  0
C  C49  1  0.68563445  0.05701909  0.66705255  1  0  0.072347  0.139145  0  4.04755  0
C  C50  1  0.19343127  0.00631654  0.32658544  1  0  -0.01391  0.002178  0  4.007553  0
C  C51  1  0.80656946  0.99367880  0.67341540  1  0  -0.013933  0.002082  0  4.007661  0
C  C52  1  0.43804459  0.99775478  0.31947287  1  0  -0.024534  -0.079865  0  4.053767  0
C  C53  1  0.56195672  0.00224680  0.68052606  1  0  -0.024493  -0.079745  0  4.053861  0
C  C54  1  0.32150725  0.18007629  0.30486769  1  0  0.085006  0.162892  0  4.03665  0
C  C55  1  0.67848841  0.81991996  0.69513317  1  0  0.08497  0.162917  0  4.036647  0
C  C56  1  0.60896551  0.32678695  0.07310216  1  0  -0.101616  -0.141899  0  4.000284  0
C  C57  1  0.39102174  0.67321995  0.92690419  1  0  -0.101714  -0.142047  0  4.000629  0
C  C58  1  0.43974286  0.11719842  0.30969894  1  0  -0.027316  -0.091707  0  4.044247  0
C  C59  1  0.56025660  0.88280582  0.69030169  1  0  -0.027392  -0.091794  0  4.044363  0
C  C60  1  0.19709782  0.12756497  0.31067034  1  0  -0.014532  -0.006531  0  4.005953  0
C  C61  1  0.80289972  0.87242865  0.68932642  1  0  -0.014461  -0.00657  0  4.005819  0
C  C62  1  0.65108076  0.30434247  0.17552269  1  0  -0.010693  0.069902  0  4.025045  0
C  C63  1  0.34891818  0.69565722  0.82448625  1  0  -0.010683  0.06998  0  4.024901  0
C  C64  1  0.58609238  0.83355439  0.24302474  1  0  -0.010236  0.068621  0  4.022224  0
C  C65  1  0.41391001  0.16644806  0.75697594  1  0  -0.0102  0.068651  0  4.02211  0
C  C66  1  0.06742969  0.95016978  0.34077064  1  0  -0.091065  -0.11431  0  3.947097  0
C  C67  1  0.93257016  0.04982733  0.65923046  1  0  -0.091123  -0.114336  0  3.947273  0
C  C68  1  0.75340356  0.38159864  0.16680438  1  0  -0.106933  -0.153367  0  3.986148  0
C  C69  1  0.24659809  0.61839578  0.83319820  1  0  -0.106896  -0.15343  0  3.985975  0
C  C70  1  0.07487903  0.18909014  0.30797724  1  0  -0.089734  -0.114331  0  3.954023  0
C  C71  1  0.92512925  0.81090791  0.69201676  1  0  -0.089722  -0.114292  0  3.954004  0
C  C72  1  0.95037807  0.01233969  0.33787312  1  0  -0.091719  -0.07304  0  4.007678  0
C  C73  1  0.04961888  0.98765924  0.66212634  1  0  -0.091642  -0.072976  0  4.007673  0
C  C74  1  0.95472725  0.13251498  0.32023257  1  0  -0.096185  -0.084843  0  4.024408  0
C  C75  1  0.04527925  0.86748577  0.67975917  1  0  -0.096204  -0.084909  0  4.024453  0
C  C76  1  0.56082429  0.80644840  0.07208652  1  0  -0.093554  -0.077937  0  4.012653  0
C  C77  1  0.43918171  0.19355940  0.92791112  1  0  -0.093533  -0.077861  0  4.012594  0
C  C78  1  0.55732644  0.87930330  0.13100544  1  0  -0.095942  -0.131467  0  4.007268  0
C  C79  1  0.44267407  0.12070095  0.86899415  1  0  -0.095925  -0.131477  0  4.007302  0
C  C80  1  0.61941840  0.71502276  0.29471269  1  0  -0.095335  -0.128975  0  3.960381  0
C  C81  1  0.38057666  0.28497797  0.70528568  1  0  -0.095211  -0.128741  0  3.960229  0
C  C82  1  0.77546858  0.49927797  0.95157637  1  0  -0.09991  -0.097256  0  4.002414  0
C  C83  1  0.22453410  0.50072801  0.04842595  1  0  -0.099878  -0.097314  0  4.002535  0
C  C84  1  0.81563933  0.47785858  0.05435269  1  0  -0.096471  -0.081783  0  4.036824  0
C  C85  1  0.18436439  0.52213667  0.94565379  1  0  -0.096416  -0.08158  0  4.036817  0
C  C86  1  0.59220917  0.68732894  0.12418786  1  0  -0.093183  -0.086704  0  3.989443  0
C  C87  1  0.40778672  0.31266997  0.87581343  1  0  -0.093193  -0.086737  0  3.989647  0
C  C88  1  0.67087429  0.42414217  0.96189301  1  0  -0.087839  -0.057498  0  3.996801  0
C  C89  1  0.32911781  0.57587106  0.03810250  1  0  -0.087883  -0.057478  0  3.997192  0
C  C90  1  0.62111268  0.64214435  0.23551940  1  0  -0.091491  -0.073949  0  4.002588  0
C  C91  1  0.37888954  0.35785548  0.76447687  1  0  -0.091553  -0.074079  0  4.002685  0
C  C92  1  0.18543442  0.63615545  0.50201857  1  0  0.212216  0.613738  0  4.14992  0
C  C93  1  0.81456077  0.36384621  0.49797703  1  0  0.212249  0.613676  0  4.149951  0
C  C94  1  0.29026758  0.73675585  0.46923732  1  0  -0.065968  -0.117268  0  3.882569  0
C  C95  1  0.70973085  0.26323766  0.53076875  1  0  -0.066003  -0.11723  0  3.882564  0
C  C96  1  0.31982265  0.31330400  0.39552277  1  0  -0.067171  -0.121301  0  3.886189  0
C  C97  1  0.68017875  0.68669765  0.60447058  1  0  -0.067132  -0.121254  0  3.885978  0
C  C98  1  0.96794439  0.69989340  0.12279411  1  0  0.051589  0.093356  0  3.925804  0
C  C99  1  0.03205392  0.30010991  0.87720953  1  0  0.051561  0.093361  0  3.92611  0
C  C100  1  0.14551435  0.78321288  0.15154150  1  0  0.051745  0.095358  0  3.900886  0
C  C101  1  0.85448850  0.21678333  0.84846006  1  0  0.051676  0.095272  0  3.900743  0
C  C102  1  0.09490648  0.88066928  0.96025327  1  0  -0.060542  -0.017069  0  3.954583  0
C  C103  1  0.90508936  0.11932960  0.03975120  1  0  -0.060523  -0.017067  0  3.95432  0
C  C104  1  0.17321112  0.87682772  0.03494616  1  0  -0.082753  -0.123689  0  3.966455  0
C  C105  1  0.82678753  0.12316761  0.96505596  1  0  -0.082747  -0.123704  0  3.966288  0
C  C106  1  0.99032337  0.79032929  0.00495835  1  0  -0.079104  -0.119064  0  3.951148  0
C  C107  1  0.00966893  0.20967584  0.99504438  1  0  -0.079142  -0.119044  0  3.951089  0
C  C108  1  0.19439555  0.37783671  0.43310797  1  0  0.21334  0.613329  0  4.139242  0
C  C109  1  0.80560792  0.62217484  0.56687452  1  0  0.213279  0.613081  0  4.13971  0
S  S110  1  0.58772705  0.17707515  0.31756360  1  0  0.022217  -0.015396  0  2.910607  0
S  S111  1  0.41228027  0.82292462  0.68243624  1  0  0.022195  -0.015477  0  2.910607  0
S  S112  1  0.59290966  0.92476555  0.31787468  1  0  0.027312  -0.014689  0  2.883986  0
S  S113  1  0.40709220  0.07523069  0.68212473  1  0  0.02724  -0.014796  0  2.883994  0
N  N114  1  0.04367726  0.69633001  0.19478767  1  0  -0.327764  -0.22122  0  3.543653  0
N  N115  1  0.95632763  0.30366617  0.80521500  1  0  -0.327663  -0.221114  0  3.543614  0
O  O116  1  0.30512562  0.82702676  0.34795704  1  0  -0.187276  -0.187785  0  2.629024  0
O  O117  1  0.69487561  0.17297393  0.65204227  1  0  -0.187291  -0.187777  0  2.628985  0
O  O118  1  0.32279299  0.29620658  0.28973501  1  0  -0.186509  -0.188623  0  2.591121  0
O  O119  1  0.67720028  0.70379685  0.71026109  1  0  -0.186471  -0.188518  0  2.59119  0
O  O120  1  0.14066241  0.44441940  0.35175186  1  0  -0.306424  -0.53214  0  2.353313  0
O  O121  1  0.85934355  0.55558754  0.64824298  1  0  -0.306488  -0.532119  0  2.352916  0
O  O122  1  0.13779006  0.64040951  0.41926843  1  0  -0.31087  -0.561614  0  2.389366  0
O  O123  1  0.86220830  0.35958395  0.58074163  1  0  -0.310983  -0.56171  0  2.389027  0
O  O124  1  0.15912909  0.36027912  0.54474647  1  0  -0.3154  -0.547349  0  2.334227  0
O  O125  1  0.84087422  0.63972158  0.45525156  1  0  -0.315279  -0.547119  0  2.334806  0
O  O126  1  0.15431054  0.55514002  0.61191069  1  0  -0.319064  -0.542211  0  2.241657  0
O  O127  1  0.84568538  0.44485975  0.38809340  1  0  -0.319003  -0.54206  0  2.241963  0
