# generated using pymatgen
data_Zr3H24C30BrO16
_symmetry_space_group_name_H-M   'P 1'
_cell_length_a   14.77228179
_cell_length_b   14.77627746
_cell_length_c   14.78515338
_cell_angle_alpha   60.23164443
_cell_angle_beta   60.00986158
_cell_angle_gamma   59.95883045
_symmetry_Int_Tables_number   1
_chemical_formula_structural   Zr3H24C30BrO16
_chemical_formula_sum   'Zr6 H48 C60 Br2 O32'
_cell_volume   2285.46545120
_cell_formula_units_Z   2
loop_
 _symmetry_equiv_pos_site_id
 _symmetry_equiv_pos_as_xyz
  1  'x, y, z'
loop_
 _atom_site_type_symbol
 _atom_site_label
 _atom_site_symmetry_multiplicity
 _atom_site_fract_x
 _atom_site_fract_y
 _atom_site_fract_z
 _atom_site_occupancy
 _atom_site_pbe_bader_charge
 _atom_site_pbe_bader_spin_density
 _atom_site_pbe_cm5_charge
 _atom_site_pbe_ddec_charge
 _atom_site_pbe_ddec_spin_density
 _atom_site_pbe_ddec_sum_bond_order
 _atom_site_pbe_magmom
Zr  Zr0  1  0.87991631  0.88004697  0.61482247  1  2.637302  0  1.628726  2.368198  0  2.76823  0
Zr  Zr1  1  0.12161310  0.11569639  0.38108156  1  2.636215  0  1.627973  2.372128  0  2.761868  0
Zr  Zr2  1  0.11871340  0.87691126  0.61970147  1  2.635952  0  1.625753  2.375597  0  2.744371  0
Zr  Zr3  1  0.88231735  0.11864553  0.37799591  1  2.632388  0  1.626357  2.369481  0  2.759227  0
Zr  Zr4  1  0.12124080  0.87876525  0.37841868  1  2.631058  0  1.629334  2.367627  0  2.763966  0
Zr  Zr5  1  0.88093418  0.11687678  0.61862835  1  2.633329  0  1.629097  2.369743  0  2.757335  0
H  H6  1  0.09671884  0.71519188  0.58834323  1  0.614457  0  0.324131  0.414335  0  0.876972  0
H  H7  1  0.09984319  0.08979267  0.21586054  1  0.617948  0  0.323584  0.414674  0  0.876099  0
H  H8  1  0.09234701  0.08964148  0.59733225  1  0.606959  0  0.331387  0.421372  0  0.860902  0
H  H9  1  0.71822141  0.09558692  0.59020986  1  0.633427  0  0.331111  0.421621  0  0.858624  0
H  H10  1  0.16725435  0.54803436  0.41327892  1  0.066667  0  0.103031  0.108213  0  1.017805  0
H  H11  1  0.82715223  0.46113704  0.56413306  1  0.061797  0  0.102489  0.107289  0  1.02667  0
H  H12  1  0.64537657  0.06828587  0.95741013  1  0.067848  0  0.104597  0.111961  0  1.013468  0
H  H13  1  0.36898326  0.91378646  0.05197130  1  0.071924  0  0.104064  0.111274  0  1.012  0
H  H14  1  0.87480087  0.14483004  0.07949781  1  0.12964  0  0.104116  0.111668  0  1.015357  0
H  H15  1  0.10812798  0.83133831  0.93701337  1  0.110014  0  0.105561  0.114634  0  1.008834  0
H  H16  1  0.61023769  0.42360842  0.34426562  1  0.109864  0  0.102963  0.104748  0  1.035104  0
H  H17  1  0.41647391  0.59897567  0.63052252  1  0.106043  0  0.101196  0.108518  0  1.029241  0
H  H18  1  0.76485605  0.71385193  0.03999675  1  0.049391  0  0.100435  0.111574  0  0.976632  0
H  H19  1  0.73597021  0.65221187  0.98414532  1  0.069981  0  0.10026  0.111504  0  0.980293  0
H  H20  1  0.73648034  0.48469896  0.15579062  1  0.047225  0  0.09841  0.107881  0  0.990311  0
H  H21  1  0.76577204  0.54601122  0.21176643  1  0.053311  0  0.100485  0.112878  0  0.977875  0
H  H22  1  0.59356004  0.86308999  0.63566919  1  0.090346  0  0.10672  0.112324  0  1.026731  0
H  H23  1  0.40619716  0.13551437  0.36136742  1  0.067003  0  0.106963  0.112726  0  1.026815  0
H  H24  1  0.28036985  0.38182473  0.38511332  1  0.023873  0  0.089065  0.121835  0  1.002118  0
H  H25  1  0.23166825  0.26737518  0.46118385  1  0.061158  0  0.091297  0.131004  0  1.00666  0
H  H26  1  0.22852877  0.34549668  0.32589477  1  0.047774  0  0.098115  0.140916  0  0.9908  0
H  H27  1  0.71419395  0.63132135  0.58560911  1  0.035251  0  0.089512  0.123722  0  1.001141  0
H  H28  1  0.76357214  0.65369278  0.65846693  1  0.040499  0  0.09624  0.136244  0  0.990148  0
H  H29  1  0.76537406  0.74275236  0.52368685  1  0.066632  0  0.094143  0.138495  0  1.005165  0
H  H30  1  0.41874501  0.16459818  0.15043915  1  0.060164  0  0.09556  0.137502  0  0.994674  0
H  H31  1  0.46842028  0.03095569  0.23847499  1  0.069856  0  0.094303  0.139929  0  1.002609  0
H  H32  1  0.56468175  0.09712728  0.12430462  1  0.004499  0  0.089714  0.124187  0  1.000342  0
H  H33  1  0.54345924  0.95496128  0.76992965  1  0.054099  0  0.092113  0.133314  0  1.007976  0
H  H34  1  0.59200343  0.81996650  0.85637080  1  0.037877  0  0.094898  0.132592  0  1.000484  0
H  H35  1  0.44622443  0.89009698  0.88357438  1  0.024738  0  0.089812  0.12386  0  0.999471  0
H  H36  1  0.79929959  0.24761635  0.94530275  1  0.005732  0  0.088167  0.119888  0  1.004652  0
H  H37  1  0.88013732  0.22970538  0.81294808  1  0.051751  0  0.095754  0.140388  0  0.996618  0
H  H38  1  0.77320696  0.17326355  0.90072349  1  0.0454  0  0.094377  0.134719  0  1.005356  0
H  H39  1  0.21441039  0.80205280  0.10758513  1  0.049297  0  0.093644  0.133473  0  0.997788  0
H  H40  1  0.10422492  0.75271567  0.20666877  1  0.088828  0  0.095264  0.143196  0  1.004834  0
H  H41  1  0.17586078  0.72469388  0.07899528  1  0.015732  0  0.088749  0.121145  0  1.002784  0
H  H42  1  0.50192321  0.55728893  0.24068625  1  0.044959  0  0.086073  0.115558  0  1.012403  0
H  H43  1  0.35875728  0.59627153  0.32261021  1  0.067349  0  0.095123  0.135442  0  1.000676  0
H  H44  1  0.42824625  0.69190682  0.25467838  1  0.05854  0  0.096643  0.144345  0  0.998241  0
H  H45  1  0.53607362  0.47854639  0.72287050  1  0.01477  0  0.087867  0.12098  0  1.004747  0
H  H46  1  0.58002620  0.33911628  0.73056329  1  0.08079  0  0.097821  0.143218  0  0.987617  0
H  H47  1  0.67572174  0.40982903  0.65089369  1  0.061138  0  0.093938  0.134871  0  1.020154  0
H  H48  1  0.47377603  0.77013942  0.73049133  1  0.024826  0  0.087795  0.119636  0  1.006926  0
H  H49  1  0.33299033  0.85120983  0.73680553  1  0.046736  0  0.09675  0.140142  0  0.992822  0
H  H50  1  0.41367278  0.76611360  0.65385778  1  0.068903  0  0.096696  0.142041  0  1.001399  0
H  H51  1  0.52504349  0.22891632  0.26712498  1  0.038175  0  0.088282  0.120721  0  1.007051  0
H  H52  1  0.58054041  0.23543899  0.34608550  1  0.061243  0  0.095025  0.137533  0  0.997222  0
H  H53  1  0.66597523  0.15093129  0.26233324  1  0.050385  0  0.096944  0.141681  0  0.997818  0
C  C54  1  0.99363011  0.70120834  0.49024195  1  1.53754  0  0.237925  0.647047  0  4.084258  0
C  C55  1  0.31365499  0.99225497  0.20255924  1  1.529936  0  0.234539  0.643351  0  4.092669  0
C  C56  1  0.00175036  0.30381180  0.49461775  1  1.551765  0  0.237263  0.64772  0  4.086535  0
C  C57  1  0.69752822  0.99363600  0.80399984  1  1.528514  0  0.236317  0.646353  0  4.089271  0
C  C58  1  0.00016113  0.69197732  0.79716994  1  1.58849  0  0.234953  0.657857  0  4.116074  0
C  C59  1  0.69750122  0.00328297  0.49050249  1  1.551062  0  0.235656  0.637165  0  4.095504  0
C  C60  1  0.00181467  0.29867833  0.19408858  1  1.588746  0  0.234615  0.657624  0  4.113972  0
C  C61  1  0.30502214  0.99224274  0.50401106  1  1.526462  0  0.235809  0.638942  0  4.093164  0
C  C62  1  0.31197441  0.70155408  0.48911330  1  1.531644  0  0.234872  0.641528  0  4.090701  0
C  C63  1  0.99107699  0.99236609  0.81041284  1  1.544519  0  0.237204  0.644308  0  4.084424  0
C  C64  1  0.70342680  0.30945158  0.49558151  1  1.537405  0  0.236397  0.643588  0  4.085543  0
C  C65  1  0.99989257  0.99016088  0.19874959  1  1.558683  0  0.237599  0.647398  0  4.080817  0
C  C66  1  0.00372478  0.40604438  0.49021142  1  -0.00936  0  -0.014844  -0.089893  0  3.93599  0
C  C67  1  0.99070336  0.60225238  0.48897562  1  -0.020277  0  -0.014176  -0.090087  0  3.93402  0
C  C68  1  0.10298024  0.42864846  0.44570179  1  -0.016104  0  -0.000102  0.159821  0  3.944404  0
C  C69  1  0.89145158  0.58018733  0.53235967  1  -0.033139  0  0.000744  0.161253  0  3.945032  0
C  C70  1  0.09277546  0.52760343  0.44614958  1  0.021664  0  -0.087859  -0.162417  0  3.964585  0
C  C71  1  0.90165348  0.48140297  0.53153437  1  -0.035345  0  -0.086971  -0.159386  0  3.95927  0
C  C72  1  0.41614610  0.99187108  0.10277111  1  -0.039619  0  -0.018879  -0.093606  0  3.932375  0
C  C73  1  0.59788899  0.99058874  0.90648317  1  -0.026765  0  -0.015547  -0.092307  0  3.941523  0
C  C74  1  0.49385492  0.03692601  0.07824794  1  0.004034  0  -0.000681  0.160198  0  3.942646  0
C  C75  1  0.52018043  0.94562584  0.93095881  1  0.021259  0  -0.002628  0.154474  0  3.952253  0
C  C76  1  0.58327577  0.03461544  0.97959940  1  0.000403  0  -0.086488  -0.158689  0  3.951418  0
C  C77  1  0.43122712  0.94720216  0.02991017  1  -0.035565  0  -0.089625  -0.162004  0  3.961035  0
C  C78  1  0.98706239  0.99349818  0.91292373  1  -0.042561  0  -0.016746  -0.097083  0  3.93167  0
C  C79  1  0.99755263  0.98386519  0.10209260  1  -0.009403  0  -0.015029  -0.092677  0  3.925481  0
C  C80  1  0.91766748  0.08470644  0.95248471  1  -0.017054  0  0.000669  0.16077  0  3.939853  0
C  C81  1  0.06528518  0.89167643  0.06395900  1  0.021588  0  0.001521  0.162466  0  3.934949  0
C  C82  1  0.92567933  0.07610015  0.04684567  1  -0.107391  0  -0.087795  -0.161292  0  3.958398  0
C  C83  1  0.05730416  0.90018201  0.96954766  1  -0.031948  0  -0.086401  -0.158853  0  3.951634  0
C  C84  1  0.41798021  0.60567873  0.48227208  1  0.018265  0  -0.017105  -0.093055  0  3.922321  0
C  C85  1  0.60631745  0.41453595  0.49458595  1  -0.062763  0  -0.015945  -0.095791  0  3.924991  0
C  C86  1  0.47306583  0.55887559  0.39697616  1  0.004678  0  0.001065  0.163062  0  3.935262  0
C  C87  1  0.55379108  0.46384626  0.57759355  1  0.026024  0  0.000742  0.164349  0  3.929265  0
C  C88  1  0.56603078  0.46369366  0.40690391  1  -0.065297  0  -0.088111  -0.163405  0  3.971339  0
C  C89  1  0.46061016  0.55899010  0.56777981  1  -0.097559  0  -0.091959  -0.161404  0  3.961324  0
C  C90  1  0.00416061  0.58500834  0.89079276  1  0.038027  0  -0.013743  -0.10537  0  3.959553  0
C  C91  1  0.00483197  0.39205620  0.08696995  1  0.03649  0  -0.012948  -0.10341  0  3.9554  0
C  C92  1  0.90903594  0.57618041  0.98228845  1  0.006091  0  -0.005969  0.063333  0  3.903232  0
C  C93  1  0.10015126  0.39500341  0.99094327  1  -0.059186  0  -0.019035  0.030284  0  3.930884  0
C  C94  1  0.90938885  0.48326428  0.07708394  1  0.004147  0  -0.005514  0.063606  0  3.897009  0
C  C95  1  0.09998530  0.48935105  0.89539322  1  -0.056471  0  -0.0189  0.030471  0  3.93191  0
C  C96  1  0.78615825  0.63652347  0.02888220  1  -0.015414  0  -0.145898  -0.189567  0  3.850973  0
C  C97  1  0.78657553  0.53110117  0.13679091  1  -0.025732  0  -0.147122  -0.192594  0  3.854206  0
C  C98  1  0.40541220  0.99202354  0.50560660  1  0.005463  0  -0.015592  -0.097718  0  3.933774  0
C  C99  1  0.59528564  0.00565740  0.49053064  1  -0.009061  0  -0.015467  -0.097183  0  3.933516  0
C  C100  1  0.45652646  0.91264942  0.58669635  1  0.003313  0  0.002512  0.165544  0  3.937597  0
C  C101  1  0.54304039  0.08619183  0.41051858  1  0.005559  0  0.002673  0.166202  0  3.933683  0
C  C102  1  0.55089546  0.92261647  0.57565801  1  -0.069947  0  -0.086265  -0.16184  0  3.962872  0
C  C103  1  0.44897755  0.07588253  0.42126772  1  -0.034869  0  -0.08618  -0.162333  0  3.962971  0
C  C104  1  0.21692088  0.35194684  0.40210305  1  -0.043117  0  -0.23993  -0.409759  0  3.978171  0
C  C105  1  0.77756412  0.65611557  0.57707067  1  -0.053342  0  -0.239927  -0.410409  0  3.974104  0
C  C106  1  0.48636801  0.08469956  0.15184348  1  -0.049529  0  -0.240828  -0.413313  0  3.972733  0
C  C107  1  0.52558355  0.90040153  0.85628565  1  -0.027539  0  -0.239526  -0.408663  0  3.981527  0
C  C108  1  0.83844431  0.18946007  0.90014040  1  -0.018209  0  -0.23929  -0.407711  0  3.976218  0
C  C109  1  0.14381576  0.78699207  0.11727860  1  -0.055628  0  -0.239205  -0.409731  0  3.973403  0
C  C110  1  0.43899500  0.60350809  0.29825788  1  -0.079451  0  -0.23946  -0.406575  0  3.970994  0
C  C111  1  0.58834451  0.42085290  0.67557172  1  -0.046111  0  -0.239952  -0.412435  0  3.973564  0
C  C112  1  0.41735635  0.81988565  0.68215025  1  -0.050504  0  -0.239159  -0.411172  0  3.970238  0
C  C113  1  0.58061382  0.18047029  0.31630787  1  -0.048397  0  -0.238641  -0.410992  0  3.973394  0
Br  Br114  1  0.22709170  0.26402395  0.98974323  1  -0.030704  0  0.035242  -0.0445  0  1.551479  0
Br  Br115  1  0.22774244  0.48670650  0.76573967  1  -0.03448  0  0.037824  -0.043299  0  1.580358  0
O  O116  1  0.91746118  0.74138617  0.56719885  1  -1.17194  0  -0.353902  -0.612169  0  2.301491  0
O  O117  1  0.27217106  0.06880256  0.24337663  1  -1.18106  0  -0.354363  -0.617548  0  2.330291  0
O  O118  1  0.07807765  0.26152457  0.41909812  1  -1.177634  0  -0.357043  -0.611502  0  2.310397  0
O  O119  1  0.73775402  0.91836399  0.76176681  1  -1.174267  0  -0.353827  -0.614348  0  2.306076  0
O  O120  1  0.07424138  0.73260013  0.76343226  1  -1.174609  0  -0.353042  -0.617352  0  2.294218  0
O  O121  1  0.73849183  0.07946020  0.41565044  1  -1.187108  0  -0.351817  -0.605795  0  2.321988  0
O  O122  1  0.92138580  0.26319656  0.23606796  1  -1.173516  0  -0.356514  -0.611254  0  2.260095  0
O  O123  1  0.26298832  0.91727397  0.58026591  1  -1.174013  0  -0.350344  -0.603725  0  2.324208  0
O  O124  1  0.26688834  0.73772268  0.41756616  1  -1.176912  0  -0.35472  -0.608924  0  2.330982  0
O  O125  1  0.91713978  0.07008648  0.76692385  1  -1.182499  0  -0.355189  -0.612645  0  2.329159  0
O  O126  1  0.74208680  0.26467456  0.57422857  1  -1.179969  0  -0.355464  -0.610061  0  2.328561  0
O  O127  1  0.07987728  0.91805829  0.23577963  1  -1.180132  0  -0.355664  -0.612766  0  2.320173  0
O  O128  1  0.06893448  0.91519113  0.77110425  1  -1.193005  0  -0.353796  -0.619379  0  2.270486  0
O  O129  1  0.74061589  0.26977773  0.41921360  1  -1.183469  0  -0.351661  -0.619874  0  2.277981  0
O  O130  1  0.92343930  0.06845592  0.23691293  1  -1.191987  0  -0.353317  -0.622819  0  2.280671  0
O  O131  1  0.27120087  0.73940623  0.56770188  1  -1.182307  0  -0.355523  -0.626618  0  2.313361  0
O  O132  1  0.91977045  0.73496241  0.76173086  1  -1.170252  0  -0.346436  -0.604838  0  2.252771  0
O  O133  1  0.26676916  0.06874636  0.42630812  1  -1.189819  0  -0.354955  -0.622102  0  2.315109  0
O  O134  1  0.07519982  0.26447772  0.23538670  1  -1.169692  0  -0.342814  -0.609464  0  2.281995  0
O  O135  1  0.73722754  0.92513782  0.56669913  1  -1.18284  0  -0.354186  -0.622922  0  2.313424  0
O  O136  1  0.73580654  0.07104579  0.76574702  1  -1.182411  0  -0.350994  -0.620008  0  2.271203  0
O  O137  1  0.07394121  0.73690102  0.41661324  1  -1.186045  0  -0.35206  -0.622689  0  2.277132  0
O  O138  1  0.27225759  0.91792374  0.23809149  1  -1.177185  0  -0.352494  -0.621354  0  2.282587  0
O  O139  1  0.92450117  0.26562654  0.57265494  1  -1.181339  0  -0.347825  -0.620912  0  2.25992  0
O  O140  1  0.79861231  0.06723695  0.56419429  1  -1.260448  0  -0.696377  -1.070429  0  2.375802  0
O  O141  1  0.06646416  0.06357677  0.56894950  1  -1.235866  0  -0.695953  -1.070535  0  2.378117  0
O  O142  1  0.07073377  0.06514052  0.29608060  1  -1.249069  0  -0.694789  -1.068925  0  2.367019  0
O  O143  1  0.06791760  0.79548039  0.56439579  1  -1.246303  0  -0.693896  -1.067286  0  2.366494  0
O  O144  1  0.14960816  0.94748964  0.45065213  1  -1.198957  0  -0.79264  -1.14689  0  2.141019  0
O  O145  1  0.95146832  0.94955652  0.44680643  1  -1.202607  0  -0.793421  -1.150337  0  2.141464  0
O  O146  1  0.95201762  0.14663936  0.44920381  1  -1.199019  0  -0.791924  -1.148445  0  2.12923  0
O  O147  1  0.94974979  0.94757830  0.64703273  1  -1.198724  0  -0.792174  -1.148818  0  2.133225  0
