# generated using pymatgen
data_Li3H7C13(NO3)2
_symmetry_space_group_name_H-M   'P 1'
_cell_length_a   10.13280439
_cell_length_b   10.40752737
_cell_length_c   13.24694301
_cell_angle_alpha   90.00003696
_cell_angle_beta   89.99937853
_cell_angle_gamma   106.25891494
_symmetry_Int_Tables_number   1
_chemical_formula_structural   Li3H7C13(NO3)2
_chemical_formula_sum   'Li12 H28 C52 N8 O24'
_cell_volume   1341.11794292
_cell_formula_units_Z   4
loop_
 _symmetry_equiv_pos_site_id
 _symmetry_equiv_pos_as_xyz
  1  'x, y, z'
loop_
 _atom_site_type_symbol
 _atom_site_label
 _atom_site_symmetry_multiplicity
 _atom_site_fract_x
 _atom_site_fract_y
 _atom_site_fract_z
 _atom_site_occupancy
 _atom_site_hle17_bader_spin_density
 _atom_site_hle17_ddec_charge
 _atom_site_hle17_ddec_spin_density
 _atom_site_hle17_ddec_sum_bond_order
 _atom_site_hle17_magmom
 _atom_site_hse06_10hf_bader_spin_density
 _atom_site_hse06_10hf_ddec_charge
 _atom_site_hse06_10hf_ddec_spin_density
 _atom_site_hse06_10hf_ddec_sum_bond_order
 _atom_site_hse06_10hf_magmom
 _atom_site_hse06_bader_spin_density
 _atom_site_hse06_ddec_charge
 _atom_site_hse06_ddec_spin_density
 _atom_site_hse06_ddec_sum_bond_order
 _atom_site_hse06_magmom
 _atom_site_pbe_bader_spin_density
 _atom_site_pbe_cm5_charge
 _atom_site_pbe_ddec_charge
 _atom_site_pbe_ddec_spin_density
 _atom_site_pbe_ddec_sum_bond_order
 _atom_site_pbe_magmom
Li  Li0  1  0.89096122  0.93065204  0.88778325  1  0  0.853285  0  0.409764  0  0  0.812743  0  0.517305  0  0  0.823526  0  0.498196  0  0  0.518761  0.804854  0  0.531222  0
Li  Li1  1  0.10904217  0.56934681  0.38778576  1  0  0.853276  0  0.409764  0  0  0.812719  0  0.517326  0  0  0.823502  0  0.498221  0  0  0.518751  0.804828  0  0.531244  0
Li  Li2  1  0.10903673  0.06934473  0.11221715  1  0  0.85331  0  0.409662  0  0  0.812762  0  0.517207  0  0  0.823546  0  0.498101  0  0  0.518813  0.804869  0  0.531125  0
Li  Li3  1  0.89096157  0.43065298  0.61221842  1  0  0.853296  0  0.409712  0  0  0.812759  0  0.517238  0  0  0.823542  0  0.498133  0  0  0.518819  0.804869  0  0.531154  0
Li  Li4  1  0.94590224  0.67397005  0.80351068  1  0  0.842602  0  0.405112  0  0  0.786694  0  0.533357  0  0  0.799166  0  0.51332  0  0  0.505103  0.777807  0  0.547611  0
Li  Li5  1  0.05409480  0.82603006  0.30351378  1  0  0.842576  0  0.405158  0  0  0.786679  0  0.533383  0  0  0.799148  0  0.51335  0  0  0.505095  0.777792  0  0.547636  0
Li  Li6  1  0.05410319  0.32602873  0.19648745  1  0  0.842564  0  0.40523  0  0  0.78666  0  0.533487  0  0  0.799136  0  0.513444  0  0  0.505085  0.777778  0  0.547752  0
Li  Li7  1  0.94590301  0.17396972  0.69648889  1  0  0.842563  0  0.405243  0  0  0.786655  0  0.533496  0  0  0.79913  0  0.513456  0  0  0.505094  0.777769  0  0.547756  0
Li  Li8  1  0.69305488  0.52456399  0.66889045  1  0  0.847098  0  0.408668  0  0  0.792139  0  0.535408  0  0  0.803936  0  0.516038  0  0  0.519104  0.783948  0  0.548752  0
Li  Li9  1  0.30693713  0.97543255  0.16889228  1  0  0.847062  0  0.408733  0  0  0.792103  0  0.535483  0  0  0.803896  0  0.516119  0  0  0.519146  0.783912  0  0.548827  0
Li  Li10  1  0.30695013  0.47543680  0.33110467  1  0  0.847116  0  0.408669  0  0  0.792122  0  0.535481  0  0  0.803919  0  0.516111  0  0  0.519069  0.783937  0  0.548829  0
Li  Li11  1  0.69305559  0.02456321  0.83110888  1  0  0.847085  0  0.408737  0  0  0.792117  0  0.535503  0  0  0.803914  0  0.516134  0  0  0.519094  0.783931  0  0.548846  0
H  H12  1  0.70589304  0.26560358  0.89759291  1  0  0.095418  0  1.007844  0  0  0.100954  0  1.077741  0  0  0.103954  0  1.076855  0  0  0.115597  0.098727  0  1.078664  0
H  H13  1  0.29411267  0.23439622  0.39758793  1  0  0.095401  0  1.00779  0  0  0.100925  0  1.077697  0  0  0.103926  0  1.076807  0  0  0.115543  0.0987  0  1.078622  0
H  H14  1  0.29410857  0.73439220  0.10240901  1  0  0.095485  0  1.007773  0  0  0.100994  0  1.077688  0  0  0.103992  0  1.076801  0  0  0.115587  0.098767  0  1.07861  0
H  H15  1  0.70589222  0.76560757  0.60241399  1  0  0.095451  0  1.007815  0  0  0.100957  0  1.077746  0  0  0.103958  0  1.076858  0  0  0.115578  0.09873  0  1.078671  0
H  H16  1  0.77769445  0.62788464  0.07439900  1  0  0.114496  0  0.951556  0  0  0.124461  0  1.011557  0  0  0.127762  0  1.010201  0  0  0.116974  0.122119  0  1.012556  0
H  H17  1  0.22231284  0.87211924  0.57439748  1  0  0.114448  0  0.951642  0  0  0.124466  0  1.011594  0  0  0.127765  0  1.01024  0  0  0.116971  0.122128  0  1.012591  0
H  H18  1  0.22231254  0.37211615  0.92559838  1  0  0.114553  0  0.951723  0  0  0.124533  0  1.011692  0  0  0.127834  0  1.010335  0  0  0.117019  0.122179  0  1.012704  0
H  H19  1  0.77768357  0.12788253  0.42560142  1  0  0.114591  0  0.951706  0  0  0.124558  0  1.011685  0  0  0.12786  0  1.010329  0  0  0.11702  0.122212  0  1.012685  0
H  H20  1  0.44370416  0.82307667  0.82385939  1  0  0.099372  0  0.980678  0  0  0.104029  0  1.051898  0  0  0.107526  0  1.050381  0  0  0.113091  0.101772  0  1.052591  0
H  H21  1  0.55629359  0.67693038  0.32385296  1  0  0.099383  0  0.980696  0  0  0.103996  0  1.051975  0  0  0.107491  0  1.050459  0  0  0.113063  0.101739  0  1.052666  0
H  H22  1  0.55630634  0.17691913  0.17614026  1  0  0.099402  0  0.98073  0  0  0.104062  0  1.051939  0  0  0.107556  0  1.050424  0  0  0.113079  0.101808  0  1.052631  0
H  H23  1  0.44370633  0.32306640  0.67614065  1  0  0.099324  0  0.980711  0  0  0.103981  0  1.051953  0  0  0.107477  0  1.050437  0  0  0.113044  0.101724  0  1.052648  0
H  H24  1  0.65163744  0.48269529  0.93238914  1  0  0.099561  0  0.93463  0  0  0.11293  0  0.985944  0  0  0.115977  0  0.984275  0  0  0.116435  0.110971  0  0.98674  0
H  H25  1  0.34837028  0.01730640  0.43238511  1  0  0.099554  0  0.934647  0  0  0.112889  0  0.986004  0  0  0.115931  0  0.984341  0  0  0.116407  0.110935  0  0.986796  0
H  H26  1  0.34836997  0.51730350  0.06760975  1  0  0.099516  0  0.934675  0  0  0.112903  0  0.985979  0  0  0.11595  0  0.984309  0  0  0.116438  0.110948  0  0.986779  0
H  H27  1  0.65162880  0.98269438  0.56761529  1  0  0.099547  0  0.934693  0  0  0.112861  0  0.986078  0  0  0.115906  0  0.984411  0  0  0.116406  0.110902  0  0.986875  0
H  H28  1  0.38827773  0.47986149  0.56067957  1  0  0.07154  0  0.939647  0  0  0.079626  0  1.005323  0  0  0.082281  0  1.003329  0  0  0.123946  0.07771  0  1.006662  0
H  H29  1  0.61170307  0.02015534  0.06068619  1  0  0.071649  0  0.939612  0  0  0.079742  0  1.00528  0  0  0.082395  0  1.003281  0  0  0.123998  0.077827  0  1.006626  0
H  H30  1  0.61171613  0.52013827  0.43931631  1  0  0.071625  0  0.939604  0  0  0.079661  0  1.005333  0  0  0.082361  0  1.003286  0  0  0.123987  0.077746  0  1.006661  0
H  H31  1  0.38828434  0.97985641  0.93932101  1  0  0.071542  0  0.939723  0  0  0.079669  0  1.005342  0  0  0.082292  0  1.003385  0  0  0.123982  0.077763  0  1.006674  0
H  H32  1  0.19717477  0.58328837  0.58924320  1  0  0.116823  0  0.952136  0  0  0.124725  0  1.014351  0  0  0.128831  0  1.012188  0  0  0.132005  0.121778  0  1.015971  0
H  H33  1  0.80281574  0.91674043  0.08923711  1  0  0.116809  0  0.952161  0  0  0.124647  0  1.014443  0  0  0.128742  0  1.012273  0  0  0.13196  0.121716  0  1.016053  0
H  H34  1  0.80282247  0.41670940  0.41076022  1  0  0.116812  0  0.952199  0  0  0.124699  0  1.01444  0  0  0.128799  0  1.012274  0  0  0.132002  0.121757  0  1.016048  0
H  H35  1  0.19717833  0.08327734  0.91076103  1  0  0.11677  0  0.952272  0  0  0.12463  0  1.014538  0  0  0.128725  0  1.012371  0  0  0.131991  0.1217  0  1.016141  0
H  H36  1  0.22160667  0.75610202  0.72448114  1  0  0.11668  0  0.978189  0  0  0.123935  0  1.040867  0  0  0.12783  0  1.037908  0  0  0.118739  0.120984  0  1.043136  0
H  H37  1  0.77839148  0.74391535  0.22447063  1  0  0.116671  0  0.978128  0  0  0.123816  0  1.040945  0  0  0.127706  0  1.038  0  0  0.118783  0.120864  0  1.043214  0
H  H38  1  0.77839678  0.24389677  0.27552380  1  0  0.116688  0  0.978281  0  0  0.123937  0  1.040972  0  0  0.127835  0  1.038009  0  0  0.118733  0.120986  0  1.043247  0
H  H39  1  0.22160748  0.25608842  0.77552071  1  0  0.116711  0  0.978107  0  0  0.123883  0  1.040895  0  0  0.127776  0  1.037943  0  0  0.118749  0.120935  0  1.043163  0
C  C40  1  0.96626519  0.56367948  0.20308525  1  0  0.652676  0  3.939156  0  0  0.603768  0  4.240454  0  0  0.635339  0  4.233065  0  0  0.229378  0.582521  0  4.244746  0
C  C41  1  0.03373730  0.93631397  0.70308306  1  0  0.652817  0  3.938926  0  0  0.603958  0  4.2402  0  0  0.635531  0  4.232799  0  0  0.229401  0.582708  0  4.244499  0
C  C42  1  0.03372855  0.43632329  0.79691817  1  0  0.652511  0  3.939571  0  0  0.603774  0  4.240563  0  0  0.635347  0  4.23316  0  0  0.229338  0.582528  0  4.244859  0
C  C43  1  0.96626681  0.06366981  0.29691659  1  0  0.652431  0  3.939726  0  0  0.603786  0  4.240594  0  0  0.635361  0  4.233191  0  0  0.229283  0.582548  0  4.24488  0
C  C44  1  0.66737185  0.72738850  0.79657365  1  0  0.678331  0  3.904677  0  0  0.631877  0  4.197681  0  0  0.66455  0  4.187119  0  0  0.242015  0.609795  0  4.20449  0
C  C45  1  0.33262333  0.77261163  0.29657592  1  0  0.678284  0  3.904891  0  0  0.63182  0  4.197765  0  0  0.664488  0  4.187226  0  0  0.242017  0.609736  0  4.204571  0
C  C46  1  0.33263575  0.27258329  0.20341543  1  0  0.678406  0  3.904382  0  0  0.63202  0  4.19731  0  0  0.664686  0  4.186757  0  0  0.242035  0.609944  0  4.204111  0
C  C47  1  0.66737214  0.22740414  0.70341845  1  0  0.67835  0  3.90442  0  0  0.631882  0  4.197427  0  0  0.664564  0  4.186852  0  0  0.241994  0.609801  0  4.204231  0
C  C48  1  0.90175129  0.17166652  0.99499492  1  0  0.692353  0  3.886892  0  0  0.645147  0  4.181217  0  0  0.677818  0  4.170932  0  0  0.246754  0.623093  0  4.187603  0
C  C49  1  0.09825632  0.32833096  0.49499463  1  0  0.692226  0  3.886933  0  0  0.645046  0  4.181253  0  0  0.67774  0  4.170939  0  0  0.246829  0.623002  0  4.187624  0
C  C50  1  0.09825102  0.82832826  0.00500926  1  0  0.692405  0  3.88682  0  0  0.645138  0  4.181237  0  0  0.677822  0  4.170939  0  0  0.246847  0.623085  0  4.187618  0
C  C51  1  0.90174885  0.67167383  0.50501407  1  0  0.692032  0  3.886962  0  0  0.644796  0  4.181337  0  0  0.677461  0  4.171078  0  0  0.246646  0.622753  0  4.187702  0
C  C52  1  0.85668193  0.29629278  0.01571864  1  0  0.100646  0  3.74059  0  0  0.108364  0  3.981863  0  0  0.106955  0  4.001833  0  0  0.124779  0.109155  0  3.968416  0
C  C53  1  0.14332136  0.20370725  0.51571618  1  0  0.10057  0  3.740554  0  0  0.108182  0  3.981982  0  0  0.106766  0  4.001944  0  0  0.124675  0.108971  0  3.968536  0
C  C54  1  0.14331812  0.70370099  0.98428026  1  0  0.100557  0  3.740563  0  0  0.108268  0  3.981896  0  0  0.106852  0  4.001866  0  0  0.124712  0.109067  0  3.968435  0
C  C55  1  0.85668282  0.79629754  0.48428272  1  0  0.100635  0  3.740691  0  0  0.108348  0  3.981995  0  0  0.106936  0  4.001973  0  0  0.124726  0.109141  0  3.968536  0
C  C56  1  0.75657262  0.33124218  0.95804968  1  0  -0.10038  0  3.688267  0  0  -0.124928  0  3.937487  0  0  -0.127727  0  3.957172  0  0  -0.063527  -0.123045  0  3.924336  0
C  C57  1  0.24343147  0.16875841  0.45804509  1  0  -0.100383  0  3.68811  0  0  -0.124887  0  3.937369  0  0  -0.127684  0  3.957056  0  0  -0.0635  -0.12301  0  3.924228  0
C  C58  1  0.24343182  0.66875661  0.04195299  1  0  -0.100407  0  3.688025  0  0  -0.124922  0  3.937267  0  0  -0.12772  0  3.956957  0  0  -0.0635  -0.123044  0  3.924123  0
C  C59  1  0.75656931  0.83124136  0.54195607  1  0  -0.100418  0  3.687959  0  0  -0.124938  0  3.937189  0  0  -0.127735  0  3.956871  0  0  -0.063489  -0.123061  0  3.924047  0
C  C60  1  0.79471808  0.53166113  0.05706057  1  0  -0.090336  0  3.669263  0  0  -0.117322  0  3.920784  0  0  -0.119559  0  3.939106  0  0  -0.062405  -0.11561  0  3.90819  0
C  C61  1  0.20528792  0.96834080  0.55705848  1  0  -0.090394  0  3.669227  0  0  -0.117405  0  3.920765  0  0  -0.119641  0  3.939092  0  0  -0.062412  -0.115697  0  3.908173  0
C  C62  1  0.20528961  0.46833866  0.94293908  1  0  -0.09043  0  3.669432  0  0  -0.117453  0  3.920958  0  0  -0.119692  0  3.939277  0  0  -0.062452  -0.115736  0  3.908378  0
C  C63  1  0.79470948  0.03166097  0.44294193  1  0  -0.09062  0  3.669439  0  0  -0.117622  0  3.920971  0  0  -0.11986  0  3.939288  0  0  -0.062499  -0.115907  0  3.90838  0
C  C64  1  0.88978800  0.48686635  0.11360679  1  0  0.099206  0  3.747914  0  0  0.107739  0  3.991107  0  0  0.106602  0  4.011453  0  0  0.120971  0.108256  0  3.977444  0
C  C65  1  0.11021636  0.01313537  0.61360753  1  0  0.099225  0  3.747715  0  0  0.107649  0  3.991065  0  0  0.106507  0  4.011414  0  0  0.12092  0.108169  0  3.9774  0
C  C66  1  0.11021714  0.51313144  0.88639210  1  0  0.099256  0  3.748025  0  0  0.107782  0  3.991107  0  0  0.106647  0  4.011452  0  0  0.120925  0.108301  0  3.977438  0
C  C67  1  0.88978091  0.98686940  0.38639363  1  0  0.099377  0  3.748078  0  0  0.107855  0  3.991182  0  0  0.10672  0  4.011527  0  0  0.120976  0.108363  0  3.977522  0
C  C68  1  0.52905246  0.68531968  0.74412815  1  0  0.079437  0  3.772744  0  0  0.089862  0  4.007606  0  0  0.088925  0  4.028013  0  0  0.1129  0.090428  0  3.993862  0
C  C69  1  0.47093646  0.81468360  0.24412778  1  0  0.079137  0  3.773129  0  0  0.089817  0  4.007594  0  0  0.08887  0  4.02802  0  0  0.113007  0.090386  0  3.993845  0
C  C70  1  0.47094972  0.31467810  0.25586772  1  0  0.079488  0  3.772343  0  0  0.089843  0  4.007303  0  0  0.088903  0  4.027717  0  0  0.112952  0.090412  0  3.993558  0
C  C71  1  0.52905980  0.18531416  0.75587338  1  0  0.079291  0  3.772782  0  0  0.08973  0  4.007646  0  0  0.088781  0  4.028066  0  0  0.112997  0.090311  0  3.993887  0
C  C72  1  0.42654337  0.74706335  0.76525950  1  0  -0.111233  0  3.715056  0  0  -0.132505  0  3.960583  0  0  -0.137462  0  3.982824  0  0  -0.070395  -0.129178  0  3.945183  0
C  C73  1  0.57345157  0.75293788  0.26525372  1  0  -0.111146  0  3.714804  0  0  -0.132442  0  3.960261  0  0  -0.137393  0  3.982498  0  0  -0.070398  -0.129117  0  3.944857  0
C  C74  1  0.57346092  0.25293143  0.23473713  1  0  -0.111326  0  3.714744  0  0  -0.132577  0  3.960295  0  0  -0.137536  0  3.982538  0  0  -0.070414  -0.129252  0  3.944899  0
C  C75  1  0.42654596  0.24706090  0.73474064  1  0  -0.111185  0  3.714827  0  0  -0.132436  0  3.960329  0  0  -0.137393  0  3.982574  0  0  -0.070393  -0.129112  0  3.944925  0
C  C76  1  0.72591818  0.45117258  0.97862289  1  0  -0.008008  0  3.706426  0  0  -0.023275  0  3.959593  0  0  -0.021781  0  3.976151  0  0  -0.055491  -0.024085  0  3.947836  0
C  C77  1  0.27408616  0.04882995  0.47861873  1  0  -0.007922  0  3.706351  0  0  -0.023147  0  3.9595  0  0  -0.021658  0  3.97607  0  0  -0.055413  -0.023957  0  3.947748  0
C  C78  1  0.27408626  0.54882621  0.02137525  1  0  -0.007946  0  3.706526  0  0  -0.023235  0  3.959712  0  0  -0.02174  0  3.976269  0  0  -0.0555  -0.024052  0  3.94797  0
C  C79  1  0.72591082  0.95117382  0.52138091  1  0  -0.007813  0  3.706257  0  0  -0.02303  0  3.959399  0  0  -0.021532  0  3.975953  0  0  -0.05541  -0.023847  0  3.947655  0
C  C80  1  0.39698438  0.55574201  0.61920928  1  0  0.139439  0  3.716789  0  0  0.114214  0  3.973284  0  0  0.119029  0  3.990568  0  0  0.060132  0.111137  0  3.961661  0
C  C81  1  0.60299899  0.94427367  0.11920939  1  0  0.139161  0  3.716667  0  0  0.113895  0  3.97321  0  0  0.118716  0  3.990493  0  0  0.059977  0.110808  0  3.961601  0
C  C82  1  0.60301130  0.44425375  0.38078433  1  0  0.139268  0  3.717271  0  0  0.114076  0  3.973774  0  0  0.118854  0  3.991057  0  0  0.060045  0.110998  0  3.962146  0
C  C83  1  0.39699279  0.05573609  0.88079177  1  0  0.139151  0  3.717155  0  0  0.113896  0  3.973651  0  0  0.118728  0  3.99094  0  0  0.059957  0.110806  0  3.962033  0
C  C84  1  0.29004622  0.61370158  0.63491223  1  0  -0.090133  0  3.668229  0  0  -0.104818  0  3.915762  0  0  -0.109792  0  3.935627  0  0  -0.05906  -0.101748  0  3.902548  0
C  C85  1  0.70994651  0.88631308  0.13490765  1  0  -0.09019  0  3.668085  0  0  -0.104791  0  3.915619  0  0  -0.109745  0  3.935463  0  0  -0.058965  -0.10174  0  3.902422  0
C  C86  1  0.70995385  0.38629920  0.36509044  1  0  -0.090166  0  3.668293  0  0  -0.104829  0  3.915829  0  0  -0.109797  0  3.935702  0  0  -0.059095  -0.10176  0  3.902609  0
C  C87  1  0.29004767  0.11369469  0.86509125  1  0  -0.090068  0  3.668236  0  0  -0.104711  0  3.915792  0  0  -0.109663  0  3.935632  0  0  -0.059004  -0.101654  0  3.902589  0
C  C88  1  0.30446692  0.71025458  0.71019522  1  0  -0.009451  0  3.685585  0  0  -0.026561  0  3.934785  0  0  -0.025199  0  3.953311  0  0  -0.058303  -0.027215  0  3.922191  0
C  C89  1  0.69552381  0.78975682  0.21018694  1  0  -0.009364  0  3.685339  0  0  -0.026417  0  3.934573  0  0  -0.025056  0  3.953092  0  0  -0.05836  -0.027062  0  3.921975  0
C  C90  1  0.69553892  0.28974221  0.28980518  1  0  -0.009404  0  3.685388  0  0  -0.026509  0  3.934578  0  0  -0.025148  0  3.953096  0  0  -0.058274  -0.027165  0  3.921994  0
C  C91  1  0.30447021  0.21024695  0.78980667  1  0  -0.009464  0  3.68545  0  0  -0.02653  0  3.934675  0  0  -0.025168  0  3.953195  0  0  -0.058316  -0.027181  0  3.922086  0
N  N92  1  0.92046958  0.37250014  0.09261613  1  0  -0.401551  0  3.228316  0  0  -0.365015  0  3.480405  0  0  -0.373815  0  3.497924  0  0  -0.368103  -0.358858  0  3.468634  0
N  N93  1  0.07953608  0.12750165  0.59261416  1  0  -0.401436  0  3.228162  0  0  -0.364834  0  3.48032  0  0  -0.37363  0  3.497839  0  0  -0.36801  -0.358674  0  3.468541  0
N  N94  1  0.07953556  0.62749765  0.90738578  1  0  -0.401471  0  3.228505  0  0  -0.364943  0  3.480605  0  0  -0.373743  0  3.498127  0  0  -0.368021  -0.358783  0  3.46882  0
N  N95  1  0.92046287  0.87250212  0.40738700  1  0  -0.401478  0  3.228474  0  0  -0.36495  0  3.480591  0  0  -0.373751  0  3.498115  0  0  -0.368027  -0.358792  0  3.468812  0
N  N96  1  0.51404704  0.58903835  0.67297290  1  0  -0.434997  0  3.210737  0  0  -0.390969  0  3.472049  0  0  -0.401364  0  3.486227  0  0  -0.381762  -0.384266  0  3.462489  0
N  N97  1  0.48594226  0.91096616  0.17297699  1  0  -0.434683  0  3.211027  0  0  -0.390738  0  3.472303  0  0  -0.401135  0  3.486483  0  0  -0.381752  -0.384029  0  3.462741  0
N  N98  1  0.48595910  0.41095944  0.32702146  1  0  -0.434862  0  3.211033  0  0  -0.390803  0  3.472369  0  0  -0.401196  0  3.486564  0  0  -0.381673  -0.384103  0  3.462811  0
N  N99  1  0.51404892  0.08903459  0.82702719  1  0  -0.434632  0  3.211186  0  0  -0.390614  0  3.472515  0  0  -0.400998  0  3.486683  0  0  -0.381695  -0.383913  0  3.462959  0
O  O100  1  0.74492339  0.65107852  0.78539262  1  0  -0.750376  0  1.972462  0  0  -0.702943  0  2.216898  0  0  -0.72362  0  2.201739  0  0  -0.401489  -0.689022  0  2.227139  0
O  O101  1  0.25506829  0.84892264  0.28539783  1  0  -0.750284  0  1.972467  0  0  -0.702898  0  2.216939  0  0  -0.723522  0  2.201679  0  0  -0.401478  -0.688976  0  2.227186  0
O  O102  1  0.25506964  0.34892524  0.21460703  1  0  -0.750733  0  1.971359  0  0  -0.70329  0  2.215739  0  0  -0.723974  0  2.20058  0  0  -0.401664  -0.689363  0  2.225976  0
O  O103  1  0.74493528  0.15106614  0.71460635  1  0  -0.750485  0  1.971543  0  0  -0.703036  0  2.215976  0  0  -0.723725  0  2.200816  0  0  -0.401553  -0.689109  0  2.226211  0
O  O104  1  0.82702628  0.08361318  0.93616730  1  0  -0.788635  0  1.994184  0  0  -0.740183  0  2.246509  0  0  -0.761717  0  2.230964  0  0  -0.435877  -0.725245  0  2.256861  0
O  O105  1  0.17297900  0.41639049  0.43616870  1  0  -0.78856  0  1.994249  0  0  -0.740098  0  2.246563  0  0  -0.76164  0  2.231012  0  0  -0.435898  -0.725169  0  2.256915  0
O  O106  1  0.17296192  0.91638056  0.06383009  1  0  -0.788554  0  1.994311  0  0  -0.740085  0  2.246676  0  0  -0.761617  0  2.231118  0  0  -0.435862  -0.725156  0  2.257032  0
O  O107  1  0.82704311  0.58361834  0.56383171  1  0  -0.788359  0  1.994487  0  0  -0.739903  0  2.246819  0  0  -0.761431  0  2.231283  0  0  -0.435786  -0.72498  0  2.257165  0
O  O108  1  0.03608918  0.50296909  0.25545137  1  0  -0.763028  0  1.979942  0  0  -0.716197  0  2.22282  0  0  -0.737502  0  2.210731  0  0  -0.408448  -0.701159  0  2.230527  0
O  O109  1  0.96390604  0.99702918  0.75545130  1  0  -0.763232  0  1.979715  0  0  -0.716416  0  2.222589  0  0  -0.73772  0  2.210492  0  0  -0.408498  -0.701375  0  2.2303  0
O  O110  1  0.96390887  0.49701768  0.74455583  1  0  -0.762953  0  1.980772  0  0  -0.716186  0  2.223568  0  0  -0.737486  0  2.211472  0  0  -0.408359  -0.701151  0  2.231277  0
O  O111  1  0.03608319  0.00297858  0.24455212  1  0  -0.762825  0  1.980863  0  0  -0.716084  0  2.223605  0  0  -0.737386  0  2.211507  0  0  -0.408308  -0.701059  0  2.231315  0
O  O112  1  0.95544746  0.67975649  0.21904448  1  0  -0.680976  0  1.97526  0  0  -0.635409  0  2.215768  0  0  -0.657454  0  2.205118  0  0  -0.365711  -0.620064  0  2.222714  0
O  O113  1  0.04455143  0.82024590  0.71904214  1  0  -0.680913  0  1.975331  0  0  -0.635384  0  2.215862  0  0  -0.657423  0  2.205205  0  0  -0.365675  -0.620045  0  2.222814  0
O  O114  1  0.04454678  0.32022727  0.78096196  1  0  -0.680997  0  1.974786  0  0  -0.635502  0  2.215206  0  0  -0.657546  0  2.204548  0  0  -0.365747  -0.620162  0  2.222158  0
O  O115  1  0.95544871  0.17977588  0.28095977  1  0  -0.681063  0  1.974671  0  0  -0.635641  0  2.215092  0  0  -0.657694  0  2.204436  0  0  -0.365797  -0.620299  0  2.22204  0
O  O116  1  0.69751080  0.83669487  0.84546861  1  0  -0.748628  0  1.962559  0  0  -0.697633  0  2.197729  0  0  -0.71898  0  2.183374  0  0  -0.409823  -0.682916  0  2.207175  0
O  O117  1  0.30248223  0.66330710  0.34546880  1  0  -0.748622  0  1.962635  0  0  -0.697647  0  2.197817  0  0  -0.719001  0  2.183464  0  0  -0.409862  -0.682931  0  2.207267  0
O  O118  1  0.30248873  0.16331091  0.15453784  1  0  -0.748389  0  1.963532  0  0  -0.697429  0  2.198698  0  0  -0.71876  0  2.184336  0  0  -0.409716  -0.682724  0  2.20815  0
O  O119  1  0.69751455  0.33667867  0.65453386  1  0  -0.748481  0  1.963232  0  0  -0.697511  0  2.198445  0  0  -0.718845  0  2.184068  0  0  -0.409762  -0.682804  0  2.2079  0
O  O120  1  0.00927068  0.16267732  0.03847831  1  0  -0.721216  0  1.954492  0  0  -0.685373  0  2.203112  0  0  -0.70398  0  2.186416  0  0  -0.376288  -0.672558  0  2.21449  0
O  O121  1  0.99072931  0.33732263  0.53848474  1  0  -0.721164  0  1.954342  0  0  -0.685304  0  2.20292  0  0  -0.703928  0  2.186232  0  0  -0.376321  -0.672491  0  2.21429  0
O  O122  1  0.99071778  0.83731043  0.96151681  1  0  -0.721325  0  1.954246  0  0  -0.685459  0  2.202888  0  0  -0.704069  0  2.186179  0  0  -0.376408  -0.672654  0  2.214269  0
O  O123  1  0.00929495  0.66269721  0.46151868  1  0  -0.721228  0  1.954057  0  0  -0.685385  0  2.202746  0  0  -0.703971  0  2.186  0  0  -0.376298  -0.672576  0  2.214124  0
