# generated using pymatgen
data_Er2CuH12C15(N3O8)2
_symmetry_space_group_name_H-M   'P 1'
_cell_length_a   7.16502375
_cell_length_b   11.30285769
_cell_length_c   15.33180781
_cell_angle_alpha   82.07062458
_cell_angle_beta   77.32785948
_cell_angle_gamma   82.82580230
_symmetry_Int_Tables_number   1
_chemical_formula_structural   Er2CuH12C15(N3O8)2
_chemical_formula_sum   'Er4 Cu2 H24 C30 N12 O32'
_cell_volume   1194.05656366
_cell_formula_units_Z   2
loop_
 _symmetry_equiv_pos_site_id
 _symmetry_equiv_pos_as_xyz
  1  'x, y, z'
loop_
 _atom_site_type_symbol
 _atom_site_label
 _atom_site_symmetry_multiplicity
 _atom_site_fract_x
 _atom_site_fract_y
 _atom_site_fract_z
 _atom_site_occupancy
 _atom_site_pbe_bader_charge
 _atom_site_pbe_bader_spin_density
 _atom_site_pbe_cm5_charge
 _atom_site_pbe_ddec_charge
 _atom_site_pbe_ddec_spin_density
 _atom_site_pbe_ddec_sum_bond_order
 _atom_site_pbe_magmom
Er  Er0  1  0.50763254  0.66933132  0.35215887  1  2.207756  -0.000291  1.530512  2.150709  -0.000348  2.116377  -0.001
Er  Er1  1  0.49235089  0.33067564  0.64784228  1  2.207797  -0.000291  1.530549  2.150592  -0.000348  2.116717  -0.001
Er  Er2  1  0.48737896  0.77464009  0.75707164  1  2.150075  -0.000665  1.526766  1.936033  -0.000772  2.266286  -0.001
Er  Er3  1  0.51262680  0.22536042  0.24292460  1  2.15012  -0.000665  1.52689  1.935978  -0.000771  2.266554  -0.001
Cu  Cu4  1  0.19409805  0.81174312  0.04597568  1  1.036267  -0.557017  0.779828  0.713088  -0.71548  2.332661  -0.557
Cu  Cu5  1  0.80591641  0.18825635  0.95402762  1  1.036092  -0.557006  0.779887  0.713161  -0.715469  2.332628  -0.557
H  H6  1  0.22364155  0.38318046  0.99374699  1  0.137719  -0.000886  0.117287  0.14879  -0.000472  1.000128  -0.001
H  H7  1  0.77637402  0.61681100  0.00624719  1  0.13786  -0.000886  0.117246  0.148706  -0.000472  0.99989  -0.001
H  H8  1  0.37333402  0.21246495  0.89197795  1  0.159367  -0.000762  0.113251  0.141809  -0.000204  1.038133  -0.001
H  H9  1  0.62666229  0.78753110  0.10802752  1  0.159363  -0.000762  0.113252  0.141818  -0.000204  1.038093  -0.001
H  H10  1  0.95970440  0.68409386  0.42947736  1  0.179583  -0.0  0.119596  0.14684  1e-06  1.044481  0.0
H  H11  1  0.04028991  0.31591752  0.57051638  1  0.179661  -1e-06  0.119556  0.146772  1e-06  1.04453  0.0
H  H12  1  0.98727691  0.61097316  0.70403922  1  0.540155  -1.1e-05  0.343054  0.2841  1.3e-05  0.954209  0.0
H  H13  1  0.01272039  0.38903731  0.29595365  1  0.540112  -1.1e-05  0.342952  0.284074  1.3e-05  0.953937  0.0
H  H14  1  0.11796431  0.85600929  0.70466585  1  0.645585  5e-06  0.341488  0.440315  5e-06  0.837516  0.0
H  H15  1  0.88202652  0.14398503  0.29533839  1  0.645586  6e-06  0.341571  0.440436  5e-06  0.837345  0.0
H  H16  1  0.06053911  0.84802304  0.81406606  1  0.667687  3.3e-05  0.300126  0.408376  -2e-05  0.92357  0.0
H  H17  1  0.93944813  0.15196590  0.18594298  1  0.667799  3.4e-05  0.300076  0.408363  -2e-05  0.923607  0.0
H  H18  1  0.80098769  0.63473923  0.83629973  1  0.645666  -0.000216  0.297541  0.39502  -0.000237  0.94683  0.0
H  H19  1  0.19902428  0.36525762  0.16369820  1  0.645705  -0.000216  0.297594  0.395126  -0.000237  0.946699  0.0
H  H20  1  0.77564046  0.76514982  0.87146699  1  0.664395  -4.4e-05  0.301814  0.408861  -5.1e-05  0.927201  0.0
H  H21  1  0.22435969  0.23484981  0.12853317  1  0.664369  -4.4e-05  0.301803  0.408872  -5.1e-05  0.927184  0.0
H  H22  1  0.18959768  0.66868012  0.25121483  1  0.667362  -0.000149  0.309859  0.402781  -0.000163  0.926169  0.0
H  H23  1  0.81040293  0.33132667  0.74878655  1  0.667342  -0.000149  0.309872  0.402789  -0.000163  0.926156  0.0
H  H24  1  0.19464948  0.55168399  0.31785362  1  0.626296  1.9e-05  0.326554  0.409227  1.9e-05  0.893324  0.0
H  H25  1  0.80533839  0.44832207  0.68214195  1  0.626223  1.9e-05  0.32653  0.409309  1.8e-05  0.893261  0.0
H  H26  1  0.83649532  0.83176487  0.30634921  1  0.635236  4e-06  0.349067  0.441558  7e-06  0.829084  0.0
H  H27  1  0.16349313  0.16823668  0.69365065  1  0.634987  4e-06  0.349039  0.44149  7e-06  0.829168  0.0
H  H28  1  0.89144707  0.73669113  0.23586047  1  0.662168  -0.000122  0.310882  0.41757  -0.000156  0.901388  0.0
H  H29  1  0.10853267  0.26331139  0.76414018  1  0.6622  -0.000122  0.310943  0.417542  -0.000156  0.901464  0.0
C  C30  1  0.39144372  0.49651222  0.80238468  1  1.596414  -0.001037  0.218589  0.605917  -0.000595  4.239785  -0.001
C  C31  1  0.60856837  0.50348373  0.19761267  1  1.59678  -0.001037  0.21852  0.605919  -0.000595  4.239736  -0.001
C  C32  1  0.31900731  0.53686643  0.89187874  1  0.386173  -0.004044  0.07428  0.027138  -0.003095  4.019137  -0.006
C  C33  1  0.68101098  0.46312586  0.10812095  1  0.386259  -0.004043  0.074229  0.027242  -0.003095  4.018987  -0.006
C  C34  1  0.24548494  0.47732739  0.97653092  1  -0.033743  -0.000142  -0.089276  -0.182379  0.000328  3.892593  0.0
C  C35  1  0.75452544  0.52265954  0.02347792  1  -0.034304  -0.000143  -0.089156  -0.18221  0.000327  3.892665  0.0
C  C36  1  0.20430894  0.56886977  0.03275441  1  0.38303  -0.00346  0.063114  -0.011829  -0.002071  4.071076  -0.004
C  C37  1  0.79570336  0.43113511  0.96724727  1  0.383049  -0.003463  0.063026  -0.012006  -0.002073  4.071  -0.004
C  C38  1  0.12061241  0.57988377  0.12765377  1  1.547483  0.001244  0.22662  0.570652  0.001373  4.174153  0.002
C  C39  1  0.87941020  0.42009776  0.87234262  1  1.547974  0.001247  0.22676  0.570826  0.001374  4.173862  0.002
C  C40  1  0.57015921  0.05070630  0.74391049  1  1.606063  -0.001487  0.231311  0.638439  -0.000908  4.200835  -0.001
C  C41  1  0.42984009  0.94931037  0.25608875  1  1.606073  -0.001487  0.2313  0.638637  -0.000907  4.200454  -0.001
C  C42  1  0.45361132  0.03602347  0.83669245  1  0.403695  -0.004446  0.0759  0.014224  -0.003427  4.023295  -0.007
C  C43  1  0.54638021  0.96398697  0.16331210  1  0.40327  -0.004448  0.075918  0.014097  -0.003426  4.023323  -0.007
C  C44  1  0.36964087  0.11576781  0.90034656  1  -0.032677  0.000506  -0.091131  -0.205945  0.001117  3.917826  0.0
C  C45  1  0.63035459  0.88423450  0.09966099  1  -0.032475  0.000505  -0.091113  -0.205938  0.001116  3.917751  0.0
C  C46  1  0.27784595  0.04126341  0.97386513  1  0.382944  -0.004136  0.061307  -0.003094  -0.002148  4.048952  -0.005
C  C47  1  0.72215585  0.95873438  0.02613962  1  0.382819  -0.004136  0.061355  -0.003014  -0.002149  4.04897  -0.005
C  C48  1  0.15534515  0.05250125  0.06367379  1  1.553166  0.002445  0.214498  0.55123  0.002826  4.212627  0.003
C  C49  1  0.84465331  0.94750015  0.93633094  1  1.553209  0.002445  0.21447  0.551206  0.002826  4.212536  0.003
C  C50  1  0.56287579  0.77185779  0.54132792  1  1.629901  -5e-06  0.245672  0.659853  -6e-06  4.154177  0.0
C  C51  1  0.43713334  0.22814990  0.45866142  1  1.629588  -5e-06  0.245575  0.65981  -6e-06  4.154266  0.0
C  C52  1  0.75761538  0.72683680  0.55814765  1  0.429911  -2e-06  0.100162  0.043837  -1e-06  3.987172  0.0
C  C53  1  0.24238011  0.27317632  0.44185167  1  0.430359  -2e-06  0.100253  0.043958  -1e-06  3.98708  0.0
C  C54  1  0.92792861  0.68328270  0.50192409  1  -0.013223  -9e-06  -0.080801  -0.205534  -9e-06  3.899066  0.0
C  C55  1  0.07207262  0.31671963  0.49807374  1  -0.013285  -9e-06  -0.080733  -0.205337  -9e-06  3.898896  0.0
C  C56  1  0.04633443  0.63078838  0.56048354  1  0.386506  2e-06  0.100763  0.035451  2e-06  3.93102  0.0
C  C57  1  0.95366848  0.36921216  0.43951169  1  0.386854  2e-06  0.100765  0.035356  2e-06  3.931632  0.0
C  C58  1  0.22971402  0.55226721  0.54524839  1  1.649501  -1.1e-05  0.245477  0.652372  -1e-05  4.199075  0.0
C  C59  1  0.77028030  0.44772265  0.45474941  1  1.649447  -1.1e-05  0.245277  0.652155  -1e-05  4.19947  0.0
N  N60  1  0.32208993  0.65625004  0.89736175  1  -0.663965  -0.00879  -0.283519  -0.257506  -0.004796  3.446833  -0.006
N  N61  1  0.67791857  0.34374054  0.10264041  1  -0.664045  -0.008789  -0.283578  -0.257671  -0.004795  3.446642  -0.006
N  N62  1  0.25296132  0.67369958  0.98232082  1  -0.684524  -0.101636  -0.275225  -0.162218  -0.0681  3.738632  -0.088
N  N63  1  0.74705815  0.32629447  0.01768119  1  -0.684467  -0.101632  -0.27524  -0.162135  -0.068096  3.738311  -0.088
N  N64  1  0.41274935  0.92153424  0.87007446  1  -0.691972  -0.011438  -0.296232  -0.277879  -0.006549  3.461794  -0.007
N  N65  1  0.58725281  0.07847163  0.12992815  1  -0.691705  -0.011433  -0.296244  -0.277761  -0.006548  3.461469  -0.007
N  N66  1  0.30829756  0.92651862  0.95235101  1  -0.70545  -0.116945  -0.278868  -0.164972  -0.077938  3.737633  -0.102
N  N67  1  0.69170855  0.07347915  0.04765199  1  -0.705376  -0.116957  -0.278912  -0.165072  -0.077946  3.73758  -0.102
N  N68  1  0.77380880  0.70642007  0.64517248  1  -0.664041  -1e-06  -0.290744  -0.268765  1.4e-05  3.395106  0.0
N  N69  1  0.22618860  0.29358946  0.35482635  1  -0.664165  -1e-06  -0.290812  -0.268878  1.4e-05  3.395366  0.0
N  N70  1  0.94752024  0.64778302  0.64519124  1  -0.810932  -8e-06  -0.256838  -0.069385  6e-06  3.703073  0.0
N  N71  1  0.05248142  0.35221561  0.35482127  1  -0.811239  -7e-06  -0.25673  -0.069323  6e-06  3.703719  0.0
O  O72  1  0.46654243  0.57424435  0.73978534  1  -1.196695  0.000117  -0.384747  -0.684562  0.000217  2.313543  0.0
O  O73  1  0.53347302  0.42574802  0.26020680  1  -1.19596  0.000118  -0.384731  -0.684509  0.000217  2.313526  0.0
O  O74  1  0.37904758  0.38872536  0.79065572  1  -1.188633  -0.00162  -0.390708  -0.639592  -0.000957  2.269977  -0.001
O  O75  1  0.62096262  0.61127424  0.20933626  1  -1.189547  -0.00162  -0.390587  -0.639622  -0.000957  2.269963  -0.001
O  O76  1  0.07801690  0.49131850  0.18441122  1  -1.18728  -0.00714  -0.287017  -0.506049  -0.004343  2.232377  -0.006
O  O77  1  0.92198649  0.50866769  0.81558602  1  -1.187667  -0.007141  -0.287031  -0.506101  -0.004343  2.232181  -0.006
O  O78  1  0.09639839  0.69013854  0.15002743  1  -1.142656  -0.070801  -0.318382  -0.551432  -0.045435  2.329948  -0.065
O  O79  1  0.90362779  0.30984833  0.84996807  1  -1.142502  -0.070802  -0.318502  -0.55151  -0.045434  2.329951  -0.065
O  O80  1  0.61905522  0.95525470  0.70529990  1  -1.179568  2.8e-05  -0.391338  -0.643749  0.000196  2.210023  0.0
O  O81  1  0.38094351  0.04475576  0.29469218  1  -1.179966  2.9e-05  -0.391324  -0.643725  0.000196  2.210212  0.0
O  O82  1  0.61419987  0.15464679  0.70818570  1  -1.198079  -0.003268  -0.421039  -0.667723  -0.001999  2.281162  -0.003
O  O83  1  0.38579789  0.84536006  0.29181074  1  -1.197795  -0.003267  -0.421088  -0.667922  -0.001999  2.28073  -0.003
O  O84  1  0.09594237  0.15438599  0.09089226  1  -1.187726  -0.009904  -0.295511  -0.52848  -0.006008  2.253294  -0.008
O  O85  1  0.90405346  0.84561365  0.90911291  1  -1.18774  -0.009903  -0.295475  -0.528424  -0.006007  2.253233  -0.008
O  O86  1  0.10637703  0.95345795  0.11120005  1  -1.108146  -0.091547  -0.328275  -0.507855  -0.058411  2.278718  -0.083
O  O87  1  0.89363419  0.04654423  0.88880461  1  -1.108014  -0.091551  -0.328292  -0.507877  -0.058413  2.27871  -0.083
O  O88  1  0.43604197  0.80062735  0.60909706  1  -1.182274  -6e-06  -0.376941  -0.620311  1.6e-05  2.201197  0.0
O  O89  1  0.56394036  0.19938764  0.39090929  1  -1.182314  -5e-06  -0.376829  -0.620219  1.6e-05  2.201911  0.0
O  O90  1  0.53307682  0.77302510  0.46247569  1  -1.200586  -8.4e-05  -0.415157  -0.685276  -5.8e-05  2.277722  0.0
O  O91  1  0.46692271  0.22697899  0.53752867  1  -1.200504  -8.5e-05  -0.415212  -0.685357  -5.8e-05  2.2771  0.0
O  O92  1  0.33213443  0.55981941  0.46644638  1  -1.203544  -6.9e-05  -0.408044  -0.677302  -3.9e-05  2.359945  0.0
O  O93  1  0.66784484  0.44017597  0.53355175  1  -1.2036  -7e-05  -0.407995  -0.677216  -3.9e-05  2.360103  0.0
O  O94  1  0.26289553  0.47920566  0.61201976  1  -1.188159  -1.4e-05  -0.389236  -0.664856  -5e-06  2.300698  0.0
O  O95  1  0.73707312  0.52078352  0.38798202  1  -1.188138  -1.4e-05  -0.389123  -0.664773  -4e-06  2.300745  0.0
O  O96  1  0.16732822  0.83669958  0.75962258  1  -1.287621  -9.5e-05  -0.646557  -0.86755  -5.1e-05  2.087431  0.0
O  O97  1  0.83265748  0.16327956  0.24038235  1  -1.287725  -9.5e-05  -0.646583  -0.867619  -5.1e-05  2.087488  0.0
O  O98  1  0.72025928  0.71383964  0.83771725  1  -1.305496  -0.000961  -0.678576  -0.906362  -0.000571  2.166378  -0.001
O  O99  1  0.27975233  0.28615990  0.16227980  1  -1.305496  -0.000961  -0.678642  -0.906497  -0.000571  2.166343  -0.001
O  O100  1  0.22263831  0.63514661  0.30965271  1  -1.260408  -0.000777  -0.629007  -0.835769  -0.000489  2.150434  -0.001
O  O101  1  0.77735968  0.36485842  0.69034780  1  -1.260426  -0.000777  -0.628976  -0.83587  -0.000489  2.150205  -0.001
O  O102  1  0.79593477  0.76123477  0.28898994  1  -1.262657  -0.000359  -0.622198  -0.847779  -0.000222  2.080845  0.0
O  O103  1  0.20404437  0.23877224  0.71101034  1  -1.262487  -0.000361  -0.62225  -0.847683  -0.000223  2.081109  0.0
