# generated using pymatgen
data_Ag2H15C21S2N3O7
_symmetry_space_group_name_H-M   'P 1'
_cell_length_a   8.24139008
_cell_length_b   10.91337015
_cell_length_c   12.08288043
_cell_angle_alpha   70.18108893
_cell_angle_beta   83.41382769
_cell_angle_gamma   82.68698275
_symmetry_Int_Tables_number   1
_chemical_formula_structural   Ag2H15C21S2N3O7
_chemical_formula_sum   'Ag4 H30 C42 S4 N6 O14'
_cell_volume   1011.07984282
_cell_formula_units_Z   2
loop_
 _symmetry_equiv_pos_site_id
 _symmetry_equiv_pos_as_xyz
  1  'x, y, z'
loop_
 _atom_site_type_symbol
 _atom_site_label
 _atom_site_symmetry_multiplicity
 _atom_site_fract_x
 _atom_site_fract_y
 _atom_site_fract_z
 _atom_site_occupancy
 _atom_site_hle17_bader_spin_density
 _atom_site_hle17_ddec_charge
 _atom_site_hle17_ddec_spin_density
 _atom_site_hle17_ddec_sum_bond_order
 _atom_site_hle17_magmom
 _atom_site_hse06_10hf_bader_spin_density
 _atom_site_hse06_10hf_ddec_charge
 _atom_site_hse06_10hf_ddec_spin_density
 _atom_site_hse06_10hf_ddec_sum_bond_order
 _atom_site_hse06_10hf_magmom
 _atom_site_hse06_bader_spin_density
 _atom_site_hse06_ddec_charge
 _atom_site_hse06_ddec_spin_density
 _atom_site_hse06_ddec_sum_bond_order
 _atom_site_hse06_magmom
 _atom_site_pbe_bader_spin_density
 _atom_site_pbe_cm5_charge
 _atom_site_pbe_ddec_charge
 _atom_site_pbe_ddec_spin_density
 _atom_site_pbe_ddec_sum_bond_order
 _atom_site_pbe_magmom
Ag  Ag0  1  0.34660244  0.01969742  0.66731952  1  0  0.647908  0  1.230694  0  0  0.526075  0  1.646085  0  0  0.554398  0  1.600676  0  0  0.469785  0.506226  0  1.677574  0
Ag  Ag1  1  0.65339902  0.98030301  0.33267948  1  0  0.647913  0  1.230707  0  0  0.526093  0  1.646078  0  0  0.554416  0  1.600671  0  0  0.469785  0.506244  0  1.677567  0
Ag  Ag2  1  0.15735812  0.40355124  0.42851344  1  0  0.655265  0  1.196063  0  0  0.521876  0  1.601849  0  0  0.553036  0  1.557683  0  0  0.459982  0.49948  0  1.633168  0
Ag  Ag3  1  0.84264089  0.59644913  0.57148659  1  0  0.655261  0  1.196043  0  0  0.521885  0  1.601845  0  0  0.553044  0  1.55768  0  0  0.459995  0.499488  0  1.633164  0
H  H4  1  0.80218072  0.71224276  0.05040739  1  0  0.113888  0  0.965059  0  0  0.116211  0  1.039886  0  0  0.120128  0  1.036044  0  0  0.10852  0.113375  0  1.042547  0
H  H5  1  0.19781600  0.28775657  0.94959395  1  0  0.11389  0  0.965038  0  0  0.116208  0  1.039871  0  0  0.120125  0  1.036029  0  0  0.108517  0.113378  0  1.042513  0
H  H6  1  0.87917326  0.18756063  0.57618004  1  0  0.118744  0  0.963055  0  0  0.127026  0  1.026037  0  0  0.130739  0  1.023106  0  0  0.112903  0.124326  0  1.028205  0
H  H7  1  0.12082939  0.81243981  0.42382219  1  0  0.11876  0  0.963026  0  0  0.127042  0  1.026007  0  0  0.130758  0  1.02307  0  0  0.112918  0.124341  0  1.028175  0
H  H8  1  0.17528135  0.12969631  0.43099721  1  0  0.096907  0  0.952234  0  0  0.108445  0  1.013018  0  0  0.110713  0  1.010578  0  0  0.116412  0.10666  0  1.014981  0
H  H9  1  0.82471767  0.87030407  0.56900200  1  0  0.096902  0  0.952232  0  0  0.108438  0  1.01302  0  0  0.110706  0  1.01058  0  0  0.116411  0.106654  0  1.014984  0
H  H10  1  0.47645516  0.73130103  0.78829457  1  0  0.084008  0  0.955586  0  0  0.091565  0  1.024565  0  0  0.093882  0  1.022243  0  0  0.113928  0.089712  0  1.026592  0
H  H11  1  0.52354601  0.26870136  0.21170304  1  0  0.084029  0  0.955779  0  0  0.091595  0  1.02474  0  0  0.093912  0  1.022418  0  0  0.113962  0.089745  0  1.026763  0
H  H12  1  0.54813263  0.07395458  0.84386786  1  0  0.062343  0  0.984443  0  0  0.070639  0  1.054814  0  0  0.070935  0  1.056222  0  0  0.105078  0.070277  0  1.054132  0
H  H13  1  0.45186026  0.92604563  0.15613682  1  0  0.062342  0  0.98438  0  0  0.070671  0  1.054719  0  0  0.070968  0  1.05613  0  0  0.105069  0.070309  0  1.05404  0
H  H14  1  0.43893734  0.38041708  0.79908813  1  0  0.119586  0  0.935843  0  0  0.128329  0  0.995721  0  0  0.131889  0  0.994173  0  0  0.110115  0.125757  0  0.996971  0
H  H15  1  0.56106108  0.61958721  0.20090994  1  0  0.11958  0  0.935848  0  0  0.128315  0  0.995729  0  0  0.131876  0  0.994178  0  0  0.110106  0.125744  0  0.996979  0
H  H16  1  0.86757258  0.20611283  0.98828191  1  0  0.125053  0  0.965841  0  0  0.13569  0  1.02365  0  0  0.139192  0  1.022199  0  0  0.10975  0.133054  0  1.025101  0
H  H17  1  0.13243251  0.79388766  0.01171929  1  0  0.125042  0  0.96586  0  0  0.135695  0  1.023634  0  0  0.139197  0  1.022183  0  0  0.109729  0.13306  0  1.025083  0
H  H18  1  0.06663632  0.99469471  0.33177080  1  0  0.0963  0  0.993563  0  0  0.108856  0  1.051755  0  0  0.110396  0  1.052831  0  0  0.10318  0.107678  0  1.051335  0
H  H19  1  0.93336298  0.00530370  0.66823229  1  0  0.096257  0  0.993703  0  0  0.108832  0  1.051887  0  0  0.11039  0  1.052938  0  0  0.103156  0.107658  0  1.051454  0
H  H20  1  0.90803933  0.10179649  0.15736223  1  0  0.096642  0  0.977223  0  0  0.105002  0  1.046624  0  0  0.108532  0  1.042275  0  0  0.10432  0.102272  0  1.050067  0
H  H21  1  0.09196028  0.89819997  0.84263894  1  0  0.096659  0  0.977231  0  0  0.105009  0  1.046656  0  0  0.108542  0  1.042306  0  0  0.104302  0.102276  0  1.050107  0
H  H22  1  0.37076759  0.31098419  0.63610083  1  0  0.100887  0  1.001115  0  0  0.106226  0  1.072047  0  0  0.110379  0  1.067869  0  0  0.102629  0.103126  0  1.075255  0
H  H23  1  0.62923586  0.68901924  0.36389630  1  0  0.100878  0  1.001095  0  0  0.106221  0  1.072016  0  0  0.110374  0  1.067839  0  0  0.102632  0.103123  0  1.075225  0
H  H24  1  0.74315576  0.95467425  0.99946500  1  0  0.12016  0  0.943977  0  0  0.130355  0  1.000303  0  0  0.133628  0  0.999313  0  0  0.10954  0.127734  0  1.001636  0
H  H25  1  0.25683867  0.04532404  0.00053849  1  0  0.120168  0  0.943991  0  0  0.130362  0  1.000319  0  0  0.133636  0  0.999327  0  0  0.109531  0.12774  0  1.001654  0
H  H26  1  0.59459563  0.55665142  0.78531629  1  0  0.111268  0  0.981448  0  0  0.117094  0  1.055173  0  0  0.121288  0  1.051829  0  0  0.103402  0.114122  0  1.057522  0
H  H27  1  0.40541072  0.44334913  0.21467983  1  0  0.111276  0  0.981448  0  0  0.117041  0  1.055236  0  0  0.12123  0  1.051903  0  0  0.103415  0.114073  0  1.057578  0
H  H28  1  0.95901434  0.47243139  0.19998786  1  0  0.09627  0  0.967951  0  0  0.100457  0  1.040956  0  0  0.103402  0  1.037496  0  0  0.116338  0.098338  0  1.043517  0
H  H29  1  0.04098483  0.52756801  0.80001163  1  0  0.096301  0  0.967978  0  0  0.10048  0  1.040988  0  0  0.103426  0  1.037529  0  0  0.116343  0.098361  0  1.043553  0
H  H30  1  0.15085518  0.44103705  0.63858562  1  0  0.413698  0  0.902134  0  0  0.384099  0  0.964489  0  0  0.394377  0  0.949556  0  0  0.289022  0.376747  0  0.975202  0
H  H31  1  0.84914291  0.55896134  0.36141508  1  0  0.413709  0  0.90212  0  0  0.38411  0  0.964474  0  0  0.394388  0  0.949542  0  0  0.289036  0.37676  0  0.975185  0
H  H32  1  0.26912975  0.55128617  0.56833702  1  0  0.430114  0  0.856353  0  0  0.405295  0  0.91695  0  0  0.413855  0  0.905035  0  0  0.29746  0.399135  0  0.925495  0
H  H33  1  0.73086789  0.44871515  0.43166366  1  0  0.430088  0  0.85638  0  0  0.405274  0  0.916975  0  0  0.413834  0  0.905061  0  0  0.297449  0.399115  0  0.92552  0
C  C34  1  0.82030476  0.25635754  0.72437994  1  0  -0.155996  0  3.675133  0  0  -0.133829  0  3.928081  0  0  -0.141226  0  3.946929  0  0  -0.015229  -0.129529  0  3.91624  0
C  C35  1  0.17969605  0.74363893  0.27562362  1  0  -0.15589  0  3.675051  0  0  -0.133707  0  3.927966  0  0  -0.141099  0  3.946815  0  0  -0.015213  -0.129412  0  3.916134  0
C  C36  1  0.71832694  0.76733485  0.98339377  1  0  -0.031736  0  3.670407  0  0  -0.05886  0  3.919553  0  0  -0.055609  0  3.937729  0  0  -0.061459  -0.060641  0  3.907066  0
C  C37  1  0.28167330  0.23266555  0.01660533  1  0  -0.031729  0  3.67044  0  0  -0.058823  0  3.919557  0  0  -0.055573  0  3.937735  0  0  -0.061431  -0.060602  0  3.907072  0
C  C38  1  0.91934806  0.29788597  0.16382603  1  0  -0.020886  0  3.734101  0  0  -0.001424  0  3.96406  0  0  -0.007929  0  3.987424  0  0  -0.000319  0.002557  0  3.948432  0
C  C39  1  0.08065096  0.70211441  0.83617401  1  0  -0.020953  0  3.734041  0  0  -0.001464  0  3.964009  0  0  -0.007969  0  3.987376  0  0  -0.000322  0.002517  0  3.948377  0
C  C40  1  0.78194133  0.22433660  0.62867084  1  0  -0.063027  0  3.764314  0  0  -0.100719  0  4.015433  0  0  -0.097507  0  4.033508  0  0  -0.084182  -0.10276  0  4.003748  0
C  C41  1  0.21806041  0.77566186  0.37133122  1  0  -0.063096  0  3.764262  0  0  -0.100798  0  4.01537  0  0  -0.097589  0  4.033444  0  0  -0.084217  -0.102839  0  4.003686  0
C  C42  1  0.10051108  0.17470608  0.35643357  1  0  0.12747  0  3.662407  0  0  0.095453  0  3.904734  0  0  0.103044  0  3.923918  0  0  0.043381  0.090432  0  3.891599  0
C  C43  1  0.89949024  0.82529534  0.64356349  1  0  0.127454  0  3.662341  0  0  0.095452  0  3.904679  0  0  0.103042  0  3.923867  0  0  0.043358  0.09043  0  3.891546  0
C  C44  1  0.69728550  0.31689094  0.78590894  1  0  0.04825  0  3.733518  0  0  0.052713  0  3.968748  0  0  0.056695  0  3.988269  0  0  0.002209  0.050286  0  3.955353  0
C  C45  1  0.30271380  0.68310747  0.21409332  1  0  0.048271  0  3.733513  0  0  0.052727  0  3.968723  0  0  0.056707  0  3.988245  0  0  0.002204  0.050302  0  3.955327  0
C  C46  1  0.53841600  0.77644691  0.83742652  1  0  0.095933  0  3.66198  0  0  0.059359  0  3.910527  0  0  0.066747  0  3.928941  0  0  0.045925  0.054141  0  3.89878  0
C  C47  1  0.46158621  0.22355647  0.16257320  1  0  0.095887  0  3.662116  0  0  0.059279  0  3.91071  0  0  0.066677  0  3.929106  0  0  0.045874  0.054059  0  3.898964  0
C  C48  1  0.64590766  0.70187074  0.92274471  1  0  -0.027183  0  3.741891  0  0  -0.006213  0  3.969003  0  0  -0.012973  0  3.994277  0  0  -0.002191  -0.00189  0  3.951977  0
C  C49  1  0.35409503  0.29812973  0.07725254  1  0  -0.027135  0  3.741752  0  0  -0.006183  0  3.968917  0  0  -0.012946  0  3.994197  0  0  -0.002148  -0.001859  0  3.951892  0
C  C50  1  0.82986478  0.36844583  0.05736839  1  0  0.226997  0  3.774266  0  0  0.225251  0  4.023715  0  0  0.233617  0  4.043598  0  0  0.122901  0.219763  0  4.010377  0
C  C51  1  0.17013301  0.63155451  0.94263257  1  0  0.227077  0  3.774267  0  0  0.22529  0  4.023761  0  0  0.233653  0  4.043642  0  0  0.122872  0.219803  0  4.01042  0
C  C52  1  0.57731046  0.96842581  0.86876295  1  0  0.115593  0  3.727617  0  0  0.086278  0  3.974352  0  0  0.0931  0  3.995861  0  0  0.03793  0.08157  0  3.960193  0
C  C53  1  0.42268459  0.03157643  0.13123847  1  0  0.115629  0  3.727558  0  0  0.086274  0  3.974313  0  0  0.093092  0  3.995825  0  0  0.037993  0.081567  0  3.960152  0
C  C54  1  0.53556866  0.33465723  0.75237223  1  0  -0.084649  0  3.672369  0  0  -0.101064  0  3.922151  0  0  -0.104263  0  3.939503  0  0  -0.078259  -0.098775  0  3.910007  0
C  C55  1  0.46443035  0.66534314  0.24762780  1  0  -0.084618  0  3.67237  0  0  -0.10103  0  3.922158  0  0  -0.104226  0  3.939509  0  0  -0.078239  -0.09874  0  3.910009  0
C  C56  1  0.69131411  0.56027052  0.94418187  1  0  0.218328  0  3.800099  0  0  0.216291  0  4.048038  0  0  0.224328  0  4.068818  0  0  0.1178  0.21107  0  4.033574  0
C  C57  1  0.30868828  0.43973191  0.05581481  1  0  0.218384  0  3.800133  0  0  0.216336  0  4.048089  0  0  0.224372  0  4.068867  0  0  0.117825  0.211112  0  4.03363  0
C  C58  1  0.81217979  0.30523348  0.97632072  1  0  -0.188072  0  3.648879  0  0  -0.215591  0  3.894105  0  0  -0.223361  0  3.914646  0  0  -0.084302  -0.210221  0  3.880474  0
C  C59  1  0.18782288  0.69476698  0.02367902  1  0  -0.188147  0  3.648981  0  0  -0.215641  0  3.894177  0  0  -0.22341  0  3.914718  0  0  -0.084314  -0.21027  0  3.880542  0
C  C60  1  0.04143615  0.10018427  0.29979692  1  0  -0.092174  0  3.73826  0  0  -0.103093  0  3.983423  0  0  -0.11052  0  4.006678  0  0  -0.085047  -0.098404  0  3.967982  0
C  C61  1  0.95856423  0.89981515  0.70020330  1  0  -0.092168  0  3.738325  0  0  -0.103107  0  3.983474  0  0  -0.110546  0  4.006719  0  0  -0.085033  -0.098417  0  3.968037  0
C  C62  1  0.95075987  0.16137190  0.20256230  1  0  -0.056996  0  3.716416  0  0  -0.082332  0  3.96507  0  0  -0.078899  0  3.982089  0  0  -0.067799  -0.084114  0  3.953681  0
C  C63  1  0.04923958  0.83862552  0.79744107  1  0  -0.056969  0  3.716399  0  0  -0.082323  0  3.965073  0  0  -0.078895  0  3.982099  0  0  -0.067792  -0.084104  0  3.953678  0
C  C64  1  0.49628020  0.29707877  0.66045532  1  0  -0.057672  0  3.749438  0  0  -0.085774  0  4.000809  0  0  -0.082418  0  4.015732  0  0  -0.086999  -0.087829  0  3.99061  0
C  C65  1  0.50372247  0.70292169  0.33954359  1  0  -0.057642  0  3.74933  0  0  -0.085772  0  4.000738  0  0  -0.082417  0  4.015661  0  0  -0.087  -0.087829  0  3.990539  0
C  C66  1  0.62139248  0.24494643  0.59695791  1  0  -0.130415  0  3.784181  0  0  -0.09899  0  4.026581  0  0  -0.106636  0  4.04689  0  0  -0.02341  -0.093988  0  4.012868  0
C  C67  1  0.37860926  0.75505203  0.40304415  1  0  -0.130445  0  3.784086  0  0  -0.098997  0  4.026472  0  0  -0.106637  0  4.046772  0  0  -0.023391  -0.093994  0  4.012756  0
C  C68  1  0.68405121  0.90196163  0.95559768  1  0  -0.112577  0  3.726631  0  0  -0.120532  0  3.971214  0  0  -0.128527  0  3.993758  0  0  -0.083609  -0.115401  0  3.956622  0
C  C69  1  0.31594536  0.09803869  0.04440338  1  0  -0.112649  0  3.726776  0  0  -0.120598  0  3.971356  0  0  -0.128591  0  3.993899  0  0  -0.083659  -0.115466  0  3.956762  0
C  C70  1  0.66072839  0.50168310  0.86283566  1  0  -0.204844  0  3.685542  0  0  -0.23357  0  3.93988  0  0  -0.241256  0  3.959837  0  0  -0.08565  -0.228051  0  3.925749  0
C  C71  1  0.33927233  0.49831439  0.13716015  1  0  -0.204762  0  3.68544  0  0  -0.233432  0  3.939839  0  0  -0.241112  0  3.959792  0  0  -0.085661  -0.22792  0  3.925717  0
C  C72  1  0.72545523  0.37267305  0.87738265  1  0  0.101044  0  3.79693  0  0  0.115012  0  4.034058  0  0  0.117704  0  4.056789  0  0  0.004272  0.113124  0  4.018404  0
C  C73  1  0.27454529  0.62732539  0.12261868  1  0  0.100947  0  3.796983  0  0  0.114926  0  4.034079  0  0  0.117618  0  4.056811  0  0  0.004311  0.113038  0  4.018424  0
C  C74  1  0.98056071  0.36628957  0.22710287  1  0  0.108239  0  3.632882  0  0  0.068297  0  3.879939  0  0  0.076575  0  3.897498  0  0  0.050726  0.062848  0  3.868081  0
C  C75  1  0.01943740  0.63370883  0.77289617  1  0  0.10822  0  3.632719  0  0  0.068279  0  3.879783  0  0  0.076558  0  3.897339  0  0  0.050728  0.062828  0  3.867929  0
S  S76  1  0.03145380  0.21791524  0.75824298  1  0  1.282985  0  5.636843  0  0  1.183571  0  6.149748  0  0  1.231243  0  6.128691  0  0  0.510992  1.150853  0  6.16299  0
S  S77  1  0.96854807  0.78208223  0.24176102  1  0  1.283001  0  5.63667  0  0  1.183609  0  6.149547  0  0  1.231278  0  6.128494  0  0  0.511062  1.150898  0  6.162785  0
S  S78  1  0.58260290  0.22377176  0.46325133  1  0  1.275505  0  5.685519  0  0  1.180181  0  6.193993  0  0  1.228195  0  6.172132  0  0  0.496401  1.147101  0  6.207724  0
S  S79  1  0.41739749  0.77622767  0.53674806  1  0  1.275518  0  5.68557  0  0  1.18017  0  6.194046  0  0  1.228183  0  6.17219  0  0  0.496392  1.14709  0  6.207774  0
N  N80  1  0.77239615  0.49401773  0.04062085  1  0  -0.364016  0  3.007683  0  0  -0.33511  0  3.273076  0  0  -0.347267  0  3.287171  0  0  -0.304913  -0.327045  0  3.263492  0
N  N81  1  0.22760515  0.50598368  0.95937788  1  0  -0.364076  0  3.007756  0  0  -0.335156  0  3.273165  0  0  -0.34731  0  3.287257  0  0  -0.304926  -0.327092  0  3.263583  0
N  N82  1  0.07000130  0.30639218  0.32061321  1  0  -0.323189  0  3.350573  0  0  -0.230222  0  3.630002  0  0  -0.252945  0  3.649273  0  0  -0.344159  -0.214349  0  3.616405  0
N  N83  1  0.92999621  0.69361013  0.67938387  1  0  -0.323129  0  3.35042  0  0  -0.230185  0  3.629861  0  0  -0.252908  0  3.64913  0  0  -0.34412  -0.214313  0  3.616262  0
N  N84  1  0.50426104  0.90670149  0.81096156  1  0  -0.333436  0  3.35503  0  0  -0.25254  0  3.648261  0  0  -0.272969  0  3.665013  0  0  -0.343757  -0.238673  0  3.636925  0
N  N85  1  0.49573662  0.09329984  0.18903746  1  0  -0.333462  0  3.355033  0  0  -0.252555  0  3.648296  0  0  -0.272987  0  3.665052  0  0  -0.343794  -0.238688  0  3.636961  0
O  O86  1  0.08653390  0.33847863  0.76589660  1  0  -0.665549  0  2.020083  0  0  -0.601762  0  2.265327  0  0  -0.624303  0  2.252014  0  0  -0.328044  -0.585917  0  2.274182  0
O  O87  1  0.91346417  0.66151974  0.23410659  1  0  -0.665594  0  2.020118  0  0  -0.6018  0  2.265328  0  0  -0.624338  0  2.252012  0  0  -0.328045  -0.585961  0  2.274183  0
O  O88  1  0.03547940  0.10895169  0.86887381  1  0  -0.623407  0  1.93304  0  0  -0.572422  0  2.173306  0  0  -0.593293  0  2.160696  0  0  -0.323888  -0.557372  0  2.181568  0
O  O89  1  0.96452493  0.89104586  0.13112668  1  0  -0.623423  0  1.932833  0  0  -0.572477  0  2.173126  0  0  -0.593349  0  2.160517  0  0  -0.323927  -0.557426  0  2.18138  0
O  O90  1  0.11671665  0.18460076  0.65586641  1  0  -0.693923  0  2.087947  0  0  -0.627582  0  2.381053  0  0  -0.650975  0  2.362702  0  0  -0.346521  -0.610811  0  2.393029  0
O  O91  1  0.88328464  0.81540064  0.34413398  1  0  -0.693938  0  2.088  0  0  -0.6276  0  2.381091  0  0  -0.650993  0  2.36274  0  0  -0.346574  -0.610829  0  2.393063  0
O  O92  1  0.40998114  0.19416631  0.47651231  1  0  -0.688705  0  2.081526  0  0  -0.627626  0  2.375306  0  0  -0.650872  0  2.356197  0  0  -0.342316  -0.611031  0  2.387825  0
O  O93  1  0.59001909  0.80583409  0.52348763  1  0  -0.688715  0  2.081517  0  0  -0.627633  0  2.375305  0  0  -0.650879  0  2.356197  0  0  -0.342321  -0.61104  0  2.387824  0
O  O94  1  0.70160716  0.11659662  0.44958219  1  0  -0.659718  0  2.030226  0  0  -0.601161  0  2.307009  0  0  -0.624404  0  2.292263  0  0  -0.341936  -0.58461  0  2.316466  0
O  O95  1  0.29839322  0.88340280  0.55041803  1  0  -0.659685  0  2.030205  0  0  -0.601119  0  2.306987  0  0  -0.624364  0  2.292242  0  0  -0.341913  -0.584569  0  2.316441  0
O  O96  1  0.60873419  0.35228705  0.37354623  1  0  -0.660398  0  1.923484  0  0  -0.604667  0  2.163229  0  0  -0.627487  0  2.151666  0  0  -0.338407  -0.588333  0  2.170511  0
O  O97  1  0.39126652  0.64771043  0.62645123  1  0  -0.660418  0  1.923505  0  0  -0.604685  0  2.163277  0  0  -0.6275  0  2.151704  0  0  -0.338414  -0.588344  0  2.170539  0
O  O98  1  0.18566214  0.49949161  0.55768277  1  0  -0.85082  0  2.029279  0  0  -0.77055  0  2.2634  0  0  -0.796378  0  2.23002  0  0  -0.592509  -0.752011  0  2.286911  0
O  O99  1  0.81433702  0.50050778  0.44231838  1  0  -0.850796  0  2.029291  0  0  -0.770537  0  2.263424  0  0  -0.796364  0  2.230045  0  0  -0.592515  -0.752002  0  2.286945  0
