# generated using pymatgen
data_Zn3H22(C19O8)2
_symmetry_space_group_name_H-M   'P 1'
_cell_length_a   18.32109844
_cell_length_b   18.55208262
_cell_length_c   18.89383600
_cell_angle_alpha   110.14817039
_cell_angle_beta   109.10813806
_cell_angle_gamma   108.54188271
_symmetry_Int_Tables_number   1
_chemical_formula_structural   Zn3H22(C19O8)2
_chemical_formula_sum   'Zn6 H44 C76 O32'
_cell_volume   4980.02745346
_cell_formula_units_Z   2
loop_
 _symmetry_equiv_pos_site_id
 _symmetry_equiv_pos_as_xyz
  1  'x, y, z'
loop_
 _atom_site_type_symbol
 _atom_site_label
 _atom_site_symmetry_multiplicity
 _atom_site_fract_x
 _atom_site_fract_y
 _atom_site_fract_z
 _atom_site_occupancy
 _atom_site_pbe_bader_charge
 _atom_site_pbe_bader_spin_density
 _atom_site_pbe_cm5_charge
 _atom_site_pbe_ddec_charge
 _atom_site_pbe_ddec_spin_density
 _atom_site_pbe_ddec_sum_bond_order
 _atom_site_pbe_magmom
Zn  Zn0  1  0.43274901  0.93470747  0.99893639  1  1.308817  0  0.721652  0.950803  0  2.157162  0
Zn  Zn1  1  0.55989650  0.06685230  0.00737543  1  1.313829  0  0.729444  0.96541  0  2.120487  0
Zn  Zn2  1  0.01327547  0.07170080  0.56302154  1  1.309148  0  0.726737  0.95472  0  2.127646  0
Zn  Zn3  1  0.99827250  0.93914680  0.43068995  1  1.306259  0  0.722383  0.950885  0  2.150997  0
Zn  Zn4  1  0.44685420  0.51065236  0.44790088  1  1.30542  0  0.718408  0.94638  0  2.15764  0
Zn  Zn5  1  0.57076800  0.49766009  0.55978920  1  1.308886  0  0.728092  0.95646  0  2.13099  0
H  H6  1  0.41469323  0.14944443  0.85436862  1  0.075165  0  0.112052  0.127777  0  0.99478  0
H  H7  1  0.97844914  0.94333613  0.65543928  1  0.087741  0  0.099856  0.107841  0  1.037846  0
H  H8  1  0.09464207  0.03627479  0.18057149  1  0.066306  0  0.102303  0.109795  0  1.016924  0
H  H9  1  0.01522661  0.95988243  0.79791959  1  0.085764  0  0.102716  0.110119  0  1.019062  0
H  H10  1  0.33178892  0.28608069  0.34840720  1  0.090039  0  0.10415  0.127244  0  1.05096  0
H  H11  1  0.78092063  0.71529740  0.68637659  1  0.133841  0  0.110027  0.139682  0  1.016216  0
H  H12  1  0.39882103  0.33922623  0.63648991  1  0.077633  0  0.108248  0.112742  0  0.984087  0
H  H13  1  0.64034869  0.61528166  0.38113667  1  0.080882  0  0.109027  0.114781  0  0.984818  0
H  H14  1  0.29860552  0.84369507  0.77029209  1  0.092855  0  0.099813  0.110313  0  1.031569  0
H  H15  1  0.54889720  0.02794743  0.22791416  1  0.089663  0  0.096716  0.105632  0  1.036735  0
H  H16  1  0.15460428  0.71047989  0.66451564  1  0.05113  0  0.103653  0.101837  0  0.989662  0
H  H17  1  0.79168349  0.06704668  0.16972616  1  0.126274  0  0.119735  0.143964  0  0.972761  0
H  H18  1  0.51798189  0.00735815  0.33934621  1  0.041586  0  0.09591  0.090558  0  1.0042  0
H  H19  1  0.02747882  0.72139825  0.57505601  1  0.084902  0  0.105592  0.103649  0  0.982461  0
H  H20  1  0.63093368  0.00796004  0.45825863  1  0.044772  0  0.103424  0.099515  0  0.987435  0
H  H21  1  0.04884444  0.86206855  0.58463028  1  0.084434  0  0.096798  0.102686  0  1.042365  0
H  H22  1  0.77374330  0.03091395  0.46594951  1  0.064486  0  0.101065  0.112917  0  1.016805  0
H  H23  1  0.35523662  0.72561451  0.75500835  1  0.097539  0  0.114857  0.137438  0  0.981253  0
H  H24  1  0.46502126  0.11557073  0.25086526  1  0.058266  0  0.108088  0.119853  0  1.008773  0
H  H25  1  0.80262874  0.95217154  0.95214006  1  0.067867  0  0.103798  0.117702  0  0.994908  0
H  H26  1  0.33083673  0.23856425  0.95601414  1  0.06893  0  0.103286  0.118181  0  1.002823  0
H  H27  1  0.34048533  0.59172035  0.56060856  1  0.629357  0  0.317417  0.365391  0  0.922187  0
H  H28  1  0.79132149  0.88031845  0.80608254  1  0.05725  0  0.096328  0.092559  0  1.034962  0
H  H29  1  0.48208135  0.19351214  0.37770954  1  0.599442  0  0.342904  0.366736  0  0.86758  0
H  H30  1  0.09416914  0.09527547  0.09082893  1  0.039262  0  0.098074  0.092784  0  0.993828  0
H  H31  1  0.16083521  0.04175351  0.09300894  1  0.059551  0  0.09608  0.088232  0  1.000971  0
H  H32  1  0.18094981  0.12644745  0.06490317  1  0.069236  0  0.107566  0.113157  0  0.989435  0
H  H33  1  0.97941135  0.97740059  0.90977016  1  0.02571  0  0.098634  0.091916  0  0.994207  0
H  H34  1  0.05071919  0.92941016  0.90956973  1  0.044179  0  0.098883  0.096381  0  0.994496  0
H  H35  1  0.98295392  0.90997294  0.95841112  1  0.053998  0  0.110923  0.115978  0  0.973327  0
H  H36  1  0.35701840  0.21664646  0.79385794  1  0.619205  0  0.34262  0.367958  0  0.869382  0
H  H37  1  0.93446734  0.03040638  0.31003224  1  0.630006  0  0.311325  0.361132  0  0.938941  0
H  H38  1  0.69712644  0.81963161  0.01179131  1  0.03856  0  0.093772  0.088859  0  0.989687  0
H  H39  1  0.37767906  0.38631896  0.07563774  1  0.053796  0  0.103086  0.100037  0  0.985992  0
H  H40  1  0.58708029  0.80423204  0.98015439  1  0.050668  0  0.092663  0.092161  0  1.009956  0
H  H41  1  0.67669528  0.89234146  0.08454887  1  0.090601  0  0.100558  0.109558  0  1.007433  0
H  H42  1  0.23603139  0.03778374  0.98599702  1  0.042613  0  0.089868  0.080999  0  1.025646  0
H  H43  1  0.24222689  0.98655947  0.88999501  1  0.082056  0  0.104515  0.118798  0  1.005268  0
H  H44  1  0.21068447  0.07095932  0.90574976  1  0.037423  0  0.090953  0.086159  0  1.00347  0
H  H45  1  0.65055138  0.75410263  0.68225290  1  0.071813  0  0.098305  0.109165  0  1.019426  0
H  H46  1  0.42975395  0.41571699  0.22518400  1  0.103808  0  0.10121  0.11624  0  1.026343  0
H  H47  1  0.26798385  0.21794531  0.61489963  1  0.091294  0  0.103699  0.112499  0  1.006824  0
H  H48  1  0.74916992  0.71901748  0.36305236  1  0.062329  0  0.109173  0.115274  0  0.986034  0
H  H49  1  0.08905498  0.02966294  0.30571697  1  0.114268  0  0.100981  0.112094  0  1.02346  0
C  C50  1  0.49181685  0.86520923  0.89789243  1  1.5691  0  0.222263  0.604612  0  4.136498  0
C  C51  1  0.36975753  0.19192366  0.04327238  1  0.517803  0  0.079603  0.210771  0  4.039771  0
C  C52  1  0.73913065  0.90177064  0.89460095  1  -0.017473  0  -0.108665  -0.214333  0  4.029525  0
C  C53  1  0.35913642  0.25409229  0.02333567  1  -0.038453  0  -0.110528  -0.219616  0  4.039314  0
C  C54  1  0.73274805  0.85988190  0.81323589  1  0.038793  0  -0.095282  -0.055408  0  4.062496  0
C  C55  1  0.38418518  0.33619600  0.09073389  1  -0.036633  0  -0.09383  -0.060772  0  4.072675  0
C  C56  1  0.65373280  0.78952724  0.74355440  1  -0.064514  0  -0.103814  -0.155333  0  3.987801  0
C  C57  1  0.41454455  0.35341016  0.17505738  1  -0.017834  0  -0.10147  -0.155165  0  3.980181  0
C  C58  1  0.57571302  0.76434054  0.75024113  1  0.004253  0  0.001762  0.107321  0  3.983994  0
C  C59  1  0.42452768  0.29001939  0.19737046  1  0.03831  0  0.005694  0.106062  0  3.964303  0
C  C60  1  0.57911741  0.81488622  0.82941457  1  0.045564  0  -0.012929  -0.063971  0  3.936961  0
C  C61  1  0.43846637  0.08112543  0.09338943  1  1.572427  0  0.220579  0.607523  0  4.160551  0
C  C62  1  0.40662608  0.20956788  0.13020612  1  -0.024049  0  -0.012185  -0.06073  0  3.957398  0
C  C63  1  0.49699980  0.80009026  0.82858931  1  -0.081946  0  -0.00577  -0.027474  0  3.945067  0
C  C64  1  0.42587373  0.14893984  0.15196964  1  -0.020178  0  -0.000333  0.00166  0  3.947058  0
C  C65  1  0.40971820  0.01666229  0.87604904  1  1.554227  0  0.224289  0.610358  0  4.120196  0
C  C66  1  0.63264812  0.04292631  0.13864251  1  1.555636  0  0.227915  0.613061  0  4.117438  0
C  C67  1  0.41725081  0.73458510  0.75569324  1  0.06484  0  -0.088743  -0.206075  0  3.924609  0
C  C68  1  0.45015681  0.16206611  0.23427503  1  0.031605  0  -0.10112  -0.251781  0  3.988305  0
C  C69  1  0.41399735  0.68024230  0.67939538  1  0.482764  0  0.090907  0.31084  0  4.087833  0
C  C70  1  0.46206920  0.23817895  0.29995518  1  0.465298  0  0.096227  0.318933  0  4.056936  0
C  C71  1  0.49250092  0.69272986  0.67765275  1  0.042137  0  -0.036552  -0.234864  0  3.944799  0
C  C72  1  0.35163464  0.08995235  0.80563072  1  0.0475  0  -0.094123  -0.230575  0  4.002418  0
C  C73  1  0.45317777  0.30388964  0.28365314  1  0.025994  0  -0.025899  -0.206932  0  3.880214  0
C  C74  1  0.12700378  0.08843243  0.47080812  1  1.538882  0  0.225439  0.614645  0  4.109683  0
C  C75  1  0.89313521  0.86926728  0.48451488  1  1.509273  0  0.22321  0.608787  0  4.132308  0
C  C76  1  0.12804015  0.02521334  0.63110135  1  1.557032  0  0.223265  0.634403  0  4.115456  0
C  C77  1  0.89163820  0.04270054  0.41461653  1  1.500106  0  0.226096  0.632116  0  4.107804  0
C  C78  1  0.65006307  0.61637545  0.52258101  1  1.532102  0  0.225326  0.61337  0  4.117886  0
C  C79  1  0.41781495  0.37662692  0.51807825  1  1.539014  0  0.223695  0.616851  0  4.120546  0
C  C80  1  0.48939105  0.62531214  0.60446622  1  1.513213  0  0.220424  0.625804  0  4.124261  0
C  C81  1  0.47012787  0.38445947  0.35581477  1  1.514134  0  0.219268  0.620331  0  4.122007  0
C  C82  1  0.14250502  0.08633534  0.31602796  1  -0.029509  0  -0.092518  -0.106099  0  3.999111  0
C  C83  1  0.77804640  0.06077008  0.21991273  1  0.049698  0  -0.084781  -0.200303  0  3.935562  0
C  C84  1  0.93488123  0.89226553  0.66065309  1  0.006349  0  -0.090308  -0.101411  0  3.996514  0
C  C85  1  0.14611141  0.08979083  0.24540927  1  -0.057711  0  -0.107807  -0.208662  0  4.0321  0
C  C86  1  0.95538841  0.90212936  0.74160824  1  -0.067343  0  -0.106713  -0.207178  0  4.019887  0
C  C87  1  0.21603621  0.16280793  0.25822871  1  0.39375  0  0.081657  0.258549  0  4.075799  0
C  C88  1  0.89909140  0.83707807  0.75024335  1  0.403205  0  0.082031  0.256599  0  4.086607  0
C  C89  1  0.24414689  0.84841508  0.73042876  1  -0.025885  0  -0.094207  -0.128095  0  3.986848  0
C  C90  1  0.59872178  0.02993876  0.28052632  1  -0.011593  0  -0.09764  -0.131358  0  3.99757  0
C  C91  1  0.28058923  0.23022614  0.34124209  1  0.060468  0  -0.110129  -0.255853  0  3.960281  0
C  C92  1  0.82290067  0.76437748  0.67792925  1  0.006672  0  -0.106501  -0.262333  0  3.951371  0
C  C93  1  0.27923789  0.22767744  0.41455423  1  0.010224  0  0.001977  0.081136  0  3.966151  0
C  C94  1  0.28236982  0.09479023  0.75008940  1  0.421889  0  0.082564  0.289289  0  4.095381  0
C  C95  1  0.80046001  0.75297811  0.59435263  1  -0.026  0  0.002709  0.082144  0  3.966725  0
C  C96  1  0.20793630  0.15374627  0.40205045  1  0.021474  0  -0.006648  0.04259  0  3.961135  0
C  C97  1  0.85834653  0.81817319  0.58466217  1  0.02252  0  -0.005274  0.043714  0  3.945804  0
C  C98  1  0.20466426  0.15396397  0.47665500  1  -0.019947  0  -0.009579  -0.062317  0  3.933562  0
C  C99  1  0.83757949  0.80377980  0.49931064  1  -0.023701  0  -0.008286  -0.063842  0  3.937863  0
C  C100  1  0.27254958  0.21957549  0.55932684  1  -0.019748  0  -0.087584  -0.101749  0  3.998581  0
C  C101  1  0.76256083  0.72939892  0.42736217  1  0.022811  0  -0.086324  -0.105266  0  4.005992  0
C  C102  1  0.34537693  0.28816350  0.57139849  1  0.027537  0  -0.084249  -0.098604  0  4.008867  0
C  C103  1  0.70226123  0.67038123  0.43749809  1  -0.031468  0  -0.081055  -0.08756  0  3.998812  0
C  C104  1  0.34739112  0.29493048  0.50133387  1  -0.071261  0  -0.008031  -0.063483  0  3.917388  0
C  C105  1  0.83839298  0.05351358  0.28267588  1  0.49097  0  0.090728  0.308058  0  4.079017  0
C  C106  1  0.72001563  0.68088235  0.51857106  1  0.012721  0  -0.008602  -0.069117  0  3.915601  0
C  C107  1  0.16331687  0.77396272  0.67151550  1  -0.064977  0  -0.095768  -0.090839  0  4.051256  0
C  C108  1  0.58147887  0.01820012  0.34274273  1  -0.070846  0  -0.104533  -0.103942  0  4.078307  0
C  C109  1  0.09201018  0.77992674  0.62042707  1  -0.072174  0  -0.089786  -0.074229  0  4.03705  0
C  C110  1  0.64507106  0.01826035  0.40969546  1  -0.017327  0  -0.093957  -0.077989  0  4.054123  0
C  C111  1  0.10375691  0.85937924  0.62649597  1  -0.049541  0  -0.098141  -0.136982  0  3.982922  0
C  C112  1  0.72499434  0.03056731  0.41379967  1  -0.006084  0  -0.097401  -0.14102  0  3.975599  0
C  C113  1  0.18665823  0.93733814  0.68523047  1  0.011411  0  5.2e-05  0.074424  0  3.963523  0
C  C114  1  0.74479700  0.04225463  0.35049401  1  -0.013365  0  0.00102  0.086885  0  3.970977  0
C  C115  1  0.25782002  0.93204972  0.74067882  1  0.032868  0  -0.005996  0.041399  0  3.95627  0
C  C116  1  0.20014684  0.02035469  0.69183166  1  0.028739  0  -0.022937  -0.186303  0  3.89464  0
C  C117  1  0.67960178  0.04134305  0.28171178  1  0.01739  0  -0.006497  0.042549  0  3.950628  0
C  C118  1  0.33969658  0.01168540  0.80327025  1  -0.025027  0  -0.005432  -0.039244  0  3.939094  0
C  C119  1  0.69945360  0.05198903  0.21728979  1  -0.065002  0  -0.003853  -0.044139  0  3.936629  0
C  C120  1  0.16101682  0.10450369  0.10573569  1  0.375494  0  -0.136218  -0.176499  0  3.949544  0
C  C121  1  0.98640333  0.91930424  0.90517465  1  0.43859  0  -0.134254  -0.17407  0  3.946273  0
C  C122  1  0.65764904  0.85336039  0.01661345  1  0.357988  0  -0.141046  -0.165783  0  3.907133  0
C  C123  1  0.25252301  0.04812547  0.93794012  1  0.378019  0  -0.141705  -0.172624  0  3.909536  0
C  C124  1  0.82442431  0.04816053  0.34974519  1  0.008515  0  -0.033989  -0.231839  0  3.936455  0
C  C125  1  0.66463111  0.87747720  0.90367484  1  0.440107  0  0.083008  0.218635  0  4.027273  0
O  O126  1  0.43530453  0.83516106  0.92109045  1  -1.135826  0  -0.32319  -0.540272  0  2.230616  0
O  O127  1  0.39133242  0.99935757  0.06750753  1  -1.136966  0  -0.323328  -0.535719  0  2.216388  0
O  O128  1  0.38443192  0.96331132  0.90160200  1  -1.171252  0  -0.304347  -0.571078  0  2.406327  0
O  O129  1  0.65964832  0.09444489  0.11067281  1  -1.127598  0  -0.310431  -0.518553  0  2.232394  0
O  O130  1  0.49031689  0.07672616  0.91127158  1  -1.131309  0  -0.317595  -0.525052  0  2.219206  0
O  O131  1  0.55383974  0.98183047  0.10243514  1  -1.182838  0  -0.307226  -0.566435  0  2.356837  0
O  O132  1  0.10216598  0.11876464  0.52427191  1  -1.170856  0  -0.311096  -0.566979  0  2.331401  0
O  O133  1  0.91044808  0.83993045  0.42269195  1  -1.126281  0  -0.318658  -0.531876  0  2.226206  0
O  O134  1  0.08982630  0.00643708  0.41358687  1  -1.141172  0  -0.315265  -0.529937  0  2.259632  0
O  O135  1  0.91941044  0.94985238  0.53228709  1  -1.174656  0  -0.308381  -0.569012  0  2.345551  0
O  O136  1  0.10364788  0.08097728  0.66225775  1  -1.124064  0  -0.314857  -0.524723  0  2.210698  0
O  O137  1  0.50205137  0.11198704  0.08057070  1  -1.16369  0  -0.306304  -0.562245  0  2.32923  0
O  O138  1  0.92055169  0.99171149  0.38387561  1  -1.182771  0  -0.315778  -0.601111  0  2.343533  0
O  O139  1  0.09444816  0.97242944  0.55109812  1  -1.17265  0  -0.306292  -0.568824  0  2.344447  0
O  O140  1  0.91995697  0.08908762  0.49577269  1  -1.121405  0  -0.301226  -0.50549  0  2.235895  0
O  O141  1  0.57092858  0.59683612  0.47605840  1  -1.16729  0  -0.312784  -0.570819  0  2.31475  0
O  O142  1  0.49907171  0.40489712  0.57204177  1  -1.126912  0  -0.31896  -0.531383  0  2.208887  0
O  O143  1  0.33284302  0.61713661  0.61124579  1  -1.137199  0  -0.353741  -0.439408  0  2.232711  0
O  O144  1  0.48249308  0.24679572  0.37958311  1  -1.092398  0  -0.335218  -0.417525  0  2.30284  0
O  O145  1  0.22511978  0.17246245  0.19249287  1  -1.05326  0  -0.185884  -0.154307  0  2.558728  0
O  O146  1  0.91487118  0.84098372  0.82790713  1  -1.07778  0  -0.19024  -0.164977  0  2.55541  0
O  O147  1  0.29535387  0.17281936  0.75253226  1  -1.127777  0  -0.348762  -0.439428  0  2.26615  0
O  O148  1  0.67374876  0.58470533  0.57156587  1  -1.129203  0  -0.30873  -0.516902  0  2.26803  0
O  O149  1  0.90824689  0.05203779  0.27306418  1  -1.139832  0  -0.358222  -0.445122  0  2.24129  0
O  O150  1  0.67631220  0.91479052  0.98631593  1  -1.069054  0  -0.209573  -0.195285  0  2.544968  0
O  O151  1  0.34446342  0.11020534  0.97860059  1  -1.085294  0  -0.198237  -0.188408  0  2.594987  0
O  O152  1  0.39331423  0.41506859  0.47887509  1  -1.177548  0  -0.308765  -0.569386  0  2.340821  0
O  O153  1  0.42676927  0.59379784  0.52629323  1  -1.142453  0  -0.318927  -0.551433  0  2.228248  0
O  O154  1  0.53170913  0.41449497  0.43098086  1  -1.168173  0  -0.308445  -0.557073  0  2.343253  0
O  O155  1  0.54461342  0.59818794  0.62092578  1  -1.176488  0  -0.302292  -0.558516  0  2.330554  0
O  O156  1  0.41937640  0.41847249  0.33870011  1  -1.117382  0  -0.314259  -0.529774  0  2.2626  0
O  O157  1  0.53893540  0.94551196  0.92450162  1  -1.167312  0  -0.303072  -0.557552  0  2.373875  0
