# generated using pymatgen
data_CdH12C18SN2O7
_symmetry_space_group_name_H-M   'P 1'
_cell_length_a   7.73153310
_cell_length_b   9.09246151
_cell_length_c   13.06474225
_cell_angle_alpha   74.69615322
_cell_angle_beta   88.28373648
_cell_angle_gamma   74.63578730
_symmetry_Int_Tables_number   1
_chemical_formula_structural   CdH12C18SN2O7
_chemical_formula_sum   'Cd2 H24 C36 S2 N4 O14'
_cell_volume   853.41650868
_cell_formula_units_Z   2
loop_
 _symmetry_equiv_pos_site_id
 _symmetry_equiv_pos_as_xyz
  1  'x, y, z'
loop_
 _atom_site_type_symbol
 _atom_site_label
 _atom_site_symmetry_multiplicity
 _atom_site_fract_x
 _atom_site_fract_y
 _atom_site_fract_z
 _atom_site_occupancy
 _atom_site_hle17_bader_spin_density
 _atom_site_hle17_ddec_charge
 _atom_site_hle17_ddec_spin_density
 _atom_site_hle17_ddec_sum_bond_order
 _atom_site_hle17_magmom
 _atom_site_hse06_10hf_bader_spin_density
 _atom_site_hse06_10hf_ddec_charge
 _atom_site_hse06_10hf_ddec_spin_density
 _atom_site_hse06_10hf_ddec_sum_bond_order
 _atom_site_hse06_10hf_magmom
 _atom_site_hse06_bader_spin_density
 _atom_site_hse06_ddec_charge
 _atom_site_hse06_ddec_spin_density
 _atom_site_hse06_ddec_sum_bond_order
 _atom_site_hse06_magmom
 _atom_site_pbe_bader_spin_density
 _atom_site_pbe_cm5_charge
 _atom_site_pbe_ddec_charge
 _atom_site_pbe_ddec_spin_density
 _atom_site_pbe_ddec_sum_bond_order
 _atom_site_pbe_magmom
Cd  Cd0  1  0.98996233  0.94020137  0.36966702  1  0  1.186667  0  1.594942  0  0  1.001662  0  2.035288  0  0  1.062442  0  1.980881  0  0  0.780479  0.957637  0  2.073305  0
Cd  Cd1  1  0.01003998  0.05979680  0.63033267  1  0  1.186728  0  1.594944  0  0  1.00172  0  2.035294  0  0  1.062498  0  1.980888  0  0  0.780518  0.9577  0  2.073315  0
H  H2  1  0.14997671  0.46437722  0.62874482  1  0  0.110229  0  0.946481  0  0  0.118566  0  1.012019  0  0  0.122292  0  1.008721  0  0  0.111007  0.115742  0  1.014574  0
H  H3  1  0.85002229  0.53562332  0.37125450  1  0  0.110206  0  0.946469  0  0  0.118543  0  1.012016  0  0  0.122268  0  1.00872  0  0  0.111  0.115721  0  1.014569  0
H  H4  1  0.46242584  0.40813897  0.35752581  1  0  0.105951  0  0.943479  0  0  0.11374  0  1.009883  0  0  0.118173  0  1.00578  0  0  0.106902  0.110473  0  1.01283  0
H  H5  1  0.53757813  0.59185802  0.64247559  1  0  0.105923  0  0.943486  0  0  0.113718  0  1.009893  0  0  0.118148  0  1.005793  0  0  0.106902  0.110455  0  1.012818  0
H  H6  1  0.57083643  0.03611393  0.64928772  1  0  0.11248  0  0.944644  0  0  0.118092  0  1.013562  0  0  0.121932  0  1.010612  0  0  0.108459  0.115345  0  1.015605  0
H  H7  1  0.42916165  0.96388540  0.35071490  1  0  0.112497  0  0.944679  0  0  0.118123  0  1.013581  0  0  0.121963  0  1.010631  0  0  0.10849  0.115374  0  1.015623  0
H  H8  1  0.33483845  0.70622459  0.80101035  1  0  0.1254  0  0.95952  0  0  0.133622  0  1.018835  0  0  0.137596  0  1.015  0  0  0.133795  0.130626  0  1.021768  0
H  H9  1  0.66516371  0.29377832  0.19898847  1  0  0.125361  0  0.959581  0  0  0.133584  0  1.0189  0  0  0.137563  0  1.01506  0  0  0.133779  0.130589  0  1.021832  0
H  H10  1  0.23250111  0.47335511  0.90656545  1  0  0.141393  0  0.985872  0  0  0.148758  0  1.046379  0  0  0.152354  0  1.045029  0  0  0.115704  0.145891  0  1.047899  0
H  H11  1  0.76749918  0.52664543  0.09343385  1  0  0.141323  0  0.985946  0  0  0.148709  0  1.046434  0  0  0.152303  0  1.045089  0  0  0.115685  0.145892  0  1.047896  0
H  H12  1  0.28495473  0.63294103  0.18825780  1  0  0.14575  0  0.97911  0  0  0.152556  0  1.038361  0  0  0.157236  0  1.035393  0  0  0.118382  0.149074  0  1.040929  0
H  H13  1  0.71504319  0.36706305  0.81174166  1  0  0.145751  0  0.979129  0  0  0.152558  0  1.038376  0  0  0.157237  0  1.035409  0  0  0.118381  0.149071  0  1.040947  0
H  H14  1  0.39326515  0.85111493  0.07109575  1  0  0.109716  0  0.952134  0  0  0.115666  0  1.016345  0  0  0.119146  0  1.012947  0  0  0.129711  0.112848  0  1.019148  0
H  H15  1  0.60673349  0.14888678  0.92890336  1  0  0.109686  0  0.952  0  0  0.115638  0  1.016238  0  0  0.11912  0  1.012838  0  0  0.129693  0.112809  0  1.019049  0
H  H16  1  0.22596595  0.25772706  0.00776056  1  0  0.120019  0  0.971203  0  0  0.127266  0  1.035074  0  0  0.131131  0  1.033  0  0  0.108356  0.124262  0  1.037047  0
H  H17  1  0.77403397  0.74227467  0.99223623  1  0  0.120042  0  0.971194  0  0  0.127284  0  1.035064  0  0  0.131152  0  1.032987  0  0  0.108363  0.124279  0  1.037045  0
H  H18  1  0.13011494  0.03579678  0.12976902  1  0  0.086586  0  0.922171  0  0  0.09807  0  0.980021  0  0  0.100092  0  0.978297  0  0  0.121242  0.096492  0  0.981405  0
H  H19  1  0.86988720  0.96420614  0.87022827  1  0  0.086603  0  0.922174  0  0  0.098089  0  0.980028  0  0  0.100112  0  0.978304  0  0  0.121254  0.096515  0  0.981413  0
H  H20  1  0.03726928  0.26483504  0.36997802  1  0  0.107406  0  0.954195  0  0  0.113134  0  1.019762  0  0  0.116464  0  1.016576  0  0  0.121518  0.110637  0  1.022146  0
H  H21  1  0.96273396  0.73516433  0.63002067  1  0  0.107364  0  0.954154  0  0  0.113142  0  1.019683  0  0  0.116473  0  1.016495  0  0  0.121496  0.110642  0  1.022069  0
H  H22  1  0.12456339  0.49769431  0.25861669  1  0  0.120386  0  0.966635  0  0  0.127929  0  1.029197  0  0  0.130945  0  1.028588  0  0  0.113494  0.125587  0  1.030084  0
H  H23  1  0.87543617  0.50230860  0.74138143  1  0  0.120471  0  0.966629  0  0  0.128017  0  1.02917  0  0  0.131027  0  1.02857  0  0  0.113523  0.125676  0  1.030061  0
H  H24  1  0.40466338  0.88060033  0.88843525  1  0  0.305338  0  0.932575  0  0  0.281026  0  0.999637  0  0  0.290168  0  0.992674  0  0  0.310576  0.274454  0  1.004709  0
H  H25  1  0.59533526  0.11940138  0.11156463  1  0  0.305339  0  0.932581  0  0  0.281028  0  0.999641  0  0  0.290171  0  0.992677  0  0  0.310577  0.274457  0  1.004709  0
C  C26  1  0.35267173  0.24206648  0.64895316  1  0  -0.141022  0  3.75095  0  0  -0.107177  0  3.998363  0  0  -0.117966  0  4.020348  0  0  -0.021281  -0.100562  0  3.984052  0
C  C27  1  0.64732764  0.75793286  0.35104790  1  0  -0.141033  0  3.750929  0  0  -0.107176  0  3.998347  0  0  -0.117966  0  4.020333  0  0  -0.021266  -0.10056  0  3.984033  0
C  C28  1  0.25440193  0.39207807  0.59167344  1  0  -0.024407  0  3.6795  0  0  -0.066789  0  3.928714  0  0  -0.059982  0  3.94398  0  0  -0.067402  -0.071064  0  3.918307  0
C  C29  1  0.74559743  0.60792128  0.40832686  1  0  -0.024339  0  3.679507  0  0  -0.066754  0  3.928701  0  0  -0.059946  0  3.943965  0  0  -0.067397  -0.071032  0  3.918298  0
C  C30  1  0.29319505  0.45251540  0.48617411  1  0  -0.057688  0  3.733619  0  0  -0.028728  0  3.967459  0  0  -0.039582  0  3.99079  0  0  -0.013641  -0.022143  0  3.951816  0
C  C31  1  0.70680597  0.54748276  0.51382637  1  0  -0.05775  0  3.733648  0  0  -0.0287  0  3.967373  0  0  -0.039548  0  3.990698  0  0  -0.01362  -0.02212  0  3.951738  0
C  C32  1  0.42928764  0.36064066  0.43901910  1  0  -0.044765  0  3.668889  0  0  -0.085505  0  3.917234  0  0  -0.08019  0  3.934131  0  0  -0.066989  -0.088455  0  3.905349  0
C  C33  1  0.57071504  0.63935632  0.56098156  1  0  -0.044649  0  3.668683  0  0  -0.085441  0  3.916998  0  0  -0.080131  0  3.933895  0  0  -0.066955  -0.08838  0  3.90511  0
C  C34  1  0.52949357  0.21111273  0.49716982  1  0  -0.06541  0  3.733043  0  0  -0.035711  0  3.967145  0  0  -0.046704  0  3.989972  0  0  -0.016569  -0.029352  0  3.951999  0
C  C35  1  0.47050616  0.78888543  0.50283069  1  0  -0.065513  0  3.732907  0  0  -0.035764  0  3.966968  0  0  -0.046749  0  3.989787  0  0  -0.016631  -0.029408  0  3.951822  0
C  C36  1  0.49159066  0.15128691  0.60321015  1  0  -0.02476  0  3.674731  0  0  -0.068404  0  3.928899  0  0  -0.062038  0  3.944825  0  0  -0.068848  -0.071986  0  3.91822  0
C  C37  1  0.50840964  0.84871361  0.39679145  1  0  -0.024781  0  3.67472  0  0  -0.068459  0  3.928865  0  0  -0.062096  0  3.944787  0  0  -0.068881  -0.072041  0  3.918186  0
C  C38  1  0.68251116  0.11982599  0.44711271  1  0  0.647028  0  3.923584  0  0  0.595271  0  4.213288  0  0  0.62972  0  4.209003  0  0  0.198042  0.571743  0  4.215508  0
C  C39  1  0.31749058  0.88016981  0.55288895  1  0  0.647003  0  3.923634  0  0  0.595235  0  4.21332  0  0  0.629682  0  4.209042  0  0  0.198009  0.571707  0  4.21554  0
C  C40  1  0.19552011  0.61830182  0.42719235  1  0  0.6223  0  3.949534  0  0  0.573057  0  4.239949  0  0  0.606554  0  4.237006  0  0  0.19278  0.550307  0  4.241296  0
C  C41  1  0.80447610  0.38169515  0.57280921  1  0  0.622359  0  3.94934  0  0  0.573098  0  4.239741  0  0  0.606595  0  4.236799  0  0  0.192808  0.550346  0  4.241097  0
C  C42  1  0.32220032  0.68013693  0.88700617  1  0  0.144604  0  3.592013  0  0  0.103257  0  3.847585  0  0  0.111332  0  3.862535  0  0  0.066377  0.098228  0  3.837224  0
C  C43  1  0.67779869  0.31986360  0.11299392  1  0  0.14465  0  3.592032  0  0  0.103288  0  3.847634  0  0  0.111357  0  3.862584  0  0  0.066385  0.098254  0  3.837292  0
C  C44  1  0.26404347  0.55383382  0.94718546  1  0  -0.168505  0  3.681054  0  0  -0.189842  0  3.93716  0  0  -0.198687  0  3.959308  0  0  -0.075456  -0.1836  0  3.922056  0
C  C45  1  0.73595610  0.44616908  0.05281342  1  0  -0.168455  0  3.680996  0  0  -0.189812  0  3.937138  0  0  -0.198656  0  3.959288  0  0  -0.075444  -0.183609  0  3.922012  0
C  C46  1  0.24762076  0.53238095  0.05729802  1  0  0.110141  0  3.721063  0  0  0.11848  0  3.955677  0  0  0.124018  0  3.976445  0  0  0.024701  0.114831  0  3.941497  0
C  C47  1  0.75238046  0.46762077  0.94270105  1  0  0.110176  0  3.721062  0  0  0.118495  0  3.95566  0  0  0.124033  0  3.976427  0  0  0.024717  0.114847  0  3.941482  0
C  C48  1  0.29273363  0.64184354  0.10330700  1  0  -0.142048  0  3.631428  0  0  -0.159084  0  3.875883  0  0  -0.167301  0  3.894973  0  0  -0.065419  -0.154246  0  3.863703  0
C  C49  1  0.70726465  0.35815935  0.89669190  1  0  -0.142051  0  3.63148  0  0  -0.159071  0  3.875949  0  0  -0.167287  0  3.895037  0  0  -0.065417  -0.154226  0  3.863758  0
C  C50  1  0.35137817  0.76538360  0.03974869  1  0  0.145387  0  3.601882  0  0  0.105363  0  3.855182  0  0  0.113547  0  3.870199  0  0  0.06798  0.100034  0  3.845248  0
C  C51  1  0.64862306  0.23461812  0.96025114  1  0  0.145425  0  3.60172  0  0  0.105362  0  3.855069  0  0  0.113543  0  3.870088  0  0  0.067974  0.100039  0  3.84513  0
C  C52  1  0.18767564  0.39742630  0.12374731  1  0  0.08266  0  3.738649  0  0  0.094752  0  3.971156  0  0  0.097695  0  3.992781  0  0  0.011742  0.093028  0  3.956147  0
C  C53  1  0.81232429  0.60257543  0.87625102  1  0  0.082591  0  3.738756  0  0  0.094767  0  3.971145  0  0  0.09771  0  3.99277  0  0  0.011726  0.093044  0  3.956131  0
C  C54  1  0.18627450  0.26528609  0.08747239  1  0  -0.148362  0  3.670574  0  0  -0.168209  0  3.921647  0  0  -0.175068  0  3.941782  0  0  -0.080414  -0.16389  0  3.908478  0
C  C55  1  0.81372377  0.73471681  0.91252575  1  0  -0.148377  0  3.670604  0  0  -0.168256  0  3.92167  0  0  -0.175113  0  3.9418  0  0  -0.080459  -0.163936  0  3.908505  0
C  C56  1  0.13328372  0.14015281  0.15506556  1  0  0.144027  0  3.695439  0  0  0.110818  0  3.952477  0  0  0.118577  0  3.970741  0  0  0.051396  0.105657  0  3.940207  0
C  C57  1  0.86671584  0.85985009  0.84493178  1  0  0.144107  0  3.695484  0  0  0.110885  0  3.952519  0  0  0.118645  0  3.970786  0  0  0.051444  0.105718  0  3.940258  0
C  C58  1  0.08073523  0.26741842  0.28948011  1  0  0.140241  0  3.650325  0  0  0.109534  0  3.900834  0  0  0.1164  0  3.919001  0  0  0.054653  0.104965  0  3.888358  0
C  C59  1  0.91926670  0.73258095  0.71051707  1  0  0.14051  0  3.650119  0  0  0.109733  0  3.900656  0  0  0.116601  0  3.918816  0  0  0.054812  0.105171  0  3.888178  0
C  C60  1  0.13098317  0.39718419  0.22685049  1  0  -0.133375  0  3.659548  0  0  -0.151313  0  3.905949  0  0  -0.158466  0  3.926809  0  0  -0.071612  -0.146284  0  3.891801  0
C  C61  1  0.86901804  0.60281754  0.77314704  1  0  -0.133591  0  3.659716  0  0  -0.151549  0  3.90612  0  0  -0.158698  0  3.926982  0  0  -0.07172  -0.146525  0  3.891976  0
S  S62  1  0.29606794  0.17030257  0.78263835  1  0  1.30925  0  5.620537  0  0  1.2119  0  6.139087  0  0  1.260408  0  6.114517  0  0  0.511692  1.178433  0  6.154892  0
S  S63  1  0.70393107  0.82969795  0.21736250  1  0  1.309245  0  5.620544  0  0  1.211886  0  6.1391  0  0  1.260395  0  6.114527  0  0  0.511684  1.178428  0  6.154897  0
N  N64  1  0.36400507  0.78168212  0.93443870  1  0  -0.212101  0  3.474944  0  0  -0.139336  0  3.699999  0  0  -0.154853  0  3.717465  0  0  -0.336946  -0.128628  0  3.687986  0
N  N65  1  0.63599394  0.21831841  0.06556215  1  0  -0.212094  0  3.474963  0  0  -0.139303  0  3.700013  0  0  -0.15482  0  3.717482  0  0  -0.336912  -0.128594  0  3.687992  0
N  N66  1  0.08294875  0.14006588  0.25443950  1  0  -0.329688  0  3.258098  0  0  -0.249588  0  3.524827  0  0  -0.271093  0  3.543977  0  0  -0.322887  -0.234642  0  3.511687  0
N  N67  1  0.91705304  0.85993822  0.74555835  1  0  -0.329892  0  3.258057  0  0  -0.249769  0  3.524814  0  0  -0.271273  0  3.543959  0  0  -0.32298  -0.234826  0  3.511679  0
O  O68  1  0.80268628  0.00649868  0.50813828  1  0  -0.688523  0  2.055395  0  0  -0.612279  0  2.315067  0  0  -0.645422  0  2.306692  0  0  -0.333959  -0.588524  0  2.319981  0
O  O69  1  0.19731605  0.99349948  0.49186448  1  0  -0.688496  0  2.055326  0  0  -0.612285  0  2.315049  0  0  -0.645412  0  2.30664  0  0  -0.333932  -0.58853  0  2.319959  0
O  O70  1  0.69154517  0.15468202  0.34713828  1  0  -0.632153  0  1.965197  0  0  -0.580462  0  2.204486  0  0  -0.607266  0  2.196211  0  0  -0.323929  -0.561179  0  2.209479  0
O  O71  1  0.30845543  0.84530904  0.65286350  1  0  -0.632119  0  1.965275  0  0  -0.58042  0  2.20456  0  0  -0.607223  0  2.196288  0  0  -0.323904  -0.561137  0  2.209543  0
O  O72  1  0.23113965  0.67573948  0.33263403  1  0  -0.628076  0  1.947616  0  0  -0.576772  0  2.176962  0  0  -0.602383  0  2.169857  0  0  -0.323737  -0.558769  0  2.181631  0
O  O73  1  0.76885750  0.32425868  0.66736729  1  0  -0.628084  0  1.94751  0  0  -0.576791  0  2.176857  0  0  -0.602397  0  2.169744  0  0  -0.32375  -0.558789  0  2.181528  0
O  O74  1  0.07880771  0.69665922  0.47924479  1  0  -0.648853  0  2.029905  0  0  -0.576227  0  2.27803  0  0  -0.609267  0  2.272059  0  0  -0.327697  -0.55259  0  2.281158  0
O  O75  1  0.92118980  0.30333775  0.52075751  1  0  -0.648925  0  2.029853  0  0  -0.576288  0  2.277965  0  0  -0.60933  0  2.272001  0  0  -0.327762  -0.552648  0  2.281096  0
O  O76  1  0.24973966  0.30555954  0.82803117  1  0  -0.658962  0  1.971204  0  0  -0.611291  0  2.218574  0  0  -0.631954  0  2.20573  0  0  -0.341121  -0.596606  0  2.226918  0
O  O77  1  0.75025935  0.69444099  0.17196892  1  0  -0.658958  0  1.97117  0  0  -0.611285  0  2.218533  0  0  -0.631947  0  2.205687  0  0  -0.341116  -0.596616  0  2.226888  0
O  O78  1  0.45724482  0.04595381  0.83613650  1  0  -0.670694  0  1.970363  0  0  -0.619122  0  2.215381  0  0  -0.639563  0  2.201595  0  0  -0.342986  -0.604524  0  2.22443  0
O  O79  1  0.54275548  0.95404672  0.16386433  1  0  -0.670671  0  1.970439  0  0  -0.619112  0  2.215478  0  0  -0.639551  0  2.20169  0  0  -0.342972  -0.604523  0  2.224534  0
O  O80  1  0.14317233  0.10200952  0.77907078  1  0  -0.703573  0  2.015549  0  0  -0.646672  0  2.291608  0  0  -0.670444  0  2.274085  0  0  -0.358088  -0.62924  0  2.302559  0
O  O81  1  0.85682889  0.89799220  0.22092828  1  0  -0.703578  0  2.015485  0  0  -0.646677  0  2.291549  0  0  -0.670447  0  2.274023  0  0  -0.358106  -0.629242  0  2.30249  0
