# generated using pymatgen
data_CdH8C12S2(N2O)2
_symmetry_space_group_name_H-M   'P 1'
_cell_length_a   8.92572718
_cell_length_b   9.51605583
_cell_length_c   9.51608254
_cell_angle_alpha   96.21625979
_cell_angle_beta   109.09738355
_cell_angle_gamma   109.09700186
_symmetry_Int_Tables_number   1
_chemical_formula_structural   CdH8C12S2(N2O)2
_chemical_formula_sum   'Cd2 H16 C24 S4 N8 O4'
_cell_volume   700.45794608
_cell_formula_units_Z   2
loop_
 _symmetry_equiv_pos_site_id
 _symmetry_equiv_pos_as_xyz
  1  'x, y, z'
loop_
 _atom_site_type_symbol
 _atom_site_label
 _atom_site_symmetry_multiplicity
 _atom_site_fract_x
 _atom_site_fract_y
 _atom_site_fract_z
 _atom_site_occupancy
 _atom_site_hle17_bader_spin_density
 _atom_site_hle17_ddec_charge
 _atom_site_hle17_ddec_spin_density
 _atom_site_hle17_ddec_sum_bond_order
 _atom_site_hle17_magmom
 _atom_site_hse06_10hf_bader_spin_density
 _atom_site_hse06_10hf_ddec_charge
 _atom_site_hse06_10hf_ddec_spin_density
 _atom_site_hse06_10hf_ddec_sum_bond_order
 _atom_site_hse06_10hf_magmom
 _atom_site_hse06_bader_spin_density
 _atom_site_hse06_ddec_charge
 _atom_site_hse06_ddec_spin_density
 _atom_site_hse06_ddec_sum_bond_order
 _atom_site_hse06_magmom
 _atom_site_pbe_bader_spin_density
 _atom_site_pbe_cm5_charge
 _atom_site_pbe_ddec_charge
 _atom_site_pbe_ddec_spin_density
 _atom_site_pbe_ddec_sum_bond_order
 _atom_site_pbe_magmom
Cd  Cd0  1  0.75000069  0.21904574  0.78095319  1  0  1.008653  0  1.981002  0  0  0.850129  0  2.459193  0  0  0.895409  0  2.414639  0  0  0.701611  0.818565  0  2.489255  0
Cd  Cd1  1  0.25000003  0.78095465  0.21904685  1  0  1.008612  0  1.981079  0  0  0.85008  0  2.459309  0  0  0.895361  0  2.414755  0  0  0.701585  0.818516  0  2.489372  0
H  H2  1  0.32926807  0.55857893  0.64652514  1  0  0.102015  0  0.963684  0  0  0.108909  0  1.029835  0  0  0.112298  0  1.027932  0  0  0.102007  0.10646  0  1.031386  0
H  H3  1  0.17073677  0.35347258  0.44142257  1  0  0.101974  0  0.96369  0  0  0.1089  0  1.029821  0  0  0.11229  0  1.027918  0  0  0.101991  0.106449  0  1.031378  0
H  H4  1  0.67072978  0.44142031  0.35347285  1  0  0.102016  0  0.963687  0  0  0.108913  0  1.029827  0  0  0.112301  0  1.027924  0  0  0.102013  0.106463  0  1.03138  0
H  H5  1  0.82926396  0.64652782  0.55857852  1  0  0.102011  0  0.9637  0  0  0.108924  0  1.029833  0  0  0.112314  0  1.027929  0  0  0.101991  0.106472  0  1.03139  0
H  H6  1  0.52739576  0.49536381  0.86569454  1  0  0.103433  0  0.956369  0  0  0.1131  0  1.019464  0  0  0.115784  0  1.018033  0  0  0.101271  0.111095  0  1.020603  0
H  H7  1  0.97260116  0.13430532  0.50463556  1  0  0.103442  0  0.956364  0  0  0.113113  0  1.019458  0  0  0.115798  0  1.018023  0  0  0.10127  0.111107  0  1.020599  0
H  H8  1  0.47260210  0.50463543  0.13430450  1  0  0.103482  0  0.956427  0  0  0.113158  0  1.019496  0  0  0.11584  0  1.018067  0  0  0.101294  0.111152  0  1.020636  0
H  H9  1  0.02739413  0.86569621  0.49536399  1  0  0.103494  0  0.956421  0  0  0.113168  0  1.019498  0  0  0.11585  0  1.018069  0  0  0.101301  0.111162  0  1.020638  0
H  H10  1  0.75838461  0.71257491  0.08276461  1  0  0.111682  0  0.96939  0  0  0.116674  0  1.038814  0  0  0.119892  0  1.037623  0  0  0.104855  0.114359  0  1.039814  0
H  H11  1  0.74161135  0.91723914  0.28742352  1  0  0.1117  0  0.969437  0  0  0.116703  0  1.038847  0  0  0.119921  0  1.037655  0  0  0.104864  0.114388  0  1.039848  0
H  H12  1  0.24161611  0.28742548  0.91723333  1  0  0.11168  0  0.969404  0  0  0.116673  0  1.038834  0  0  0.119891  0  1.037643  0  0  0.104849  0.114358  0  1.039834  0
H  H13  1  0.25838561  0.08276354  0.71257457  1  0  0.111685  0  0.969426  0  0  0.116685  0  1.038841  0  0  0.119903  0  1.037649  0  0  0.104854  0.114371  0  1.039841  0
H  H14  1  0.36691013  0.83465016  0.66100367  1  0  0.11223  0  0.939597  0  0  0.122084  0  1.000835  0  0  0.124324  0  0.999587  0  0  0.127636  0.120408  0  1.001865  0
H  H15  1  0.13309427  0.33899388  0.16535157  1  0  0.112259  0  0.939555  0  0  0.12209  0  1.000802  0  0  0.124329  0  0.999555  0  0  0.12763  0.120409  0  1.001828  0
H  H16  1  0.63309059  0.16535023  0.33899532  1  0  0.112242  0  0.939573  0  0  0.122086  0  1.000816  0  0  0.124322  0  0.999573  0  0  0.127647  0.12041  0  1.001848  0
H  H17  1  0.86690764  0.66100651  0.83464884  1  0  0.112243  0  0.939571  0  0  0.122068  0  1.000825  0  0  0.124306  0  0.999576  0  0  0.127622  0.120386  0  1.001851  0
C  C18  1  0.68383015  0.88374406  0.98855566  1  0  0.106033  0  3.656814  0  0  0.093579  0  3.907012  0  0  0.101344  0  3.919671  0  0  0.119097  0.088507  0  3.89866  0
C  C19  1  0.81616747  0.01144386  0.11625716  1  0  0.105998  0  3.656885  0  0  0.093561  0  3.90707  0  0  0.101325  0  3.919731  0  0  0.119089  0.08848  0  3.898724  0
C  C20  1  0.31616938  0.11625633  0.01144402  1  0  0.105978  0  3.656874  0  0  0.09354  0  3.90706  0  0  0.101305  0  3.919723  0  0  0.119096  0.088461  0  3.898711  0
C  C21  1  0.18383039  0.98855539  0.88374188  1  0  0.10604  0  3.656781  0  0  0.093586  0  3.906978  0  0  0.101349  0  3.919643  0  0  0.119101  0.088512  0  3.898628  0
C  C22  1  0.42981289  0.64751246  0.74502050  1  0  -0.084582  0  3.776896  0  0  -0.098746  0  4.033979  0  0  -0.102697  0  4.053015  0  0  -0.079783  -0.096439  0  4.021254  0
C  C23  1  0.07018853  0.25497675  0.35248730  1  0  -0.084497  0  3.776954  0  0  -0.098712  0  4.034033  0  0  -0.102666  0  4.05307  0  0  -0.079755  -0.096406  0  4.021308  0
C  C24  1  0.57018665  0.35248794  0.25497918  1  0  -0.084502  0  3.776914  0  0  -0.09866  0  4.033982  0  0  -0.102611  0  4.053015  0  0  -0.079769  -0.096355  0  4.02126  0
C  C25  1  0.92980933  0.74502250  0.64751174  1  0  -0.084477  0  3.776913  0  0  -0.098672  0  4.033972  0  0  -0.102626  0  4.053008  0  0  -0.079745  -0.096366  0  4.021246  0
C  C26  1  0.53868985  0.61287574  0.86637331  1  0  -0.028808  0  3.714425  0  0  -0.051652  0  3.969357  0  0  -0.049098  0  3.986763  0  0  -0.0801  -0.052888  0  3.957343  0
C  C27  1  0.96130811  0.13362592  0.38712315  1  0  -0.028844  0  3.714504  0  0  -0.051693  0  3.969446  0  0  -0.049139  0  3.986851  0  0  -0.080121  -0.052931  0  3.957443  0
C  C28  1  0.46130968  0.38712466  0.13362637  1  0  -0.028892  0  3.714585  0  0  -0.05175  0  3.969527  0  0  -0.049194  0  3.98693  0  0  -0.080118  -0.052987  0  3.95752  0
C  C29  1  0.03868668  0.86637447  0.61287508  1  0  -0.028964  0  3.714534  0  0  -0.051836  0  3.969496  0  0  -0.049282  0  3.986901  0  0  -0.080169  -0.053073  0  3.957494  0
C  C30  1  0.66611209  0.73274061  0.98779143  1  0  -0.108063  0  3.704725  0  0  -0.128055  0  3.958928  0  0  -0.131822  0  3.97581  0  0  -0.072652  -0.125848  0  3.94772  0
C  C31  1  0.83388392  0.01220907  0.26725883  1  0  -0.108091  0  3.70484  0  0  -0.128103  0  3.959032  0  0  -0.13187  0  3.975913  0  0  -0.072677  -0.125883  0  3.947804  0
C  C32  1  0.33388913  0.26726093  0.01220784  1  0  -0.108037  0  3.704815  0  0  -0.128044  0  3.959024  0  0  -0.13181  0  3.975904  0  0  -0.072668  -0.125827  0  3.947798  0
C  C33  1  0.16611206  0.98779132  0.73273871  1  0  -0.108065  0  3.704779  0  0  -0.128059  0  3.958969  0  0  -0.131828  0  3.975855  0  0  -0.072675  -0.125839  0  3.947728  0
C  C34  1  0.44699846  0.79763847  0.74940925  1  0  0.021001  0  3.591886  0  0  -0.020401  0  3.850929  0  0  -0.014563  0  3.864541  0  0  0.039883  -0.024063  0  3.841894  0
C  C35  1  0.05300282  0.25058860  0.20236186  1  0  0.020895  0  3.591966  0  0  -0.020443  0  3.850964  0  0  -0.014602  0  3.864572  0  0  0.039857  -0.024093  0  3.841918  0
C  C36  1  0.55300157  0.20236307  0.25059175  1  0  0.020955  0  3.591872  0  0  -0.020439  0  3.850921  0  0  -0.014598  0  3.864529  0  0  0.039852  -0.024101  0  3.841888  0
C  C37  1  0.94699622  0.74941065  0.79763649  1  0  0.020878  0  3.59196  0  0  -0.020449  0  3.850934  0  0  -0.014606  0  3.864541  0  0  0.039872  -0.024099  0  3.841888  0
C  C38  1  0.62091675  0.89045665  0.51197794  1  0  0.305294  0  3.99732  0  0  0.287281  0  4.296984  0  0  0.307623  0  4.313276  0  0  0.14995  0.273385  0  4.285581  0
C  C39  1  0.87909698  0.48803400  0.10955256  1  0  0.305021  0  3.997372  0  0  0.287001  0  4.297078  0  0  0.307345  0  4.31338  0  0  0.149841  0.273102  0  4.285665  0
C  C40  1  0.37909308  0.10954835  0.48803274  1  0  0.305129  0  3.997419  0  0  0.287112  0  4.297112  0  0  0.307457  0  4.313413  0  0  0.149904  0.273213  0  4.285705  0
C  C41  1  0.12090712  0.51196869  0.89045191  1  0  0.30514  0  3.99756  0  0  0.287118  0  4.297258  0  0  0.307463  0  4.313558  0  0  0.149911  0.27322  0  4.285846  0
S  S42  1  0.51067149  0.71814864  0.39965718  1  0  -0.353717  0  2.152235  0  0  -0.315606  0  2.475997  0  0  -0.335345  0  2.470369  0  0  -0.137463  -0.301502  0  2.479372  0
S  S43  1  0.98932577  0.60033998  0.28184338  1  0  -0.353519  0  2.152881  0  0  -0.315391  0  2.476625  0  0  -0.335125  0  2.470999  0  0  -0.137398  -0.301288  0  2.479992  0
S  S44  1  0.48932626  0.28184488  0.60034121  1  0  -0.353541  0  2.152638  0  0  -0.315422  0  2.476381  0  0  -0.335158  0  2.470756  0  0  -0.137396  -0.301319  0  2.479753  0
S  S45  1  0.01067328  0.39965926  0.71815602  1  0  -0.353565  0  2.152731  0  0  -0.315443  0  2.476477  0  0  -0.335178  0  2.470851  0  0  -0.137407  -0.301339  0  2.479846  0
N  N46  1  0.56940512  0.91352144  0.87074616  1  0  0.252847  0  3.683634  0  0  0.29833  0  3.946965  0  0  0.300045  0  3.96592  0  0  -0.103701  0.296575  0  3.934308  0
N  N47  1  0.93059570  0.12925138  0.08647835  1  0  0.252892  0  3.683702  0  0  0.298363  0  3.947011  0  0  0.300078  0  3.965965  0  0  -0.103631  0.296613  0  3.934351  0
N  N48  1  0.43059629  0.08647781  0.12925292  1  0  0.252802  0  3.683559  0  0  0.298295  0  3.946895  0  0  0.30001  0  3.965848  0  0  -0.103664  0.296546  0  3.934238  0
N  N49  1  0.06940334  0.87074787  0.91352000  1  0  0.252949  0  3.683509  0  0  0.298423  0  3.946823  0  0  0.300138  0  3.965776  0  0  -0.103626  0.296671  0  3.934164  0
N  N50  1  0.70387359  0.01532450  0.59187171  1  0  -0.524573  0  2.849158  0  0  -0.472361  0  3.121465  0  0  -0.492439  0  3.12908  0  0  -0.384977  -0.458551  0  3.116138  0
N  N51  1  0.79612428  0.40812445  0.98466627  1  0  -0.524503  0  2.848569  0  0  -0.472265  0  3.12084  0  0  -0.492357  0  3.128484  0  0  -0.384936  -0.45845  0  3.115505  0
N  N52  1  0.29612367  0.98466788  0.40812641  1  0  -0.524576  0  2.848865  0  0  -0.472341  0  3.121154  0  0  -0.492434  0  3.128797  0  0  -0.384999  -0.458528  0  3.115822  0
N  N53  1  0.20387595  0.59187480  0.01533244  1  0  -0.524577  0  2.848929  0  0  -0.472337  0  3.12121  0  0  -0.492428  0  3.128854  0  0  -0.384991  -0.458523  0  3.115875  0
O  O54  1  0.57268027  0.05291904  0.87695445  1  0  -0.51912  0  1.853353  0  0  -0.478212  0  2.111701  0  0  -0.503054  0  2.112592  0  0  -0.236832  -0.460801  0  2.110675  0
O  O55  1  0.92731990  0.12304467  0.94708216  1  0  -0.519044  0  1.853291  0  0  -0.47818  0  2.111689  0  0  -0.503023  0  2.112579  0  0  -0.236827  -0.460767  0  2.11066  0
O  O56  1  0.42731828  0.94707906  0.12304467  1  0  -0.519039  0  1.853234  0  0  -0.478158  0  2.111654  0  0  -0.503  0  2.112544  0  0  -0.236831  -0.460736  0  2.110602  0
O  O57  1  0.07268083  0.87695572  0.05291998  1  0  -0.519108  0  1.853217  0  0  -0.478222  0  2.111612  0  0  -0.503063  0  2.1125  0  0  -0.236836  -0.460811  0  2.110588  0
