# generated using pymatgen
data_BiH15C14S2O15
_symmetry_space_group_name_H-M   'P 1'
_cell_length_a   7.44837563
_cell_length_b   11.09695642
_cell_length_c   12.49209111
_cell_angle_alpha   81.49885450
_cell_angle_beta   86.24618783
_cell_angle_gamma   86.99132201
_symmetry_Int_Tables_number   1
_chemical_formula_structural   BiH15C14S2O15
_chemical_formula_sum   'Bi2 H30 C28 S4 O30'
_cell_volume   1018.03060153
_cell_formula_units_Z   2
loop_
 _symmetry_equiv_pos_site_id
 _symmetry_equiv_pos_as_xyz
  1  'x, y, z'
loop_
 _atom_site_type_symbol
 _atom_site_label
 _atom_site_symmetry_multiplicity
 _atom_site_fract_x
 _atom_site_fract_y
 _atom_site_fract_z
 _atom_site_occupancy
 _atom_site_hle17_bader_spin_density
 _atom_site_hle17_ddec_charge
 _atom_site_hle17_ddec_spin_density
 _atom_site_hle17_ddec_sum_bond_order
 _atom_site_hle17_magmom
 _atom_site_hse06_10hf_bader_spin_density
 _atom_site_hse06_10hf_ddec_charge
 _atom_site_hse06_10hf_ddec_spin_density
 _atom_site_hse06_10hf_ddec_sum_bond_order
 _atom_site_hse06_10hf_magmom
 _atom_site_hse06_bader_spin_density
 _atom_site_hse06_ddec_charge
 _atom_site_hse06_ddec_spin_density
 _atom_site_hse06_ddec_sum_bond_order
 _atom_site_hse06_magmom
 _atom_site_pbe_bader_spin_density
 _atom_site_pbe_cm5_charge
 _atom_site_pbe_ddec_charge
 _atom_site_pbe_ddec_spin_density
 _atom_site_pbe_ddec_sum_bond_order
 _atom_site_pbe_magmom
Bi  Bi0  1  0.39297999  0.11455269  0.85846852  1  0  1.860056  0  2.006089  0  0  1.664977  0  2.469833  0  0  1.742265  0  2.411655  0  0  0.918722  1.613068  0  2.508101  0
Bi  Bi1  1  0.60701666  0.88544260  0.14153406  1  0  1.859975  0  2.006161  0  0  1.664915  0  2.469897  0  0  1.742202  0  2.411725  0  0  0.918684  1.613004  0  2.508157  0
H  H2  1  0.31222244  0.56566424  0.94593773  1  0  0.118157  0  0.966427  0  0  0.126257  0  1.031929  0  0  0.129668  0  1.028678  0  0  0.112965  0.123704  0  1.034191  0
H  H3  1  0.68777010  0.43433293  0.05405837  1  0  0.11817  0  0.966473  0  0  0.126272  0  1.031975  0  0  0.129682  0  1.028725  0  0  0.112985  0.123709  0  1.034242  0
H  H4  1  0.64988466  0.71327102  0.59753448  1  0  0.134329  0  0.930998  0  0  0.146025  0  0.984189  0  0  0.150146  0  0.982484  0  0  0.1141  0.143062  0  0.985612  0
H  H5  1  0.35012415  0.28672332  0.40246938  1  0  0.134313  0  0.931023  0  0  0.146006  0  0.98421  0  0  0.150106  0  0.982535  0  0  0.11408  0.143047  0  0.985633  0
H  H6  1  0.59498448  0.39586076  0.66926229  1  0  0.398328  0  0.876512  0  0  0.369038  0  0.95159  0  0  0.381293  0  0.93814  0  0  0.310334  0.360461  0  0.960878  0
H  H7  1  0.40501487  0.60413453  0.33073860  1  0  0.39842  0  0.876354  0  0  0.369092  0  0.951504  0  0  0.381348  0  0.93805  0  0  0.310361  0.360516  0  0.960778  0
H  H8  1  0.52090809  0.86081626  0.71680919  1  0  0.114737  0  0.938514  0  0  0.122815  0  1.000854  0  0  0.126492  0  0.996651  0  0  0.111898  0.120156  0  1.003779  0
H  H9  1  0.47909660  0.13917995  0.28318898  1  0  0.114711  0  0.938543  0  0  0.122784  0  1.000884  0  0  0.126458  0  0.996685  0  0  0.111888  0.120127  0  1.00381  0
H  H10  1  0.91882858  0.40175704  0.83068199  1  0  0.127852  0  0.924001  0  0  0.136324  0  0.986739  0  0  0.140185  0  0.982721  0  0  0.114819  0.133533  0  0.989564  0
H  H11  1  0.08116643  0.59824375  0.16931596  1  0  0.127804  0  0.924042  0  0  0.13631  0  0.98676  0  0  0.140165  0  0.982751  0  0  0.114821  0.133517  0  0.989578  0
H  H12  1  0.76756775  0.61217556  0.98983326  1  0  0.415141  0  0.873241  0  0  0.382684  0  0.951872  0  0  0.395603  0  0.937341  0  0  0.309625  0.373681  0  0.961631  0
H  H13  1  0.23242031  0.38782890  0.01016449  1  0  0.414956  0  0.87338  0  0  0.382495  0  0.952008  0  0  0.395413  0  0.937571  0  0  0.30955  0.37349  0  0.961775  0
H  H14  1  0.01403829  0.80285862  0.72826537  1  0  0.392442  0  0.871713  0  0  0.366146  0  0.942179  0  0  0.377528  0  0.929594  0  0  0.310848  0.358177  0  0.950811  0
H  H15  1  0.98595934  0.19714305  0.27173637  1  0  0.392461  0  0.871687  0  0  0.366172  0  0.942151  0  0  0.377556  0  0.929563  0  0  0.310877  0.358203  0  0.950787  0
H  H16  1  0.22430294  0.65764685  0.51637515  1  0  0.130155  0  0.935976  0  0  0.137899  0  0.994911  0  0  0.142451  0  0.992692  0  0  0.109629  0.13471  0  0.996597  0
H  H17  1  0.77570533  0.34235661  0.48362757  1  0  0.130227  0  0.935914  0  0  0.137941  0  0.994868  0  0  0.142492  0  0.992648  0  0  0.109631  0.13475  0  0.99657  0
H  H18  1  0.21961630  0.43395803  0.52119765  1  0  0.111933  0  0.96601  0  0  0.116273  0  1.034681  0  0  0.120028  0  1.031165  0  0  0.108225  0.113565  0  1.037176  0
H  H19  1  0.78039611  0.56604358  0.47880676  1  0  0.111976  0  0.965986  0  0  0.116292  0  1.034693  0  0  0.120044  0  1.031182  0  0  0.1082  0.113597  0  1.037147  0
H  H20  1  0.03131457  0.10989464  0.98108592  1  0  0.439951  0  0.818402  0  0  0.408975  0  0.894137  0  0  0.418753  0  0.883049  0  0  0.313936  0.402051  0  0.901981  0
H  H21  1  0.96868419  0.89011068  0.01891452  1  0  0.439974  0  0.818364  0  0  0.409009  0  0.894089  0  0  0.418787  0  0.882998  0  0  0.313948  0.402084  0  0.901936  0
H  H22  1  0.14745148  0.16093639  0.06198269  1  0  0.441221  0  0.859111  0  0  0.404617  0  0.93043  0  0  0.416846  0  0.912805  0  0  0.299922  0.396117  0  0.942658  0
H  H23  1  0.85255143  0.83906710  0.93801623  1  0  0.441247  0  0.859087  0  0  0.404637  0  0.930417  0  0  0.416864  0  0.912793  0  0  0.299923  0.396138  0  0.942644  0
H  H24  1  0.56011267  0.11229562  0.63525220  1  0  0.445509  0  0.793512  0  0  0.428912  0  0.842032  0  0  0.437676  0  0.833039  0  0  0.335045  0.422754  0  0.848389  0
H  H25  1  0.43989567  0.88770694  0.36474824  1  0  0.445549  0  0.793547  0  0  0.428937  0  0.842084  0  0  0.43771  0  0.833071  0  0  0.335066  0.422779  0  0.848438  0
H  H26  1  0.34710568  0.12811398  0.62428088  1  0  0.434586  0  0.865415  0  0  0.401408  0  0.930646  0  0  0.413038  0  0.913935  0  0  0.298405  0.393255  0  0.942314  0
H  H27  1  0.65290137  0.87188768  0.37571891  1  0  0.434558  0  0.865446  0  0  0.401396  0  0.930652  0  0  0.413024  0  0.913943  0  0  0.298416  0.393245  0  0.942318  0
H  H28  1  0.77901658  0.01889029  0.87643920  1  0  0.438826  0  0.8497  0  0  0.40866  0  0.912383  0  0  0.419767  0  0.896096  0  0  0.300906  0.400793  0  0.923933  0
H  H29  1  0.22098788  0.98110955  0.12356253  1  0  0.438891  0  0.849573  0  0  0.408717  0  0.912302  0  0  0.419829  0  0.896006  0  0  0.300916  0.400848  0  0.923855  0
H  H30  1  0.77990225  0.12145354  0.76926539  1  0  0.438508  0  0.860871  0  0  0.402926  0  0.931142  0  0  0.414598  0  0.914211  0  0  0.296331  0.39474  0  0.942984  0
H  H31  1  0.22009673  0.87854814  0.23073470  1  0  0.438497  0  0.860876  0  0  0.402905  0  0.931167  0  0  0.414579  0  0.914231  0  0  0.29632  0.39472  0  0.943008  0
C  C32  1  0.41092967  0.71966907  0.83905938  1  0  -0.156811  0  3.759055  0  0  -0.135046  0  4.025733  0  0  -0.147417  0  4.047417  0  0  -0.03333  -0.127426  0  4.011331  0
C  C33  1  0.58906813  0.28032990  0.16093790  1  0  -0.15697  0  3.758985  0  0  -0.135196  0  4.025641  0  0  -0.147565  0  4.047319  0  0  -0.033399  -0.127583  0  4.011257  0
C  C34  1  0.38673037  0.59610543  0.86981307  1  0  -0.025065  0  3.723544  0  0  -0.068978  0  3.982666  0  0  -0.060332  0  3.999764  0  0  -0.074901  -0.073537  0  3.970088  0
C  C35  1  0.61326744  0.40389354  0.13018341  1  0  -0.024965  0  3.723516  0  0  -0.068885  0  3.98261  0  0  -0.060238  0  3.999714  0  0  -0.074888  -0.073436  0  3.970025  0
C  C36  1  0.45624592  0.51182478  0.80238704  1  0  -0.224233  0  3.755514  0  0  -0.203184  0  4.00036  0  0  -0.22128  0  4.024697  0  0  -0.038292  -0.192032  0  3.984114  0
C  C37  1  0.54375199  0.48817235  0.19761206  1  0  -0.224322  0  3.75535  0  0  -0.203267  0  4.000233  0  0  -0.221376  0  4.02459  0  0  -0.038324  -0.19209  0  3.983946  0
C  C38  1  0.55114629  0.55587637  0.70275770  1  0  0.362855  0  3.776651  0  0  0.342176  0  4.040199  0  0  0.36052  0  4.054304  0  0  0.106639  0.329627  0  4.030818  0
C  C39  1  0.44885457  0.44411619  0.29724347  1  0  0.362876  0  3.776679  0  0  0.342228  0  4.040175  0  0  0.360577  0  4.054274  0  0  0.106699  0.329662  0  4.030808  0
C  C40  1  0.57463560  0.68189155  0.67350195  1  0  -0.189388  0  3.677131  0  0  -0.207463  0  3.934836  0  0  -0.217777  0  3.952618  0  0  -0.094833  -0.200849  0  3.923307  0
C  C41  1  0.42536920  0.31810283  0.32649805  1  0  -0.189415  0  3.677187  0  0  -0.207487  0  3.934892  0  0  -0.217781  0  3.952666  0  0  -0.094773  -0.200877  0  3.923381  0
C  C42  1  0.50470776  0.76332021  0.74054157  1  0  0.019134  0  3.693942  0  0  -0.014378  0  3.954357  0  0  -0.005025  0  3.967106  0  0  -0.065916  -0.020766  0  3.946041  0
C  C43  1  0.49529553  0.23667692  0.25945653  1  0  0.019155  0  3.693877  0  0  -0.014341  0  3.954261  0  0  -0.004989  0  3.967009  0  0  -0.065953  -0.02073  0  3.945957  0
C  C44  1  0.42845143  0.38067576  0.83147944  1  0  0.662341  0  3.863621  0  0  0.605024  0  4.158862  0  0  0.641749  0  4.152685  0  0  0.214279  0.580747  0  4.161714  0
C  C45  1  0.57154379  0.61932138  0.16852057  1  0  0.662474  0  3.863669  0  0  0.605151  0  4.158912  0  0  0.641875  0  4.152736  0  0  0.214285  0.580865  0  4.161756  0
C  C46  1  0.06753034  0.40430528  0.67567919  1  0  -0.175073  0  3.781768  0  0  -0.153336  0  4.049601  0  0  -0.16644  0  4.072528  0  0  -0.037667  -0.145037  0  4.034264  0
C  C47  1  0.93246993  0.59569731  0.32431994  1  0  -0.175068  0  3.781561  0  0  -0.153315  0  4.049395  0  0  -0.166417  0  4.072325  0  0  -0.037638  -0.145002  0  4.034029  0
C  C48  1  0.98582904  0.45707996  0.76164527  1  0  -0.008099  0  3.698023  0  0  -0.053856  0  3.962395  0  0  -0.044159  0  3.976799  0  0  -0.073498  -0.05972  0  3.952246  0
C  C49  1  0.01416719  0.54292264  0.23835481  1  0  -0.00795  0  3.698126  0  0  -0.053752  0  3.962508  0  0  -0.044049  0  3.976906  0  0  -0.073433  -0.059619  0  3.952342  0
C  C50  1  0.98832919  0.58377847  0.75963741  1  0  -0.243473  0  3.786469  0  0  -0.222432  0  4.034339  0  0  -0.240721  0  4.059536  0  0  -0.038236  -0.210518  0  4.017329  0
C  C51  1  0.01166832  0.41622503  0.24036331  1  0  -0.243666  0  3.786624  0  0  -0.222636  0  4.034523  0  0  -0.240927  0  4.059716  0  0  -0.038355  -0.210727  0  4.017506  0
C  C52  1  0.07418195  0.65734039  0.66928362  1  0  0.364616  0  3.773496  0  0  0.344448  0  4.038378  0  0  0.362176  0  4.05288  0  0  0.107475  0.33263  0  4.028316  0
C  C53  1  0.92581288  0.34266312  0.33071639  1  0  0.364659  0  3.77342  0  0  0.344495  0  4.03829  0  0  0.362221  0  4.052793  0  0  0.107483  0.332695  0  4.028209  0
C  C54  1  0.15900280  0.60088096  0.58481025  1  0  -0.181186  0  3.685024  0  0  -0.200258  0  3.947137  0  0  -0.210675  0  3.966128  0  0  -0.099029  -0.193658  0  3.934516  0
C  C55  1  0.84100563  0.39911976  0.41519281  1  0  -0.181364  0  3.684996  0  0  -0.200366  0  3.947054  0  0  -0.210782  0  3.966043  0  0  -0.099069  -0.193781  0  3.934454  0
C  C56  1  0.15517501  0.47598228  0.58774659  1  0  -0.009964  0  3.74636  0  0  -0.043859  0  4.010285  0  0  -0.036441  0  4.026653  0  0  -0.07648  -0.048381  0  3.999075  0
C  C57  1  0.84482799  0.52401936  0.41225736  1  0  -0.009957  0  3.746135  0  0  -0.043865  0  4.010058  0  0  -0.036448  0  4.026424  0  0  -0.076428  -0.048384  0  3.998853  0
C  C58  1  0.90100043  0.64168031  0.84844583  1  0  0.683177  0  3.807255  0  0  0.622946  0  4.109968  0  0  0.658249  0  4.101895  0  0  0.234671  0.599073  0  4.11497  0
C  C59  1  0.09899300  0.35832411  0.15155493  1  0  0.683185  0  3.807216  0  0  0.622961  0  4.109923  0  0  0.658272  0  4.101842  0  0  0.23466  0.599091  0  4.114923  0
S  S60  1  0.31668777  0.82612886  0.92099439  1  0  1.295642  0  5.590913  0  0  1.192406  0  6.111962  0  0  1.241335  0  6.092736  0  0  0.516479  1.158925  0  6.12447  0
S  S61  1  0.68331014  0.17386827  0.07900472  1  0  1.295816  0  5.590592  0  0  1.192608  0  6.111601  0  0  1.241538  0  6.092367  0  0  0.516507  1.159131  0  6.124122  0
S  S62  1  0.05254799  0.24616513  0.67420001  1  0  1.3375  0  5.556403  0  0  1.23322  0  6.078348  0  0  1.282517  0  6.055462  0  0  0.532567  1.199312  0  6.093  0
S  S63  1  0.94745229  0.75383747  0.32579832  1  0  1.337602  0  5.556212  0  0  1.233327  0  6.07814  0  0  1.282616  0  6.05526  0  0  0.532615  1.199412  0  6.092802  0
O  O64  1  0.47204036  0.88726162  0.95969446  1  0  -0.761788  0  2.071231  0  0  -0.686527  0  2.335669  0  0  -0.716672  0  2.32641  0  0  -0.327581  -0.666258  0  2.341309  0
O  O65  1  0.52795619  0.11273550  0.04030710  1  0  -0.761828  0  2.071091  0  0  -0.686574  0  2.335524  0  0  -0.716716  0  2.326261  0  0  -0.327615  -0.666314  0  2.341187  0
O  O66  1  0.22062187  0.92176307  0.84749244  1  0  -0.667931  0  1.964964  0  0  -0.609766  0  2.214515  0  0  -0.634738  0  2.203386  0  0  -0.321891  -0.59331  0  2.221632  0
O  O67  1  0.77937469  0.07823406  0.15250832  1  0  -0.667902  0  1.964924  0  0  -0.609787  0  2.214512  0  0  -0.634757  0  2.203379  0  0  -0.321835  -0.593324  0  2.221627  0
O  O68  1  0.20535887  0.76287477  0.00936048  1  0  -0.615839  0  1.92536  0  0  -0.568662  0  2.168402  0  0  -0.588273  0  2.154127  0  0  -0.323505  -0.554869  0  2.177589  0
O  O69  1  0.79463792  0.23711874  0.99063673  1  0  -0.615929  0  1.925282  0  0  -0.56874  0  2.168302  0  0  -0.588351  0  2.154025  0  0  -0.323513  -0.554953  0  2.177506  0
O  O70  1  0.34047090  0.33415583  0.91746064  1  0  -0.630911  0  2.042173  0  0  -0.566958  0  2.275017  0  0  -0.595851  0  2.267282  0  0  -0.289248  -0.547411  0  2.279492  0
O  O71  1  0.65952172  0.66583947  0.08254209  1  0  -0.63094  0  2.042239  0  0  -0.56702  0  2.275138  0  0  -0.595898  0  2.267368  0  0  -0.289249  -0.547497  0  2.279655  0
O  O72  1  0.49699285  0.30758057  0.76584748  1  0  -0.653687  0  2.041493  0  0  -0.584712  0  2.275726  0  0  -0.614715  0  2.267153  0  0  -0.288843  -0.564963  0  2.280458  0
O  O73  1  0.50300262  0.69241199  0.23415470  1  0  -0.653756  0  2.041487  0  0  -0.58476  0  2.275744  0  0  -0.614768  0  2.267174  0  0  -0.288843  -0.565006  0  2.280464  0
O  O74  1  0.62069466  0.48155783  0.63421274  1  0  -0.487358  0  2.129186  0  0  -0.431659  0  2.342984  0  0  -0.453413  0  2.334813  0  0  -0.324979  -0.416516  0  2.348198  0
O  O75  1  0.37930890  0.51843473  0.36578673  1  0  -0.487357  0  2.129102  0  0  -0.431696  0  2.342992  0  0  -0.453453  0  2.334817  0  0  -0.325035  -0.416545  0  2.348202  0
O  O76  1  0.11170344  0.18431431  0.78179142  1  0  -0.728159  0  2.030332  0  0  -0.658961  0  2.294287  0  0  -0.685773  0  2.280675  0  0  -0.332593  -0.640157  0  2.302828  0
O  O77  1  0.88829807  0.81569010  0.21820664  1  0  -0.7282  0  2.03031  0  0  -0.659002  0  2.294246  0  0  -0.685813  0  2.280636  0  0  -0.33261  -0.640199  0  2.302792  0
O  O78  1  0.17196773  0.21453461  0.58330766  1  0  -0.647901  0  1.950928  0  0  -0.59532  0  2.184188  0  0  -0.615565  0  2.167592  0  0  -0.326494  -0.581015  0  2.195094  0
O  O79  1  0.82803125  0.78546707  0.41669083  1  0  -0.647889  0  1.950899  0  0  -0.595317  0  2.184146  0  0  -0.615561  0  2.167555  0  0  -0.326496  -0.581017  0  2.195057  0
O  O80  1  0.86224433  0.22228342  0.66552111  1  0  -0.651885  0  1.945118  0  0  -0.597759  0  2.183102  0  0  -0.619036  0  2.166912  0  0  -0.329554  -0.582657  0  2.193554  0
O  O81  1  0.13775449  0.77772101  0.33447704  1  0  -0.651972  0  1.945061  0  0  -0.597824  0  2.183024  0  0  -0.619096  0  2.166831  0  0  -0.329624  -0.582726  0  2.193483  0
O  O82  1  0.83300395  0.56733292  0.93140594  1  0  -0.535716  0  2.130928  0  0  -0.48098  0  2.357816  0  0  -0.503684  0  2.343428  0  0  -0.319566  -0.465334  0  2.367018  0
O  O83  1  0.16698008  0.43267155  0.06859035  1  0  -0.535541  0  2.130891  0  0  -0.48077  0  2.35774  0  0  -0.503475  0  2.343425  0  0  -0.319504  -0.465129  0  2.366942  0
O  O84  1  0.89186387  0.75584159  0.84417580  1  0  -0.590645  0  2.047528  0  0  -0.527499  0  2.263191  0  0  -0.550871  0  2.252641  0  0  -0.279842  -0.511562  0  2.270098  0
O  O85  1  0.10813759  0.24416374  0.15582214  1  0  -0.590578  0  2.047497  0  0  -0.527454  0  2.263172  0  0  -0.550828  0  2.252618  0  0  -0.279785  -0.51152  0  2.270082  0
O  O86  1  0.07952234  0.77870166  0.66160400  1  0  -0.473429  0  2.080384  0  0  -0.427757  0  2.280695  0  0  -0.447148  0  2.271209  0  0  -0.333661  -0.414098  0  2.286667  0
O  O87  1  0.92047657  0.22130092  0.33839758  1  0  -0.473387  0  2.080314  0  0  -0.42774  0  2.280626  0  0  -0.44713  0  2.271141  0  0  -0.33366  -0.414086  0  2.286598  0
O  O88  1  0.14923538  0.09631693  0.01249851  1  0  -0.845567  0  1.899198  0  0  -0.782464  0  2.10299  0  0  -0.806566  0  2.074042  0  0  -0.54756  -0.765324  0  2.122648  0
O  O89  1  0.85076360  0.90368475  0.98750159  1  0  -0.84558  0  1.899115  0  0  -0.782479  0  2.10287  0  0  -0.806581  0  2.073938  0  0  -0.547577  -0.765339  0  2.122526  0
O  O90  1  0.44533645  0.08065949  0.66615446  1  0  -0.81344  0  1.827881  0  0  -0.753368  0  1.9998  0  0  -0.77697  0  1.972595  0  0  -0.538058  -0.736897  0  2.018271  0
O  O91  1  0.55466932  0.91934127  0.33384470  1  0  -0.81346  0  1.827966  0  0  -0.753377  0  1.999889  0  0  -0.776985  0  1.972671  0  0  -0.538086  -0.736909  0  2.01836  0
O  O92  1  0.70716526  0.05906672  0.81645127  1  0  -0.849466  0  1.871017  0  0  -0.78898  0  2.062085  0  0  -0.813347  0  2.029558  0  0  -0.562257  -0.771832  0  2.084284  0
O  O93  1  0.29283624  0.94093767  0.18355159  1  0  -0.849481  0  1.870901  0  0  -0.788992  0  2.062003  0  0  -0.813362  0  2.029475  0  0  -0.562227  -0.771844  0  2.084196  0
