# generated using pymatgen
data_Zn4H16C40Cl4O13
_symmetry_space_group_name_H-M   'P 1'
_cell_length_a   23.87083125
_cell_length_b   23.87239667
_cell_length_c   23.87057245
_cell_angle_alpha   66.84802877
_cell_angle_beta   72.34306339
_cell_angle_gamma   107.66616934
_symmetry_Int_Tables_number   1
_chemical_formula_structural   Zn4H16C40Cl4O13
_chemical_formula_sum   'Zn8 H32 C80 Cl8 O26'
_cell_volume   10439.07049585
_cell_formula_units_Z   2
loop_
 _symmetry_equiv_pos_site_id
 _symmetry_equiv_pos_as_xyz
  1  'x, y, z'
loop_
 _atom_site_type_symbol
 _atom_site_label
 _atom_site_symmetry_multiplicity
 _atom_site_fract_x
 _atom_site_fract_y
 _atom_site_fract_z
 _atom_site_occupancy
 _atom_site_pbe_bader_charge
 _atom_site_pbe_bader_spin_density
 _atom_site_pbe_cm5_charge
 _atom_site_pbe_ddec_charge
 _atom_site_pbe_ddec_spin_density
 _atom_site_pbe_ddec_sum_bond_order
 _atom_site_pbe_magmom
Zn  Zn0  1  0.05763523  0.95808891  0.48428799  1  1.320086  0  0.673763  0.97088  0  2.372476  0
Zn  Zn1  1  0.05763209  0.09954528  0.45808968  1  1.319857  0  0.673789  0.970992  0  2.372297  0
Zn  Zn2  1  0.94235976  0.98428690  0.45808097  1  1.320057  0  0.673767  0.970973  0  2.37219  0
Zn  Zn3  1  0.94237705  0.95808287  0.59954988  1  1.319599  0  0.673736  0.970849  0  2.372441  0
Zn  Zn4  1  0.94236645  0.54191142  0.01571149  1  1.320158  0  0.673729  0.970943  0  2.372489  0
Zn  Zn5  1  0.05764130  0.51571697  0.04191813  1  1.320063  0  0.673768  0.970998  0  2.372165  0
Zn  Zn6  1  0.94236717  0.40045294  0.04191562  1  1.319797  0  0.673786  0.970939  0  2.372265  0
Zn  Zn7  1  0.05762030  0.54191149  0.90045096  1  1.319878  0  0.673779  0.97092  0  2.372424  0
H  H8  1  0.92387021  0.65217676  0.11258333  1  0.098769  0  0.109661  0.115606  0  0.99287  0
H  H9  1  0.92352935  0.71494344  0.17523374  1  0.057216  0  0.107816  0.110793  0  0.987646  0
H  H10  1  0.07645806  0.67521725  0.21498581  1  0.057376  0  0.107776  0.110776  0  0.987578  0
H  H11  1  0.07612781  0.61257671  0.15220900  1  0.097477  0  0.109734  0.11571  0  0.992673  0
H  H12  1  0.92353440  0.82476816  0.28502695  1  0.057166  0  0.107794  0.110753  0  0.987663  0
H  H13  1  0.92386883  0.88741806  0.34779252  1  0.096986  0  0.109761  0.115727  0  0.992713  0
H  H14  1  0.07607708  0.84776043  0.38748264  1  0.102287  0  0.109649  0.115587  0  0.992582  0
H  H15  1  0.07641269  0.78498278  0.32484275  1  0.057268  0  0.107929  0.110949  0  0.987615  0
H  H16  1  0.07614275  0.46352007  0.77170286  1  0.119707  0  0.109746  0.115646  0  0.992721  0
H  H17  1  0.07647750  0.40121015  0.70859603  1  0.098817  0  0.107734  0.110717  0  0.987995  0
H  H18  1  0.92354337  0.20856014  0.90124818  1  0.099919  0  0.107762  0.110709  0  0.987545  0
H  H19  1  0.92388146  0.27166879  0.96355777  1  0.121243  0  0.10962  0.115577  0  0.992649  0
H  H20  1  0.07641706  0.29142831  0.59876331  1  0.099262  0  0.107868  0.110946  0  0.987721  0
H  H21  1  0.07607965  0.22831982  0.53645345  1  0.121771  0  0.109642  0.11567  0  0.992651  0
H  H22  1  0.92386906  0.03645372  0.72832105  1  0.120532  0  0.109661  0.115669  0  0.992813  0
H  H23  1  0.92353656  0.09876484  0.79142715  1  0.099375  0  0.107754  0.110773  0  0.987715  0
H  H24  1  0.73522892  0.46354002  0.11255834  1  0.120171  0  0.109709  0.115752  0  0.992665  0
H  H25  1  0.60981078  0.40123094  0.17520213  1  0.057766  0  0.10786  0.11099  0  0.987384  0
H  H26  1  0.60980702  0.20856597  0.21498471  1  0.056227  0  0.107797  0.110822  0  0.987548  0
H  H27  1  0.73522450  0.27167219  0.15221448  1  0.110449  0  0.109717  0.115721  0  0.992597  0
H  H28  1  0.39019422  0.29143942  0.28500292  1  0.05666  0  0.107823  0.110909  0  0.987434  0
H  H29  1  0.26477571  0.22833061  0.34778036  1  0.110539  0  0.109624  0.115596  0  0.992588  0
H  H30  1  0.26477613  0.03647794  0.38737291  1  0.118944  0  0.109773  0.115705  0  0.992709  0
H  H31  1  0.39019096  0.09878891  0.32472100  1  0.060815  0  0.107836  0.11073  0  0.987909  0
H  H32  1  0.26478121  0.61253956  0.96353903  1  0.120334  0  0.109551  0.115583  0  0.992739  0
H  H33  1  0.39019854  0.67518016  0.90123145  1  0.057797  0  0.107839  0.110947  0  0.987675  0
H  H34  1  0.39018151  0.71497147  0.70856043  1  0.056188  0  0.107778  0.110818  0  0.987573  0
H  H35  1  0.26476658  0.65220428  0.77166500  1  0.110293  0  0.109713  0.115704  0  0.992839  0
H  H36  1  0.60982072  0.78501632  0.79144235  1  0.056299  0  0.107819  0.110873  0  0.98755  0
H  H37  1  0.73523730  0.84779297  0.72833314  1  0.110573  0  0.1097  0.115721  0  0.992676  0
H  H38  1  0.73521341  0.88739174  0.53647577  1  0.119183  0  0.109683  0.115607  0  0.992788  0
H  H39  1  0.60979788  0.82474150  0.59878745  1  0.061049  0  0.107803  0.110785  0  0.987752  0
C  C40  1  0.18255960  0.09128744  0.40871324  1  1.543618  0  0.225844  0.602258  0  4.172933  0
C  C41  1  0.99999733  0.13666120  0.36334259  1  1.609641  0  0.228457  0.629506  0  4.135841  0
C  C42  1  0.99999301  0.90872125  0.40872534  1  1.525395  0  0.225943  0.602241  0  4.172908  0
C  C43  1  0.81744166  0.90871207  0.59129164  1  1.544053  0  0.225899  0.602172  0  4.172774  0
C  C44  1  0.00000886  0.86334115  0.63665842  1  1.609922  0  0.228189  0.629242  0  4.136172  0
C  C45  1  0.99999486  0.09127704  0.59128147  1  1.55951  0  0.225952  0.602305  0  4.172989  0
C  C46  1  0.00000031  0.59127074  0.09128582  1  1.524595  0  0.226001  0.602264  0  4.172654  0
C  C47  1  0.00000312  0.36334134  0.13666107  1  1.609999  0  0.228242  0.629217  0  4.136127  0
C  C48  1  0.81743933  0.40871303  0.09127535  1  1.543172  0  0.22586  0.602239  0  4.172695  0
C  C49  1  0.99999633  0.40870856  0.90872885  1  1.559788  0  0.22591  0.602378  0  4.172644  0
C  C50  1  0.99999526  0.63665581  0.86333934  1  1.609648  0  0.228277  0.629308  0  4.136002  0
C  C51  1  0.18255667  0.59127547  0.90870781  1  1.5435  0  0.225795  0.602029  0  4.173158  0
C  C52  1  0.00000173  0.80526106  0.69473802  1  0.064753  0  -0.015231  -0.12367  0  3.851226  0
C  C53  1  0.99999802  0.69473621  0.80526345  1  0.064581  0  -0.015234  -0.123569  0  3.851031  0
C  C54  1  0.95707427  0.77697058  0.76595195  1  0.126947  0  0.016658  0.077212  0  3.978687  0
C  C55  1  0.04292772  0.72302790  0.73404880  1  0.127948  0  0.016669  0.07722  0  3.978566  0
C  C56  1  0.95707277  0.72302508  0.81989810  1  0.121608  0  0.016584  0.077105  0  3.978857  0
C  C57  1  0.04292853  0.77697324  0.68010124  1  0.120988  0  0.016629  0.077166  0  3.978785  0
C  C58  1  0.99999914  0.19473701  0.30526461  1  0.064737  0  -0.01532  -0.123792  0  3.851041  0
C  C59  1  0.00000379  0.30526645  0.19473919  1  0.065004  0  -0.015262  -0.123742  0  3.850982  0
C  C60  1  0.95707453  0.18010588  0.27696608  1  0.120167  0  0.016666  0.077232  0  3.978587  0
C  C61  1  0.04292752  0.31989669  0.22303833  1  0.120825  0  0.016628  0.077178  0  3.978598  0
C  C62  1  0.95707306  0.23405102  0.22302265  1  0.128256  0  0.016649  0.077271  0  3.978412  0
C  C63  1  0.04292875  0.26595183  0.27698131  1  0.128159  0  0.016617  0.077214  0  3.978571  0
C  C64  1  0.99999796  0.62866585  0.12869057  1  -0.028626  0  -0.017515  -0.040363  0  3.973807  0
C  C65  1  0.95698058  0.65756869  0.13523938  1  0.039114  0  -0.079157  -0.084886  0  3.986511  0
C  C66  1  0.95682205  0.69241993  0.17001643  1  -0.035558  0  -0.080279  -0.126125  0  3.946957  0
C  C67  1  0.99999301  0.69919102  0.19922413  1  0.004953  0  0.006006  0.147421  0  4.11265  0
C  C68  1  0.04316778  0.66999565  0.19245321  1  -0.03592  0  -0.0802  -0.125935  0  3.946841  0
C  C69  1  0.04301487  0.63522559  0.15759559  1  0.040178  0  -0.079145  -0.084889  0  3.986123  0
C  C70  1  0.99998698  0.73465190  0.23470370  1  -0.263585  0  -0.041606  -0.105507  0  4.120807  0
C  C71  1  0.99998233  0.76529344  0.26535105  1  -0.051371  0  -0.041482  -0.105158  0  4.120661  0
C  C72  1  0.99997362  0.80076308  0.30082294  1  0.004583  0  0.006007  0.147179  0  4.112921  0
C  C73  1  0.95681436  0.82997894  0.30757113  1  -0.036834  0  -0.080365  -0.126003  0  3.947177  0
C  C74  1  0.95696891  0.86475374  0.34242051  1  0.041159  0  -0.079176  -0.084986  0  3.986331  0
C  C75  1  0.99997276  0.87129960  0.37134409  1  -0.028502  0  -0.017489  -0.040242  0  3.97366  0
C  C76  1  0.04297566  0.84237899  0.36481471  1  0.034546  0  -0.079216  -0.085008  0  3.986491  0
C  C77  1  0.04313041  0.80751982  0.33004823  1  -0.033705  0  -0.080284  -0.12604  0  3.94753  0
C  C78  1  0.00001156  0.37130242  0.87133628  1  -0.045616  0  -0.017632  -0.040853  0  3.973931  0
C  C79  1  0.04303053  0.40776006  0.79941868  1  0.028093  0  -0.079167  -0.08457  0  3.986524  0
C  C80  1  0.04318698  0.37314364  0.76441102  1  -0.105101  0  -0.080337  -0.126183  0  3.947572  0
C  C81  1  0.00000978  0.30077365  0.80080994  1  0.057745  0  0.00612  0.147204  0  4.112703  0
C  C82  1  0.95683698  0.26437675  0.87318031  1  -0.106805  0  -0.080021  -0.12555  0  3.946763  0
C  C83  1  0.95699289  0.29938618  0.90779643  1  0.02648  0  -0.07912  -0.084721  0  3.98606  0
C  C84  1  0.99999957  0.26530350  0.76533886  1  -0.053501  0  -0.041637  -0.105531  0  4.120919  0
C  C85  1  0.99998914  0.23467079  0.73468380  1  -0.263464  0  -0.041521  -0.105161  0  4.120846  0
C  C86  1  0.99997905  0.19920576  0.69920824  1  0.057681  0  0.006047  0.147379  0  4.112729  0
C  C87  1  0.04313410  0.23560985  0.62683203  1  -0.105638  0  -0.08023  -0.126134  0  3.947509  0
C  C88  1  0.04297862  0.20060087  0.59221435  1  0.025437  0  -0.07919  -0.084977  0  3.986447  0
C  C89  1  0.99997422  0.12867862  0.62868092  1  -0.044957  0  -0.017565  -0.04047  0  3.973903  0
C  C90  1  0.95697031  0.09221783  0.70060023  1  0.026948  0  -0.079082  -0.084853  0  3.986549  0
C  C91  1  0.95681639  0.12683419  0.73560926  1  -0.106046  0  -0.080281  -0.126064  0  3.947192  0
C  C92  1  0.74264081  0.37131320  0.12867748  1  -0.041763  0  -0.017552  -0.0402  0  3.973808  0
C  C93  1  0.70718607  0.40777665  0.13522005  1  -0.123552  0  -0.079242  -0.085203  0  3.986803  0
C  C94  1  0.63755956  0.37316087  0.16999330  1  0.116534  0  -0.080237  -0.126154  0  3.947072  0
C  C95  1  0.60158632  0.30078758  0.19920131  1  0.030666  0  0.006039  0.147415  0  4.112818  0
C  C96  1  0.63755693  0.26438664  0.19244439  1  -0.042772  0  -0.080248  -0.126094  0  3.947067  0
C  C97  1  0.70718365  0.29939371  0.15759219  1  0.022827  0  -0.079173  -0.084935  0  3.986106  0
C  C98  1  0.53064639  0.26532691  0.23465928  1  -0.029312  0  -0.04162  -0.105379  0  4.121021  0
C  C99  1  0.46935771  0.23469688  0.26528714  1  -0.344622  0  -0.041564  -0.10543  0  4.120861  0
C  C100  1  0.39841750  0.19922709  0.30074837  1  0.030873  0  0.006169  0.147405  0  4.112789  0
C  C101  1  0.36244438  0.23562243  0.30752543  1  -0.043377  0  -0.080232  -0.126031  0  3.947271  0
C  C102  1  0.29281866  0.20061325  0.34238319  1  0.022728  0  -0.079026  -0.084679  0  3.986199  0
C  C103  1  0.25736098  0.12869530  0.37128488  1  -0.042522  0  -0.017613  -0.040705  0  3.973858  0
C  C104  1  0.29282023  0.09223893  0.36472223  1  -0.121153  0  -0.079181  -0.084685  0  3.986642  0
C  C105  1  0.36244460  0.12685622  0.32994401  1  0.112961  0  -0.080463  -0.126173  0  3.947603  0
C  C106  1  0.25735845  0.62866400  0.87130916  1  -0.042273  0  -0.017576  -0.040193  0  3.973732  0
C  C107  1  0.29281799  0.63520047  0.90777720  1  0.022491  0  -0.079074  -0.084902  0  3.986514  0
C  C108  1  0.36244528  0.66997069  0.87316065  1  -0.028695  0  -0.080206  -0.126252  0  3.947353  0
C  C109  1  0.39841395  0.69918751  0.80078585  1  0.031335  0  0.006003  0.147491  0  4.112519  0
C  C110  1  0.36243936  0.69243413  0.76437914  1  -0.043117  0  -0.080235  -0.126117  0  3.946992  0
C  C111  1  0.29281210  0.65758018  0.79938771  1  0.02269  0  -0.079195  -0.084998  0  3.986417  0
C  C112  1  0.46935450  0.73465503  0.76532458  1  -0.029557  0  -0.041595  -0.105334  0  4.120563  0
C  C113  1  0.53064467  0.76529280  0.73469657  1  -0.344554  0  -0.04158  -0.105413  0  4.120793  0
C  C114  1  0.60158407  0.80076540  0.69922735  1  0.031026  0  0.006184  0.147252  0  4.11285  0
C  C115  1  0.63756243  0.80754282  0.73562554  1  -0.043205  0  -0.080173  -0.125833  0  3.947  0
C  C116  1  0.70718951  0.84240075  0.70061378  1  0.022334  0  -0.079146  -0.084916  0  3.986368  0
C  C117  1  0.74264134  0.87130107  0.62869578  1  -0.042027  0  -0.017597  -0.040501  0  3.973756  0
C  C118  1  0.70717638  0.86474151  0.59223598  1  -0.121914  0  -0.079212  -0.084807  0  3.986436  0
C  C119  1  0.63755024  0.82996619  0.62685502  1  0.113122  0  -0.0804  -0.126182  0  3.947235  0
Cl  Cl120  1  0.90218082  0.80550552  0.79230425  1  -0.142203  0  0.002728  -0.03766  0  1.659356  0
Cl  Cl121  1  0.09782321  0.69449345  0.70769694  1  -0.140893  0  0.002687  -0.037696  0  1.659291  0
Cl  Cl122  1  0.90217955  0.69448523  0.90332686  1  -0.138045  0  0.0027  -0.037717  0  1.65941  0
Cl  Cl123  1  0.09781991  0.80551331  0.59667086  1  -0.139141  0  0.002719  -0.037691  0  1.659374  0
Cl  Cl124  1  0.90218126  0.09667825  0.30549471  1  -0.145264  0  0.002739  -0.037672  0  1.659267  0
Cl  Cl125  1  0.09781958  0.40332572  0.19450953  1  -0.145263  0  0.002724  -0.037678  0  1.659225  0
Cl  Cl126  1  0.90218442  0.20770771  0.19447001  1  -0.134672  0  0.0027  -0.037699  0  1.659283  0
Cl  Cl127  1  0.09781422  0.29229406  0.30553576  1  -0.134744  0  0.002697  -0.037674  0  1.659379  0
O  O128  1  0.00000109  0.00000131  0.49999884  1  -1.233471  0  -0.572307  -1.030693  0  2.536679  0
O  O129  1  0.15342416  0.02599065  0.43311600  1  -1.164443  0  -0.316192  -0.54924  0  2.340265  0
O  O130  1  0.03990535  0.15420659  0.38569330  1  -1.168472  0  -0.312952  -0.541832  0  2.450447  0
O  O131  1  0.95909047  0.93311769  0.41345698  1  -1.163455  0  -0.316456  -0.54948  0  2.339794  0
O  O132  1  0.15342355  0.12743960  0.41347058  1  -1.163512  0  -0.316392  -0.549446  0  2.340262  0
O  O133  1  0.04089769  0.91347278  0.43311412  1  -1.163335  0  -0.31623  -0.549194  0  2.340523  0
O  O134  1  0.96007821  0.07440029  0.38569837  1  -1.169111  0  -0.312978  -0.541927  0  2.450178  0
O  O135  1  0.84657245  0.93310980  0.52599488  1  -1.164707  0  -0.316193  -0.549319  0  2.340146  0
O  O136  1  0.96010505  0.88569692  0.65421079  1  -1.168266  0  -0.312823  -0.541758  0  2.450304  0
O  O137  1  0.84658220  0.91345728  0.62744997  1  -1.163709  0  -0.316437  -0.54926  0  2.340187  0
O  O138  1  0.03991206  0.88569546  0.57440317  1  -1.16912  0  -0.312906  -0.541767  0  2.450421  0
O  O139  1  0.04089241  0.12743260  0.52598990  1  -1.179669  0  -0.316171  -0.549264  0  2.340545  0
O  O140  1  0.95910425  0.02597646  0.62744765  1  -1.179891  0  -0.316407  -0.549369  0  2.339906  0
O  O141  1  0.00000109  0.50000111  0.99999961  1  -1.233517  0  -0.572319  -1.030751  0  2.536734  0
O  O142  1  0.95909579  0.58652092  0.06689297  1  -1.162578  0  -0.316321  -0.549288  0  2.340242  0
O  O143  1  0.03992223  0.42560225  0.11430571  1  -1.169166  0  -0.312989  -0.54193  0  2.450022  0
O  O144  1  0.84657327  0.37255670  0.08653329  1  -1.163394  0  -0.31633  -0.549402  0  2.340276  0
O  O145  1  0.04090668  0.56688123  0.08654359  1  -1.1634  0  -0.3165  -0.549513  0  2.339947  0
O  O146  1  0.84657702  0.47401102  0.06687395  1  -1.164292  0  -0.316238  -0.549318  0  2.34  0
O  O147  1  0.96009494  0.34579423  0.11431150  1  -1.168646  0  -0.312776  -0.541578  0  2.450604  0
O  O148  1  0.95909286  0.37255469  0.97402039  1  -1.180077  0  -0.316426  -0.549454  0  2.340082  0
O  O149  1  0.03989181  0.61429799  0.84578788  1  -1.168143  0  -0.312884  -0.541795  0  2.450517  0
O  O150  1  0.04088907  0.47400536  0.87256864  1  -1.179846  0  -0.316224  -0.549318  0  2.340168  0
O  O151  1  0.96009277  0.61430638  0.92559832  1  -1.169018  0  -0.312934  -0.541871  0  2.450268  0
O  O152  1  0.15342674  0.56688432  0.97400550  1  -1.164355  0  -0.316138  -0.549257  0  2.340178  0
O  O153  1  0.15341651  0.58653739  0.87254991  1  -1.163802  0  -0.31637  -0.549253  0  2.340335  0
