# generated using pymatgen
data_CoH18C8(SO4)2
_symmetry_space_group_name_H-M   'P 1'
_cell_length_a   7.69601850
_cell_length_b   8.97554729
_cell_length_c   10.57264615
_cell_angle_alpha   90.00191944
_cell_angle_beta   102.45121023
_cell_angle_gamma   89.99856626
_symmetry_Int_Tables_number   1
_chemical_formula_structural   CoH18C8(SO4)2
_chemical_formula_sum   'Co2 H36 C16 S4 O16'
_cell_volume   713.13881439
_cell_formula_units_Z   2
loop_
 _symmetry_equiv_pos_site_id
 _symmetry_equiv_pos_as_xyz
  1  'x, y, z'
loop_
 _atom_site_type_symbol
 _atom_site_label
 _atom_site_symmetry_multiplicity
 _atom_site_fract_x
 _atom_site_fract_y
 _atom_site_fract_z
 _atom_site_occupancy
 _atom_site_pbe_cm5_charge
 _atom_site_pbe_ddec_charge
 _atom_site_pbe_ddec_spin_density
 _atom_site_pbe_ddec_sum_bond_order
 _atom_site_pbe_magmom
Co  Co0  1  0.00000113  0.99999919  0.00000015  1  0.621956  1.030495  2.85305  2.328894  2.615
Co  Co1  1  0.49999917  0.49999961  0.50000071  1  0.621945  1.030383  -2.853061  2.329087  -2.615
H  H2  1  0.85708269  0.56158963  0.88817874  1  0.109216  0.125267  2.4e-05  1.02085  0.0
H  H3  1  0.64290044  0.06158801  0.61183051  1  0.109228  0.125221  -2.4e-05  1.020979  0.0
H  H4  1  0.14291965  0.43840847  0.11182330  1  0.109202  0.125213  2.4e-05  1.020894  0.0
H  H5  1  0.35709389  0.93841232  0.38816556  1  0.109214  0.125165  -2.4e-05  1.021032  0.0
H  H6  1  0.51257366  0.03874162  0.82880383  1  0.106722  0.176886  -3e-05  1.004065  0.0
H  H7  1  0.98740724  0.53877418  0.67119592  1  0.1067  0.176856  3.1e-05  1.004197  0.0
H  H8  1  0.48742467  0.96125983  0.17119664  1  0.106722  0.176895  -3e-05  1.004086  0.0
H  H9  1  0.01259109  0.46122726  0.32880361  1  0.10669  0.176853  3.1e-05  1.0042  0.0
H  H10  1  0.43385880  0.19750067  0.72576129  1  0.10868  0.184261  0.000334  0.99405  0.0
H  H11  1  0.06612147  0.69752637  0.77425365  1  0.108619  0.184146  -0.000334  0.994226  0.0
H  H12  1  0.56613953  0.80249966  0.27423824  1  0.108683  0.184244  0.000334  0.994071  0.0
H  H13  1  0.93387687  0.30247396  0.22574683  1  0.108615  0.184166  -0.000334  0.994214  0.0
H  H14  1  0.29366956  0.03731803  0.72304389  1  0.100282  0.158931  -4.2e-05  0.995015  0.0
H  H15  1  0.20630085  0.53733523  0.77696499  1  0.10022  0.158958  4.2e-05  0.994839  0.0
H  H16  1  0.70633010  0.96268230  0.27695585  1  0.100274  0.158923  -4.2e-05  0.995018  0.0
H  H17  1  0.79369483  0.46266510  0.22303603  1  0.100224  0.158935  4.2e-05  0.994853  0.0
H  H18  1  0.45321488  0.31407913  0.09083276  1  0.103354  0.166913  -0.000234  1.005101  0.0
H  H19  1  0.04677756  0.81408607  0.40917960  1  0.103338  0.166879  0.000234  1.005084  0.0
H  H20  1  0.54678612  0.68592232  0.90916719  1  0.103359  0.166899  -0.000234  1.005109  0.0
H  H21  1  0.95322477  0.18591426  0.59082055  1  0.103356  0.166898  0.000234  1.005082  0.0
H  H22  1  0.52351704  0.36579126  0.94461891  1  0.103219  0.164311  0.000163  0.997282  0.0
H  H23  1  0.97644485  0.86579386  0.55538718  1  0.103184  0.164223  -0.000163  0.997344  0.0
H  H24  1  0.47648395  0.63421019  0.05538008  1  0.10322  0.1643  0.000163  0.99729  0.0
H  H25  1  0.02355614  0.13420759  0.44461276  1  0.103187  0.164229  -0.000163  0.997355  0.0
H  H26  1  0.60033491  0.19243018  0.02518122  1  0.108882  0.183945  -7.7e-05  0.998035  0.0
H  H27  1  0.89966533  0.69242539  0.47481528  1  0.108864  0.183876  7.7e-05  0.998078  0.0
H  H28  1  0.39966608  0.80757127  0.97481778  1  0.108902  0.183993  -7.7e-05  0.998013  0.0
H  H29  1  0.10033434  0.30757605  0.52518446  1  0.108873  0.183918  7.7e-05  0.998055  0.0
H  H30  1  0.14528335  0.89505891  0.21227183  1  0.281228  0.360798  -3.3e-05  0.998109  0.0
H  H31  1  0.35467417  0.39505631  0.28775352  1  0.281228  0.360696  3.3e-05  0.998206  0.0
H  H32  1  0.85471766  0.10494031  0.78773000  1  0.281229  0.360797  -3.3e-05  0.998107  0.0
H  H33  1  0.64532550  0.60494402  0.71224717  1  0.281231  0.36072  3.3e-05  0.998204  0.0
H  H34  1  0.17177841  0.07427791  0.23454626  1  0.285081  0.380141  0.00011  0.964362  0.0
H  H35  1  0.32819006  0.57427420  0.26548115  1  0.284958  0.379925  -0.00011  0.96467  0.0
H  H36  1  0.82822259  0.92572131  0.76545368  1  0.285084  0.380146  0.00011  0.96436  0.0
H  H37  1  0.67181095  0.42572725  0.73452068  1  0.284979  0.37995  -0.00011  0.964634  0.0
C  C38  1  0.93371640  0.47801186  0.95143071  1  -0.089122  -0.18994  0.000299  3.916515  0.001
C  C39  1  0.56627625  0.97801193  0.54856816  1  -0.089185  -0.189995  -0.000297  3.917052  -0.001
C  C40  1  0.06628726  0.52198624  0.04857058  1  -0.089076  -0.189714  0.000299  3.916408  0.001
C  C41  1  0.43372074  0.02198729  0.45143022  1  -0.088993  -0.189589  -0.000298  3.916922  -0.001
C  C42  1  0.89512800  0.31820195  0.92214641  1  0.201235  0.586398  -0.00114  4.246225  -0.002
C  C43  1  0.60486674  0.81820345  0.57784448  1  0.201185  0.586482  0.001141  4.246238  0.002
C  C44  1  0.10487167  0.68179615  0.07785427  1  0.201154  0.586169  -0.001141  4.24619  -0.002
C  C45  1  0.39513025  0.18179354  0.42215296  1  0.201198  0.586437  0.001142  4.246211  0.002
C  C46  1  0.39672612  0.10600585  0.78369439  1  -0.234754  -0.500167  0.001981  3.799029  0.003
C  C47  1  0.10325743  0.60602400  0.71631562  1  -0.234662  -0.500033  -0.001981  3.799258  -0.003
C  C48  1  0.60327355  0.89399560  0.21630630  1  -0.234752  -0.50017  0.001981  3.799086  0.003
C  C49  1  0.89674091  0.39397634  0.28368485  1  -0.234653  -0.500039  -0.001981  3.79927  -0.003
C  C50  1  0.49037363  0.27270458  0.00267732  1  -0.232475  -0.494292  0.002018  3.77411  0.003
C  C51  1  0.00961303  0.77270467  0.49733203  1  -0.232446  -0.494123  -0.002017  3.774171  -0.003
C  C52  1  0.50962736  0.72729687  0.99732262  1  -0.232503  -0.494289  0.002018  3.774117  0.003
C  C53  1  0.99038796  0.22729566  0.50266791  1  -0.232491  -0.494225  -0.002017  3.774209  -0.003
S  S54  1  0.29764340  0.18194012  0.90794177  1  0.293809  0.675672  0.002139  3.985854  -0.001
S  S55  1  0.20234385  0.68195344  0.59207380  1  0.293911  0.675724  -0.00214  3.986211  0.001
S  S56  1  0.70235626  0.81806133  0.09205797  1  0.29384  0.675674  0.00214  3.985828  -0.001
S  S57  1  0.79765582  0.31804578  0.40792783  1  0.293936  0.675782  -0.00214  3.986134  0.001
O  O58  1  0.95741359  0.22490317  0.01125010  1  -0.3155  -0.580954  0.027371  2.40373  0.043
O  O59  1  0.54258327  0.72490109  0.48874301  1  -0.315438  -0.580874  -0.02737  2.40374  -0.043
O  O60  1  0.04258609  0.77509382  0.98875153  1  -0.315464  -0.580844  0.027369  2.403727  0.043
O  O61  1  0.45741772  0.27509924  0.51125599  1  -0.315447  -0.580916  -0.027373  2.403686  -0.043
O  O62  1  0.08221563  0.99375424  0.20393999  1  -0.587009  -0.791922  0.032148  2.178795  0.047
O  O63  1  0.41774766  0.49374504  0.29607392  1  -0.58683  -0.791527  -0.032151  2.179167  -0.047
O  O64  1  0.91778536  0.00624386  0.79605995  1  -0.587004  -0.791902  0.032147  2.178786  0.047
O  O65  1  0.58225201  0.50625641  0.70392677  1  -0.586858  -0.791594  -0.03215  2.179043  -0.047
O  O66  1  0.80576511  0.28497596  0.80874588  1  -0.310105  -0.545196  1.4e-05  2.182109  0.001
O  O67  1  0.69424495  0.78497778  0.69123981  1  -0.310163  -0.545391  -1.2e-05  2.182219  -0.001
O  O68  1  0.19423591  0.71502437  0.19125785  1  -0.310086  -0.545131  1.4e-05  2.182061  0.001
O  O69  1  0.30575470  0.21502255  0.30875709  1  -0.310184  -0.545394  -1.2e-05  2.182265  -0.001
O  O70  1  0.26491005  0.04696981  0.98943098  1  -0.343723  -0.576358  0.032913  2.276355  0.05
O  O71  1  0.23509082  0.54697921  0.51059232  1  -0.343758  -0.576365  -0.032907  2.276551  -0.05
O  O72  1  0.73509228  0.95303052  0.01056917  1  -0.343761  -0.57637  0.032913  2.276328  0.05
O  O73  1  0.76490753  0.45302001  0.48940910  1  -0.343775  -0.57638  -0.032908  2.276446  -0.05
