# generated using pymatgen
data_ZnH22C24(N2O5)2
_symmetry_space_group_name_H-M   'P 1'
_cell_length_a   7.31338272
_cell_length_b   7.83564503
_cell_length_c   11.15131630
_cell_angle_alpha   85.77422169
_cell_angle_beta   73.62515638
_cell_angle_gamma   62.73588240
_symmetry_Int_Tables_number   1
_chemical_formula_structural   ZnH22C24(N2O5)2
_chemical_formula_sum   'Zn1 H22 C24 N4 O10'
_cell_volume   543.83964508
_cell_formula_units_Z   1
loop_
 _symmetry_equiv_pos_site_id
 _symmetry_equiv_pos_as_xyz
  1  'x, y, z'
loop_
 _atom_site_type_symbol
 _atom_site_label
 _atom_site_symmetry_multiplicity
 _atom_site_fract_x
 _atom_site_fract_y
 _atom_site_fract_z
 _atom_site_occupancy
 _atom_site_hle17_bader_spin_density
 _atom_site_hle17_ddec_charge
 _atom_site_hle17_ddec_spin_density
 _atom_site_hle17_ddec_sum_bond_order
 _atom_site_hle17_magmom
 _atom_site_hse06_10hf_bader_spin_density
 _atom_site_hse06_10hf_ddec_charge
 _atom_site_hse06_10hf_ddec_spin_density
 _atom_site_hse06_10hf_ddec_sum_bond_order
 _atom_site_hse06_10hf_magmom
 _atom_site_hse06_bader_spin_density
 _atom_site_hse06_ddec_charge
 _atom_site_hse06_ddec_spin_density
 _atom_site_hse06_ddec_sum_bond_order
 _atom_site_hse06_magmom
 _atom_site_pbe_bader_spin_density
 _atom_site_pbe_cm5_charge
 _atom_site_pbe_ddec_charge
 _atom_site_pbe_ddec_spin_density
 _atom_site_pbe_ddec_sum_bond_order
 _atom_site_pbe_magmom
Zn  Zn0  1  0.00000002  0.00000080  0.50000039  1  0  1.212753  0  1.649465  0  0  1.05977  0  2.094198  0  0  1.109876  0  2.029947  0  0  0.663535  1.024094  0  2.138696  0
H  H1  1  0.14810620  0.19063801  0.61168955  1  0  0.412095  0  0.899033  0  0  0.380328  0  0.964976  0  0  0.39185  0  0.948572  0  0  0.280755  0.372189  0  0.976526  0
H  H2  1  0.85189065  0.80936504  0.38831104  1  0  0.412221  0  0.898854  0  0  0.380406  0  0.964883  0  0  0.391934  0  0.948469  0  0  0.280776  0.372267  0  0.976433  0
H  H3  1  0.94745480  0.15859825  0.69719850  1  0  0.398211  0  0.926934  0  0  0.366494  0  0.993998  0  0  0.37844  0  0.97686  0  0  0.277803  0.358109  0  1.005987  0
H  H4  1  0.05254421  0.84140336  0.30280176  1  0  0.398253  0  0.926885  0  0  0.366523  0  0.99397  0  0  0.378469  0  0.976833  0  0  0.277807  0.358137  0  1.00596  0
H  H5  1  0.07457001  0.45647082  0.26485965  1  0  0.107256  0  0.944944  0  0  0.116152  0  1.008628  0  0  0.119611  0  1.005903  0  0  0.107713  0.113593  0  1.010659  0
H  H6  1  0.92543045  0.54352791  0.73514050  1  0  0.107211  0  0.944967  0  0  0.1161  0  1.008656  0  0  0.119559  0  1.00593  0  0  0.1077  0.113542  0  1.010689  0
H  H7  1  0.38479334  0.21869180  0.81572680  1  0  0.117421  0  0.976329  0  0  0.12229  0  1.044073  0  0  0.126181  0  1.041511  0  0  0.106445  0.119439  0  1.04608  0
H  H8  1  0.61520496  0.78130837  0.18427278  1  0  0.117419  0  0.976328  0  0  0.122285  0  1.044073  0  0  0.126176  0  1.041511  0  0  0.106448  0.119433  0  1.04608  0
H  H9  1  0.75066453  0.49799293  0.52887693  1  0  0.14514  0  0.91451  0  0  0.156555  0  0.972739  0  0  0.159713  0  0.970513  0  0  0.128515  0.154277  0  0.974429  0
H  H10  1  0.24933732  0.50200867  0.47112190  1  0  0.145112  0  0.91455  0  0  0.156548  0  0.97275  0  0  0.159706  0  0.970524  0  0  0.128519  0.154271  0  0.974438  0
H  H11  1  0.75083512  0.71025122  0.57783599  1  0  0.132175  0  0.938359  0  0  0.141782  0  1.001337  0  0  0.144686  0  0.999355  0  0  0.123142  0.139615  0  1.002978  0
H  H12  1  0.24916388  0.28975039  0.42216338  1  0  0.132168  0  0.938368  0  0  0.141798  0  1.001318  0  0  0.144703  0  0.999336  0  0  0.123153  0.13963  0  1.002957  0
H  H13  1  0.17414459  0.65909696  0.10577046  1  0  0.118368  0  0.969596  0  0  0.127612  0  1.032466  0  0  0.131289  0  1.029998  0  0  0.107612  0.124913  0  1.034441  0
H  H14  1  0.82585445  0.34090178  0.89423085  1  0  0.118381  0  0.969584  0  0  0.127633  0  1.032447  0  0  0.131309  0  1.029982  0  0  0.107639  0.124934  0  1.034424  0
H  H15  1  0.16346140  0.84277695  0.96022631  1  0  0.130734  0  0.954323  0  0  0.138816  0  1.016499  0  0  0.142643  0  1.012712  0  0  0.13362  0.136086  0  1.019222  0
H  H16  1  0.83653617  0.15722466  0.03977422  1  0  0.130691  0  0.954372  0  0  0.138817  0  1.016513  0  0  0.142644  0  1.012722  0  0  0.133606  0.136093  0  1.019222  0
H  H17  1  0.37084455  0.95265387  0.73868071  1  0  0.148679  0  0.949793  0  0  0.157644  0  1.005209  0  0  0.161198  0  1.003118  0  0  0.138007  0.154981  0  1.006967  0
H  H18  1  0.62915658  0.04734916  0.26131818  1  0  0.14866  0  0.949944  0  0  0.157693  0  1.005277  0  0  0.161196  0  1.003253  0  0  0.137994  0.155024  0  1.007032  0
H  H19  1  0.57816076  0.35324620  0.70421908  1  0  0.141281  0  0.947435  0  0  0.144508  0  1.013621  0  0  0.14861  0  1.00857  0  0  0.15528  0.141396  0  1.017357  0
H  H20  1  0.42184181  0.64675684  0.29578224  1  0  0.141288  0  0.947453  0  0  0.144502  0  1.013645  0  0  0.148619  0  1.008576  0  0  0.155293  0.141395  0  1.017376  0
H  H21  1  0.30308634  0.01120964  0.98004419  1  0  0.082406  0  1.007675  0  0  0.091501  0  1.074574  0  0  0.093649  0  1.074335  0  0  0.098155  0.08992  0  1.074876  0
H  H22  1  0.69690980  0.98879197  0.01995482  1  0  0.08241  0  1.007622  0  0  0.091515  0  1.074512  0  0  0.093664  0  1.074272  0  0  0.098171  0.089932  0  1.074818  0
C  C23  1  0.14659260  0.40271940  0.16696104  1  0  -0.05009  0  3.728206  0  0  -0.077933  0  3.986113  0  0  -0.076492  0  4.005788  0  0  -0.083143  -0.078604  0  3.972717  0
C  C24  1  0.85340929  0.59727934  0.83303974  1  0  -0.049989  0  3.728156  0  0  -0.077804  0  3.986051  0  0  -0.076362  0  4.005722  0  0  -0.083103  -0.078478  0  3.972657  0
C  C25  1  0.29021132  0.44885164  0.95141482  1  0  0.186461  0  3.754494  0  0  0.178876  0  4.00214  0  0  0.185367  0  4.024002  0  0  0.098079  0.174658  0  3.987266  0
C  C26  1  0.70978913  0.55114709  0.04858354  1  0  0.186366  0  3.754589  0  0  0.178767  0  4.002261  0  0  0.185257  0  4.024123  0  0  0.098053  0.174549  0  3.987383  0
C  C27  1  0.32333627  0.26826339  0.91444785  1  0  -0.138613  0  3.717389  0  0  -0.159039  0  3.971093  0  0  -0.163761  0  3.990674  0  0  -0.089343  -0.155967  0  3.957926  0
C  C28  1  0.67666131  0.73173822  0.08555268  1  0  -0.138524  0  3.717377  0  0  -0.158943  0  3.971088  0  0  -0.163665  0  3.990668  0  0  -0.089311  -0.155872  0  3.95792  0
C  C29  1  0.64881272  0.64853147  0.56546882  1  0  -0.187679  0  3.571863  0  0  -0.244513  0  3.813909  0  0  -0.245926  0  3.81934  0  0  -0.053931  -0.24357  0  3.810527  0
C  C30  1  0.35118770  0.35147013  0.43452938  1  0  -0.187692  0  3.5719  0  0  -0.244539  0  3.813969  0  0  -0.245952  0  3.819401  0  0  -0.053933  -0.243599  0  3.810591  0
C  C31  1  0.20016367  0.51789945  0.07714230  1  0  -0.155026  0  3.718828  0  0  -0.177871  0  3.978544  0  0  -0.182717  0  3.998788  0  0  -0.09383  -0.174671  0  3.964868  0
C  C32  1  0.79983676  0.48210216  0.92285680  1  0  -0.155058  0  3.718937  0  0  -0.177925  0  3.978684  0  0  -0.182768  0  3.998928  0  0  -0.093869  -0.174723  0  3.965007  0
C  C33  1  0.14151612  0.08581253  0.22786471  1  0  0.643769  0  3.913521  0  0  0.592326  0  4.210961  0  0  0.627007  0  4.203694  0  0  0.203782  0.568885  0  4.215078  0
C  C34  1  0.85848437  0.91418334  0.77213649  1  0  0.643692  0  3.913724  0  0  0.592283  0  4.211127  0  0  0.626963  0  4.20386  0  0  0.203772  0.568841  0  4.215248  0
C  C35  1  0.27879674  0.76078459  0.87511768  1  0  -0.025465  0  3.635947  0  0  -0.070662  0  3.906494  0  0  -0.068047  0  3.922217  0  0  0.022132  -0.07246  0  3.896161  0
C  C36  1  0.72121227  0.23921410  0.12487639  1  0  -0.025394  0  3.635619  0  0  -0.070641  0  3.906178  0  0  -0.068024  0  3.921887  0  0  0.02216  -0.07244  0  3.89585  0
C  C37  1  0.18613387  0.21811527  0.13246721  1  0  -0.079719  0  3.761054  0  0  -0.05969  0  3.998134  0  0  -0.068467  0  4.021623  0  0  -0.024356  -0.054114  0  3.982367  0
C  C38  1  0.81386444  0.78188492  0.86753416  1  0  -0.079641  0  3.760973  0  0  -0.059648  0  3.998077  0  0  -0.068424  0  4.021565  0  0  -0.024354  -0.054071  0  3.982309  0
C  C39  1  0.52185849  0.76223605  0.47264149  1  0  0.693763  0  3.881455  0  0  0.640737  0  4.197806  0  0  0.673945  0  4.1899  0  0  0.20882  0.618204  0  4.202357  0
C  C40  1  0.47813909  0.23776556  0.52735904  1  0  0.693917  0  3.881261  0  0  0.640817  0  4.19773  0  0  0.674025  0  4.189822  0  0  0.208867  0.618287  0  4.20228  0
C  C41  1  0.37908842  0.81470329  0.76804713  1  0  -0.013969  0  3.586016  0  0  -0.058476  0  3.851148  0  0  -0.056382  0  3.867553  0  0  0.029308  -0.059952  0  3.840396  0
C  C42  1  0.62091138  0.18529116  0.23195696  1  0  -0.01394  0  3.58574  0  0  -0.058515  0  3.850894  0  0  -0.056388  0  3.867344  0  0  0.029346  -0.059979  0  3.840135  0
C  C43  1  0.49100201  0.50010453  0.74443876  1  0  0.156892  0  3.468353  0  0  0.090619  0  3.723057  0  0  0.107578  0  3.730041  0  0  0.18399  0.079679  0  3.718247  0
C  C44  1  0.50900060  0.49989276  0.25556017  1  0  0.156885  0  3.468442  0  0  0.090631  0  3.723148  0  0  0.107576  0  3.730125  0  0  0.184007  0.079685  0  3.718344  0
C  C45  1  0.27215776  0.15466416  0.00569669  1  0  -0.060452  0  3.765886  0  0  -0.081257  0  4.008646  0  0  -0.080702  0  4.030036  0  0  -0.087365  -0.081361  0  3.99409  0
C  C46  1  0.72784125  0.84533745  0.99430358  1  0  -0.060544  0  3.76581  0  0  -0.081353  0  4.008592  0  0  -0.080799  0  4.029981  0  0  -0.08741  -0.081457  0  3.994035  0
N  N47  1  0.50963375  0.65078596  0.68873685  1  0  0.008323  0  3.586125  0  0  0.094626  0  3.807516  0  0  0.081527  0  3.832871  0  0  -0.22017  0.103173  0  3.790378  0
N  N48  1  0.49036811  0.34921564  0.31126288  1  0  0.008294  0  3.586075  0  0  0.094583  0  3.807505  0  0  0.081489  0  3.832845  0  0  -0.22022  0.10313  0  3.790369  0
N  N49  1  0.34995550  0.56425675  0.85935753  1  0  -0.072429  0  3.590615  0  0  0.01224  0  3.806322  0  0  -0.002577  0  3.831274  0  0  -0.208725  0.021962  0  3.789377  0
N  N50  1  0.65004639  0.43574198  0.14064324  1  0  -0.072388  0  3.590627  0  0  0.012295  0  3.806336  0  0  -0.002518  0  3.831292  0  0  -0.208734  0.022016  0  3.789394  0
O  O51  1  0.62469393  0.81642650  0.37956770  1  0  -0.642662  0  1.961754  0  0  -0.584149  0  2.183818  0  0  -0.609342  0  2.174215  0  0  -0.321754  -0.566407  0  2.189817  0
O  O52  1  0.37530077  0.18357799  0.62043232  1  0  -0.642695  0  1.96172  0  0  -0.584169  0  2.183788  0  0  -0.609368  0  2.17419  0  0  -0.321789  -0.566429  0  2.189791  0
O  O53  1  0.15528192  0.93130589  0.18693344  1  0  -0.649125  0  1.991061  0  0  -0.595063  0  2.221586  0  0  -0.621193  0  2.213881  0  0  -0.32813  -0.5768  0  2.226368  0
O  O54  1  0.84472072  0.06868852  0.81306564  1  0  -0.649106  0  1.99122  0  0  -0.595059  0  2.221716  0  0  -0.621189  0  2.214006  0  0  -0.328123  -0.576794  0  2.226497  0
O  O55  1  0.00553394  0.20021941  0.61281416  1  0  -0.852818  0  1.922997  0  0  -0.79051  0  2.134363  0  0  -0.814521  0  2.098164  0  0  -0.585698  -0.773367  0  2.159278  0
O  O56  1  0.99446218  0.79978508  0.38718648  1  0  -0.852945  0  1.922843  0  0  -0.790611  0  2.134242  0  0  -0.814625  0  2.098037  0  0  -0.585702  -0.773467  0  2.159158  0
O  O57  1  0.09404667  0.13806899  0.34280037  1  0  -0.639148  0  2.042013  0  0  -0.574845  0  2.302738  0  0  -0.602886  0  2.289366  0  0  -0.313406  -0.555246  0  2.311274  0
O  O58  1  0.90595163  0.86193119  0.65719921  1  0  -0.63915  0  2.042064  0  0  -0.574858  0  2.302779  0  0  -0.602901  0  2.289409  0  0  -0.313422  -0.555259  0  2.311318  0
O  O59  1  0.33341764  0.78356832  0.49327270  1  0  -0.6622  0  2.030476  0  0  -0.608987  0  2.300165  0  0  -0.635218  0  2.287669  0  0  -0.325091  -0.590617  0  2.308179  0
O  O60  1  0.66658210  0.21643186  0.50672930  1  0  -0.662231  0  2.030395  0  0  -0.609008  0  2.300137  0  0  -0.635247  0  2.287658  0  0  -0.325093  -0.590635  0  2.308149  0
