# generated using pymatgen
data_Fe3H24C42N6O13
_symmetry_space_group_name_H-M   'P 1'
_cell_length_a   15.24853008
_cell_length_b   16.89268278
_cell_length_c   16.89438560
_cell_angle_alpha   120.00637892
_cell_angle_beta   89.99676543
_cell_angle_gamma   90.00213150
_symmetry_Int_Tables_number   1
_chemical_formula_structural   Fe3H24C42N6O13
_chemical_formula_sum   'Fe6 H48 C84 N12 O26'
_cell_volume   3768.52778322
_cell_formula_units_Z   2
loop_
 _symmetry_equiv_pos_site_id
 _symmetry_equiv_pos_as_xyz
  1  'x, y, z'
loop_
 _atom_site_type_symbol
 _atom_site_label
 _atom_site_symmetry_multiplicity
 _atom_site_fract_x
 _atom_site_fract_y
 _atom_site_fract_z
 _atom_site_occupancy
 _atom_site_pbe_bader_charge
 _atom_site_pbe_bader_spin_density
 _atom_site_pbe_cm5_charge
 _atom_site_pbe_ddec_charge
 _atom_site_pbe_ddec_spin_density
 _atom_site_pbe_ddec_sum_bond_order
 _atom_site_pbe_magmom
Fe  Fe0  1  0.24980954  0.73246181  0.46493316  1  1.631781  3.984514  0.819627  1.209606  4.361711  2.694858  3.954
Fe  Fe1  1  0.24982556  0.73244349  0.26753242  1  1.639957  3.983993  0.819576  1.209672  4.361961  2.694886  3.954
Fe  Fe2  1  0.25037039  0.53465579  0.26732017  1  1.636395  3.982275  0.81931  1.208876  4.360256  2.692419  3.952
Fe  Fe3  1  0.74973578  0.26746951  0.53492814  1  1.633494  3.983753  0.819511  1.209617  4.361225  2.693727  3.953
Fe  Fe4  1  0.74991322  0.26758765  0.73240545  1  1.638782  3.984482  0.819566  1.209731  4.36207  2.695389  3.954
Fe  Fe5  1  0.75035668  0.46529957  0.73264374  1  1.636435  3.982449  0.819247  1.208819  4.360392  2.69274  3.953
H  H6  1  0.44473534  0.93600921  0.59497797  1  0.071611  0.000583  0.102133  0.105519  0.000165  1.008854  0.0
H  H7  1  0.44479741  0.65895900  0.06394246  1  0.064776  0.000591  0.101997  0.105558  0.000167  1.008782  0.0
H  H8  1  0.44474414  0.40501050  0.34107577  1  0.120899  0.000577  0.102094  0.105476  0.00017  1.008902  0.0
H  H9  1  0.94472559  0.06398363  0.40504118  1  0.07202  0.000574  0.102161  0.10568  0.000159  1.008713  0.0
H  H10  1  0.94477238  0.34102223  0.93605278  1  0.064312  0.000599  0.10203  0.105465  0.000173  1.008964  0.0
H  H11  1  0.94475155  0.59500118  0.65893283  1  0.121157  0.000579  0.102057  0.105493  0.000171  1.00891  0.0
H  H12  1  0.55522960  0.06393153  0.65894040  1  0.064599  0.000611  0.10206  0.105511  0.000179  1.008867  0.0
H  H13  1  0.55524328  0.34104475  0.40498528  1  0.121087  0.000586  0.102071  0.105448  0.000178  1.009099  0.0
H  H14  1  0.55528565  0.59495418  0.93600613  1  0.072067  0.000556  0.102137  0.105578  0.000144  1.008687  0.0
H  H15  1  0.05523165  0.93607250  0.34107632  1  0.065316  0.000613  0.102071  0.105515  0.00018  1.008886  0.0
H  H16  1  0.05524421  0.65898123  0.59501305  1  0.120644  0.000586  0.10204  0.105306  0.000179  1.00911  0.0
H  H17  1  0.05525496  0.40502682  0.06397797  1  0.071491  0.000555  0.102164  0.105534  0.000143  1.008821  0.0
H  H18  1  0.55525068  0.06392501  0.40501538  1  0.070823  0.000609  0.102065  0.105468  0.000178  1.009005  0.0
H  H19  1  0.55525287  0.34101171  0.93602861  1  0.065477  0.000612  0.102079  0.105503  0.00018  1.008956  0.0
H  H20  1  0.55525564  0.59498768  0.65895899  1  0.120499  0.000537  0.102185  0.10553  0.000145  1.00888  0.0
H  H21  1  0.05523419  0.93607333  0.59500111  1  0.070185  0.000608  0.102077  0.105547  0.000178  1.008796  0.0
H  H22  1  0.05523265  0.65896343  0.06395307  1  0.065067  0.000615  0.102067  0.105468  0.000182  1.009107  0.0
H  H23  1  0.05526201  0.40502868  0.34104066  1  0.120582  0.000533  0.102199  0.105596  0.000142  1.008835  0.0
H  H24  1  0.44474330  0.93601826  0.34104803  1  0.065446  0.000591  0.10212  0.105564  0.000169  1.008827  0.0
H  H25  1  0.44477815  0.65898324  0.59502324  1  0.120657  0.000564  0.102036  0.105428  0.000164  1.00899  0.0
H  H26  1  0.44475283  0.40500559  0.06392734  1  0.070577  0.000603  0.102105  0.105558  0.000171  1.009036  0.0
H  H27  1  0.94473600  0.06398333  0.65897302  1  0.065378  0.0006  0.102084  0.10546  0.000175  1.008882  0.0
H  H28  1  0.94478246  0.34103644  0.40498447  1  0.121033  0.000555  0.102079  0.105574  0.000158  1.009058  0.0
H  H29  1  0.94473172  0.59497803  0.93606551  1  0.071285  0.000602  0.102123  0.105508  0.00017  1.008953  0.0
H  H30  1  0.25000416  0.93383530  0.62335881  1  0.098806  0.001532  0.126565  0.099382  0.000375  0.983441  0.001
H  H31  1  0.25005724  0.68958716  0.06621203  1  0.083557  0.001549  0.126724  0.099353  0.000377  0.983552  0.001
H  H32  1  0.24994279  0.37664889  0.31045652  1  0.155581  0.001503  0.126379  0.09921  0.000383  0.983922  0.001
H  H33  1  0.75003629  0.06614953  0.37662774  1  0.098992  0.00153  0.126579  0.099412  0.000377  0.983681  0.001
H  H34  1  0.75003699  0.31043709  0.93379549  1  0.083076  0.00155  0.126811  0.099555  0.000375  0.983325  0.001
H  H35  1  0.74993436  0.62336843  0.68957687  1  0.156126  0.001503  0.126471  0.099239  0.000383  0.98399  0.001
H  H36  1  0.74998648  0.06617801  0.68955077  1  0.082666  0.001545  0.126728  0.099527  0.000374  0.983316  0.001
H  H37  1  0.75006428  0.31041396  0.37663865  1  0.156561  0.001507  0.126635  0.099365  0.000379  0.983646  0.001
H  H38  1  0.74995229  0.62336204  0.93382948  1  0.099594  0.001526  0.126403  0.09931  0.000381  0.984004  0.001
H  H39  1  0.25001528  0.93384132  0.31047233  1  0.082181  0.001541  0.126586  0.099416  0.000374  0.983451  0.001
H  H40  1  0.25004962  0.68957920  0.62334667  1  0.156556  0.001508  0.126682  0.099372  0.000378  0.983428  0.001
H  H41  1  0.24994126  0.37662976  0.06618798  1  0.100091  0.001528  0.126388  0.099127  0.000383  0.984168  0.001
H  H42  1  0.25001413  0.02554546  0.79562984  1  0.133049  0.00075  0.113867  0.121059  0.000292  1.003014  0.0
H  H43  1  0.25000880  0.77019864  0.97455177  1  0.071534  0.000692  0.113692  0.120915  0.000242  1.00324  0.0
H  H44  1  0.24998045  0.20442482  0.22989821  1  0.081819  0.000717  0.11334  0.120495  0.00026  1.003646  0.0
H  H45  1  0.75001911  0.97444530  0.20437564  1  0.132664  0.000754  0.113797  0.121047  0.000295  1.003116  0.0
H  H46  1  0.75000148  0.22982663  0.02547248  1  0.071352  0.000706  0.113815  0.121109  0.000252  1.002843  0.0
H  H47  1  0.74998195  0.79559878  0.77015376  1  0.082256  0.000702  0.113339  0.120681  0.000248  1.003543  0.0
H  H48  1  0.75000597  0.97447563  0.77013090  1  0.07163  0.000747  0.113917  0.12106  0.00028  1.003212  0.0
H  H49  1  0.75001358  0.22980769  0.20438156  1  0.082699  0.000686  0.113513  0.120777  0.000234  1.003587  0.0
H  H50  1  0.74998036  0.79558957  0.02551210  1  0.132922  0.000735  0.113511  0.120682  0.000278  1.003666  0.0
H  H51  1  0.25001414  0.02555269  0.22991280  1  0.071174  0.000757  0.113949  0.121227  0.000289  1.002773  0.0
H  H52  1  0.25000785  0.77019651  0.79562232  1  0.08303  0.000691  0.113609  0.120866  0.000238  1.003414  0.0
H  H53  1  0.24998139  0.20441057  0.97452188  1  0.133315  0.000721  0.113297  0.120445  0.000267  1.003683  0.0
C  C54  1  0.43815045  0.92910708  0.46456298  1  -0.051049  0.010487  -0.016386  -0.029552  0.004761  3.96415  0.009
C  C55  1  0.43824976  0.53544889  0.07087246  1  -0.04969  0.010834  -0.016272  -0.029381  0.004919  3.964901  0.009
C  C56  1  0.43822431  0.53545847  0.46458339  1  0.081087  0.010612  -0.016278  -0.029381  0.004898  3.964715  0.009
C  C57  1  0.93814462  0.07088712  0.53545859  1  -0.005933  0.010366  -0.016421  -0.029662  0.004756  3.964228  0.009
C  C58  1  0.93822042  0.46453675  0.92912688  1  -0.004678  0.010696  -0.016222  -0.029381  0.004907  3.965063  0.009
C  C59  1  0.93823341  0.46455594  0.53542625  1  0.079946  0.010644  -0.016305  -0.029068  0.004915  3.964554  0.009
C  C60  1  0.56176671  0.07087252  0.53544774  1  -0.004121  0.010732  -0.016139  -0.029034  0.004913  3.965105  0.009
C  C61  1  0.56180106  0.46456184  0.53543044  1  0.079939  0.010468  -0.0163  -0.029624  0.004835  3.964487  0.009
C  C62  1  0.56183594  0.46453391  0.92911139  1  -0.006312  0.010507  -0.016391  -0.029633  0.00483  3.964182  0.009
C  C63  1  0.06176335  0.92912676  0.46456522  1  -0.04948  0.010842  -0.016246  -0.02939  0.004911  3.965228  0.009
C  C64  1  0.06180901  0.53545767  0.46456585  1  0.079004  0.010527  -0.016292  -0.02986  0.004865  3.964551  0.009
C  C65  1  0.06180691  0.53544579  0.07087379  1  -0.005796  0.010451  -0.016259  -0.029592  0.004802  3.964412  0.009
C  C66  1  0.37108001  0.85428063  0.42714845  1  1.583622  -0.004651  0.22619  0.606161  -0.00625  4.141944  -0.002
C  C67  1  0.37109811  0.57274581  0.14557924  1  1.579364  -0.005051  0.22621  0.605697  -0.006725  4.140338  -0.003
C  C68  1  0.37108207  0.57276042  0.42717174  1  1.555999  -0.004913  0.226149  0.605505  -0.006587  4.140593  -0.003
C  C69  1  0.87107361  0.14571030  0.57287634  1  1.538583  -0.004539  0.226229  0.606373  -0.006247  4.140826  -0.002
C  C70  1  0.87108568  0.42722354  0.85441030  1  1.534108  -0.005033  0.225861  0.605481  -0.006836  4.14094  -0.003
C  C71  1  0.87109450  0.42724698  0.57284014  1  1.556984  -0.004818  0.225975  0.605514  -0.006478  4.140743  -0.002
C  C72  1  0.62890994  0.14559124  0.57278529  1  1.534767  -0.005361  0.225863  0.605321  -0.007204  4.141156  -0.003
C  C73  1  0.62891247  0.42712758  0.57274943  1  1.556955  -0.00457  0.226352  0.606333  -0.006196  4.139906  -0.002
C  C74  1  0.62891611  0.42710564  0.85430743  1  1.540403  -0.004445  0.225997  0.605781  -0.006147  4.140324  -0.002
C  C75  1  0.12890781  0.85440936  0.42720744  1  1.581308  -0.005496  0.22592  0.605673  -0.007231  4.140881  -0.003
C  C76  1  0.12890922  0.57288751  0.42721815  1  1.556157  -0.004518  0.226145  0.606042  -0.006147  4.140003  -0.002
C  C77  1  0.12890886  0.57287443  0.14564427  1  1.542286  -0.004475  0.226035  0.605665  -0.006168  4.140073  -0.002
C  C78  1  0.46932057  0.96477381  0.55415027  1  0.034581  0.000265  -0.087266  -0.099883  -0.000461  3.991068  0.0
C  C79  1  0.46940712  0.58937313  0.03520687  1  -0.080131  -9.7e-05  -0.087007  -0.100083  -0.000768  3.990674  0.0
C  C80  1  0.46937272  0.44585184  0.41064612  1  -0.177693  0.000184  -0.086971  -0.099625  -0.000582  3.990317  0.0
C  C81  1  0.96931298  0.03521549  0.44586328  1  0.034541  0.000288  -0.087174  -0.099966  -0.000441  3.990464  0.0
C  C82  1  0.96937923  0.41061014  0.96478902  1  -0.080449  -0.000144  -0.087121  -0.100009  -0.000809  3.990626  0.0
C  C83  1  0.96938477  0.55416232  0.58936151  1  -0.177112  0.000204  -0.086961  -0.099857  -0.000564  3.990518  0.0
C  C84  1  0.53060652  0.03519987  0.58936916  1  -0.079858  -0.000156  -0.086983  -0.099928  -0.000826  3.990732  0.0
C  C85  1  0.53063778  0.41063211  0.44583757  1  -0.072241  0.000379  -0.087139  -0.099866  -0.000416  3.990784  0.0
C  C86  1  0.53068679  0.55414081  0.96478111  1  0.034456  0.000138  -0.087238  -0.099848  -0.000566  3.990247  0.0
C  C87  1  0.03060146  0.96479727  0.41064820  1  -0.080588  -0.000187  -0.086999  -0.099737  -0.000854  3.990715  0.0
C  C88  1  0.03064956  0.58938704  0.55416489  1  -0.072084  0.000398  -0.087189  -0.099622  -0.0004  3.9909  0.0
C  C89  1  0.03065695  0.44584185  0.03520810  1  0.035704  0.000148  -0.087156  -0.099696  -0.000558  3.990482  0.0
C  C90  1  0.53060971  0.03519748  0.44585692  1  -0.06789  -0.00015  -0.087059  -0.099807  -0.000826  3.99084  0.0
C  C91  1  0.53066874  0.41061179  0.96477840  1  0.022406  0.000366  -0.087317  -0.100137  -0.000373  3.991263  0.0
C  C92  1  0.53065395  0.55416726  0.58937128  1  -0.071656  0.000138  -0.087149  -0.099753  -0.000614  3.99053  0.0
C  C93  1  0.03060549  0.96480262  0.55416340  1  -0.068193  -0.000133  -0.086898  -0.099731  -0.00081  3.99058  0.0
C  C94  1  0.03063696  0.58937172  0.03521233  1  0.023156  0.000348  -0.087183  -0.099894  -0.000388  3.990885  0.0
C  C95  1  0.03066290  0.44585394  0.41062913  1  -0.072393  0.000141  -0.087213  -0.099839  -0.000611  3.990906  0.0
C  C96  1  0.46932506  0.96477761  0.41064012  1  0.023107  0.000331  -0.087132  -0.09984  -0.000403  3.990423  0.0
C  C97  1  0.46937971  0.58939109  0.55417573  1  -0.178386  -3.2e-05  -0.087217  -0.100061  -0.000758  3.990808  0.0
C  C98  1  0.46940022  0.44583843  0.03519918  1  -0.067496  4.4e-05  -0.086826  -0.099542  -0.000654  3.990461  0.0
C  C99  1  0.96931963  0.03522536  0.58937752  1  0.02308  0.000309  -0.08719  -0.099814  -0.000422  3.991038  0.0
C  C100  1  0.96938761  0.41062511  0.44582985  1  -0.177392  7e-06  -0.087062  -0.100075  -0.000724  3.990808  0.0
C  C101  1  0.96936579  0.55414381  0.96479774  1  -0.06836  3e-05  -0.087031  -0.099675  -0.000667  3.990539  0.0
C  C102  1  0.25002463  0.90451366  0.80891706  1  -0.066214  -0.000536  0.00876  0.041127  -0.000815  3.964802  0.0
C  C103  1  0.25002403  0.90451373  0.09559040  1  -0.242242  -0.000256  0.009072  0.041486  -0.000514  3.9646  0.0
C  C104  1  0.24994701  0.19103300  0.09551783  1  -0.117913  -0.002745  0.008155  0.040413  -0.003234  3.968237  -0.001
C  C105  1  0.75003156  0.09547153  0.19106439  1  -0.066654  -0.001124  0.00864  0.04096  -0.001495  3.965631  -0.001
C  C106  1  0.75001052  0.09552149  0.90443219  1  -0.243071  0.000146  0.009239  0.041903  -8.9e-05  3.964264  0.0
C  C107  1  0.74995179  0.80896798  0.90451768  1  -0.067591  -0.00244  0.00807  0.040662  -0.00302  3.968253  -0.001
C  C108  1  0.25005006  0.90088777  0.66471708  1  0.510946  0.00095  0.060527  0.105167  -0.000147  3.930101  0.001
C  C109  1  0.25005315  0.76390577  0.09917974  1  0.608974  0.001747  0.061126  0.106261  0.000649  3.929346  0.001
C  C110  1  0.24989574  0.33529864  0.23614523  1  0.337845  0.001044  0.059973  0.104874  -0.000183  3.930987  0.001
C  C111  1  0.75008023  0.09909840  0.33527286  1  0.510317  0.000764  0.06038  0.105385  -0.000328  3.930376  0.001
C  C112  1  0.75002468  0.23611733  0.90083484  1  0.60969  0.001673  0.061078  0.106105  0.000608  3.929283  0.001
C  C113  1  0.74990010  0.66471180  0.76388676  1  0.338799  0.00131  0.060318  0.105559  3.4e-05  3.930986  0.001
C  C114  1  0.75002025  0.09912968  0.76386050  1  0.610907  0.001114  0.060813  0.105595  0.000186  3.929629  0.001
C  C115  1  0.75007912  0.23609698  0.33528980  1  0.340836  0.001948  0.060855  0.10609  0.000552  3.929653  0.001
C  C116  1  0.74989974  0.66471481  0.90087520  1  0.509709  0.000729  0.05995  0.104756  -0.00041  3.93152  0.001
C  C117  1  0.25005168  0.90089677  0.23616494  1  0.611618  0.000852  0.060665  0.105382  -4e-05  3.929788  0.001
C  C118  1  0.25005182  0.76389871  0.66470009  1  0.341301  0.00205  0.061029  0.106053  0.000636  3.92911  0.001
C  C119  1  0.24989675  0.33528765  0.09915292  1  0.510019  0.000899  0.059978  0.104943  -0.000276  3.931378  0.001
C  C120  1  0.25004156  0.95117595  0.75975080  1  -0.042785  0.001885  -0.073943  -0.151379  0.000703  3.932395  0.002
C  C121  1  0.25003007  0.80867450  0.04890671  1  0.108085  0.001902  -0.073658  -0.15122  0.000807  3.931236  0.002
C  C122  1  0.24992403  0.24027034  0.19139263  1  0.13018  -0.000409  -0.074501  -0.152035  -0.001171  3.93316  0.0
C  C123  1  0.75005725  0.04881265  0.24024500  1  -0.043116  0.001287  -0.074311  -0.152036  0.000269  3.933053  0.001
C  C124  1  0.75001038  0.19135444  0.95111506  1  0.109788  0.002355  -0.073709  -0.15149  0.001048  3.931103  0.002
C  C125  1  0.74993213  0.75974422  0.80864826  1  0.130564  -0.000289  -0.074348  -0.152412  -0.001027  3.933478  0.0
C  C126  1  0.75002043  0.04884548  0.80861295  1  0.108119  0.002489  -0.073819  -0.151209  0.001071  3.932472  0.002
C  C127  1  0.75004773  0.19132905  0.24025146  1  0.131253  0.000948  -0.0739  -0.151491  0.000157  3.931885  0.001
C  C128  1  0.74992636  0.75974087  0.95115757  1  -0.042677  -0.000113  -0.074546  -0.152248  -0.000948  3.933982  0.001
C  C129  1  0.25004035  0.95118272  0.19141903  1  0.108468  0.002111  -0.074172  -0.151715  0.000855  3.93217  0.002
C  C130  1  0.25003141  0.80867026  0.75974547  1  0.130877  0.001545  -0.073652  -0.151233  0.000627  3.931691  0.001
C  C131  1  0.24992522  0.24026182  0.04887624  1  -0.042037  -0.000363  -0.074515  -0.152089  -0.001166  3.933531  0.0
C  C132  1  0.24999496  0.95516011  0.91027914  1  1.144322  -0.002079  0.263339  0.383454  -0.002767  4.003639  -0.001
C  C133  1  0.24999518  0.95516488  0.04487251  1  1.029378  -0.001319  0.263539  0.383828  -0.001861  4.003803  -0.001
C  C134  1  0.25000487  0.08979954  0.04489949  1  1.187464  -0.008906  0.261086  0.380179  -0.010355  4.004467  -0.006
C  C135  1  0.74999106  0.04485147  0.08974578  1  1.142894  -0.00403  0.262715  0.382871  -0.004895  4.003803  -0.002
C  C136  1  0.74999608  0.04484153  0.95514929  1  1.030169  4.1e-05  0.263888  0.384346  -0.000582  4.00377  0.0
C  C137  1  0.75000541  0.91021443  0.95512304  1  1.137138  -0.008391  0.261308  0.380558  -0.009676  4.004109  -0.005
N  N138  1  0.25007979  0.80906772  0.61807928  1  -1.171086  0.059999  -0.303066  -0.213185  0.029599  3.462066  0.041
N  N139  1  0.25008137  0.80907713  0.19097106  1  -1.330813  0.060809  -0.302717  -0.212964  0.029781  3.461879  0.041
N  N140  1  0.24984172  0.38197107  0.19098810  1  -1.173655  0.056996  -0.303956  -0.214549  0.028127  3.464304  0.039
N  N141  1  0.75012133  0.19093029  0.38192250  1  -1.171656  0.059172  -0.303373  -0.214185  0.029199  3.462593  0.04
N  N142  1  0.75003646  0.19093677  0.80904799  1  -1.329892  0.061377  -0.302475  -0.21278  0.030062  3.461975  0.042
N  N143  1  0.74984591  0.61803761  0.80903735  1  -1.173084  0.057243  -0.304088  -0.214822  0.028259  3.464217  0.039
N  N144  1  0.25001751  0.04692363  0.95300643  1  -1.332298  -0.001498  -0.300745  -0.39953  -0.001098  3.199533  0.0
N  N145  1  0.24995850  0.90599354  0.95299904  1  -1.122202  -0.009465  -0.302873  -0.403605  -0.010278  3.194747  -0.007
N  N146  1  0.25001819  0.04692639  0.09393083  1  -1.119349  -0.002191  -0.300783  -0.399793  -0.002046  3.199075  -0.001
N  N147  1  0.75000655  0.95307439  0.04697759  1  -1.332744  -0.000112  -0.300473  -0.399075  -5.2e-05  3.200262  0.001
N  N148  1  0.74995866  0.09400702  0.04698480  1  -1.120362  -0.008827  -0.302604  -0.40329  -0.009545  3.195023  -0.007
N  N149  1  0.75002751  0.95307459  0.90605615  1  -1.120329  -0.004267  -0.30125  -0.400848  -0.004348  3.197682  -0.003
O  O150  1  0.34475719  0.82563874  0.47999063  1  -1.154468  0.101347  -0.308339  -0.55987  0.047742  2.35676  0.083
O  O151  1  0.34425500  0.65400728  0.17381982  1  -1.158005  0.101451  -0.30851  -0.560209  0.047799  2.35543  0.083
O  O152  1  0.34517547  0.51997734  0.34551627  1  -1.160046  0.10236  -0.3086  -0.558508  0.048138  2.356028  0.084
O  O153  1  0.84459265  0.17420344  0.51996005  1  -1.152776  0.101119  -0.3084  -0.56016  0.047651  2.355414  0.083
O  O154  1  0.84434592  0.34591373  0.82607574  1  -1.157139  0.101681  -0.308277  -0.55978  0.047912  2.356213  0.083
O  O155  1  0.84525579  0.47999501  0.65453037  1  -1.159685  0.102358  -0.308365  -0.558313  0.048138  2.356054  0.084
O  O156  1  0.65546070  0.17406491  0.65416792  1  -1.156111  0.102027  -0.308244  -0.559435  0.048072  2.35704  0.084
O  O157  1  0.65474313  0.34541864  0.52002375  1  -1.158985  0.102375  -0.308752  -0.558928  0.048136  2.355425  0.084
O  O158  1  0.65559673  0.48011704  0.82600672  1  -1.155306  0.100689  -0.307974  -0.559713  0.047461  2.354563  0.083
O  O159  1  0.15529265  0.82582223  0.34574200  1  -1.155802  0.10215  -0.308258  -0.559367  0.048114  2.35712  0.084
O  O160  1  0.15478913  0.65457373  0.47993606  1  -1.157012  0.102337  -0.308631  -0.558892  0.048128  2.355559  0.084
O  O161  1  0.15571537  0.51982615  0.17384714  1  -1.156239  0.100584  -0.308183  -0.560093  0.047427  2.354437  0.083
O  O162  1  0.65512193  0.17428005  0.51994356  1  -1.150897  0.102192  -0.308192  -0.55874  0.048131  2.357098  0.084
O  O163  1  0.65489161  0.34545381  0.82538812  1  -1.159206  0.102177  -0.308521  -0.559161  0.048081  2.355682  0.084
O  O164  1  0.65577328  0.48019234  0.65398120  1  -1.159149  0.100725  -0.308342  -0.560491  0.047455  2.354519  0.083
O  O165  1  0.15529106  0.82582729  0.48007651  1  -1.151009  0.102057  -0.308293  -0.55928  0.048109  2.357376  0.084
O  O166  1  0.15478492  0.65457383  0.17462404  1  -1.161365  0.102321  -0.308646  -0.558876  0.048113  2.355205  0.084
O  O167  1  0.15570539  0.51983271  0.34595657  1  -1.159639  0.100698  -0.308228  -0.560177  0.04745  2.354623  0.083
O  O168  1  0.34475419  0.82564286  0.34565641  1  -1.157119  0.101542  -0.308407  -0.560034  0.047806  2.356258  0.083
O  O169  1  0.34425327  0.65401987  0.48018819  1  -1.158802  0.101356  -0.308316  -0.559997  0.047755  2.355881  0.083
O  O170  1  0.34519001  0.51996955  0.17445817  1  -1.150544  0.102237  -0.308495  -0.558453  0.048128  2.356231  0.084
O  O171  1  0.84490782  0.17448634  0.65443704  1  -1.158461  0.10176  -0.308466  -0.559839  0.047899  2.356098  0.084
O  O172  1  0.84420337  0.34601210  0.51978348  1  -1.160024  0.101162  -0.30843  -0.56045  0.04766  2.355502  0.083
O  O173  1  0.84508451  0.48002948  0.82560559  1  -1.151004  0.102217  -0.308279  -0.558675  0.048132  2.356668  0.084
O  O174  1  0.25000642  0.66652726  0.33326607  1  -1.028027  0.609177  -0.556236  -0.91111  0.29738  2.160921  0.493
O  O175  1  0.75000583  0.33344472  0.66665637  1  -1.028704  0.609272  -0.556252  -0.911159  0.297382  2.160728  0.493
