# generated using pymatgen
data_ZnH14C21(N2O3)2
_symmetry_space_group_name_H-M   'P 1'
_cell_length_a   8.70149970
_cell_length_b   10.33772627
_cell_length_c   27.04515053
_cell_angle_alpha   89.99996732
_cell_angle_beta   90.00001414
_cell_angle_gamma   95.58072771
_symmetry_Int_Tables_number   1
_chemical_formula_structural   ZnH14C21(N2O3)2
_chemical_formula_sum   'Zn4 H56 C84 N16 O24'
_cell_volume   2421.28083009
_cell_formula_units_Z   4
loop_
 _symmetry_equiv_pos_site_id
 _symmetry_equiv_pos_as_xyz
  1  'x, y, z'
loop_
 _atom_site_type_symbol
 _atom_site_label
 _atom_site_symmetry_multiplicity
 _atom_site_fract_x
 _atom_site_fract_y
 _atom_site_fract_z
 _atom_site_occupancy
 _atom_site_pbe_bader_charge
 _atom_site_pbe_bader_spin_density
 _atom_site_pbe_cm5_charge
 _atom_site_pbe_ddec_charge
 _atom_site_pbe_ddec_spin_density
 _atom_site_pbe_ddec_sum_bond_order
 _atom_site_pbe_magmom
Zn  Zn0  1  0.30862235  0.42782204  0.43285428  1  1.259222  0  0.709355  0.789528  0  2.369758  0
Zn  Zn1  1  0.19137899  0.57217844  0.93285443  1  1.259238  0  0.709309  0.789454  0  2.369747  0
Zn  Zn2  1  0.69138003  0.57217716  0.56714526  1  1.259349  0  0.709293  0.78942  0  2.369835  0
Zn  Zn3  1  0.80862131  0.42782270  0.06714585  1  1.259224  0  0.709335  0.789501  0  2.36973  0
H  H4  1  0.94736689  0.34375015  0.57817315  1  0.572084  0  0.317733  0.305797  0  0.984164  0
H  H5  1  0.55263342  0.65625067  0.07817293  1  0.572081  0  0.31773  0.305783  0  0.984185  0
H  H6  1  0.05263445  0.65625003  0.42182639  1  0.572075  0  0.317716  0.305777  0  0.984191  0
H  H7  1  0.44736792  0.34374950  0.92182735  1  0.572092  0  0.317746  0.305808  0  0.984151  0
H  H8  1  0.99597114  0.29388483  0.48901115  1  0.183638  0  0.138986  0.107306  0  1.006631  0
H  H9  1  0.50402816  0.70611442  0.98901126  1  0.183656  0  0.13898  0.107302  0  1.006572  0
H  H10  1  0.00402894  0.70611437  0.51098839  1  0.183661  0  0.138964  0.107251  0  1.006596  0
H  H11  1  0.49597307  0.29388478  0.01098865  1  0.183659  0  0.138982  0.107293  0  1.006597  0
H  H12  1  0.36369768  0.66332577  0.61286471  1  0.124921  0  0.102336  0.11425  0  1.051719  0
H  H13  1  0.13630324  0.33667323  0.11286493  1  0.12493  0  0.102337  0.114248  0  1.051748  0
H  H14  1  0.63630251  0.33667440  0.38713520  1  0.124926  0  0.102335  0.114239  0  1.051755  0
H  H15  1  0.86369684  0.66332597  0.88713535  1  0.124834  0  0.102327  0.11422  0  1.051767  0
H  H16  1  0.35269493  0.57717450  0.53275276  1  0.164011  0  0.120766  0.129474  0  1.036149  0
H  H17  1  0.14730376  0.42282559  0.03275408  1  0.164012  0  0.120797  0.129524  0  1.036155  0
H  H18  1  0.64730526  0.42282568  0.46724604  1  0.164038  0  0.120784  0.129471  0  1.036161  0
H  H19  1  0.85269528  0.57717458  0.96724694  1  0.164  0  0.120772  0.129469  0  1.036133  0
H  H20  1  0.41723175  0.71704858  0.69903949  1  0.039907  0  0.095715  0.091225  0  1.012923  0
H  H21  1  0.08276934  0.28295127  0.19903972  1  0.039906  0  0.095714  0.091231  0  1.012902  0
H  H22  1  0.58276844  0.28295159  0.30096042  1  0.039907  0  0.095716  0.09122  0  1.012909  0
H  H23  1  0.91723085  0.71704890  0.80096056  1  0.039912  0  0.095714  0.091212  0  1.012948  0
H  H24  1  0.06188682  0.41832486  0.74424207  1  0.075937  0  0.105433  0.108457  0  0.992669  0
H  H25  1  0.43811085  0.58167493  0.24424300  1  0.075927  0  0.10543  0.108468  0  0.992697  0
H  H26  1  0.93811096  0.58167434  0.25575673  1  0.075925  0  0.105443  0.108478  0  0.992656  0
H  H27  1  0.56188808  0.41832427  0.75575765  1  0.075939  0  0.105448  0.108475  0  0.992684  0
H  H28  1  0.00868686  0.36403762  0.65744833  1  0.092139  0  0.111892  0.125527  0  0.989628  0
H  H29  1  0.49131420  0.63596229  0.15744962  1  0.092166  0  0.111902  0.125506  0  0.989739  0
H  H30  1  0.99131426  0.63596061  0.34255048  1  0.092148  0  0.111909  0.12555  0  0.989666  0
H  H31  1  0.50868703  0.36403691  0.84255140  1  0.092181  0  0.111897  0.125527  0  0.989674  0
H  H32  1  0.25437781  0.92245519  0.42825081  1  0.132501  0  0.105871  0.115671  0  1.028459  0
H  H33  1  0.24562030  0.07754724  0.92825107  1  0.132592  0  0.105865  0.115628  0  1.028467  0
H  H34  1  0.74562249  0.07754596  0.57174910  1  0.132548  0  0.105847  0.115614  0  1.02847  0
H  H35  1  0.75437781  0.92245487  0.07174884  1  0.132487  0  0.105877  0.115652  0  1.028426  0
H  H36  1  0.68805423  0.75410851  0.42364114  1  0.128952  0  0.108764  0.11635  0  1.020969  0
H  H37  1  0.81194514  0.24589181  0.92364064  1  0.128934  0  0.108762  0.116316  0  1.020972  0
H  H38  1  0.31194700  0.24589069  0.57635914  1  0.128967  0  0.108757  0.11634  0  1.020958  0
H  H39  1  0.18805539  0.75411128  0.07635927  1  0.128974  0  0.108762  0.116351  0  1.020925  0
H  H40  1  0.68165678  0.16633770  0.44557194  1  0.11877  0  0.106848  0.109987  0  1.0242  0
H  H41  1  0.81834272  0.83366356  0.94557242  1  0.118784  0  0.106862  0.110014  0  1.024211  0
H  H42  1  0.31834457  0.83366247  0.55442760  1  0.118767  0  0.106848  0.110011  0  1.02417  0
H  H43  1  0.18165666  0.16633953  0.05442712  1  0.118727  0  0.106889  0.110095  0  1.024261  0
H  H44  1  0.45525791  0.75671846  0.77644782  1  0.465399  0  0.34353  0.295526  0  0.898543  0
H  H45  1  0.04473967  0.24328030  0.27644806  1  0.465413  0  0.343515  0.295512  0  0.898519  0
H  H46  1  0.54473976  0.24327976  0.22355135  1  0.465407  0  0.343505  0.295479  0  0.898561  0
H  H47  1  0.95525926  0.75671890  0.72355222  1  0.465387  0  0.343526  0.295521  0  0.898529  0
H  H48  1  0.12112230  0.46467704  0.82783783  1  0.142093  0  0.126785  0.128336  0  0.99443  0
H  H49  1  0.37887635  0.53532068  0.32783840  1  0.142127  0  0.126788  0.128366  0  0.994442  0
H  H50  1  0.87887641  0.53532022  0.17216208  1  0.141898  0  0.126795  0.128358  0  0.994442  0
H  H51  1  0.62112247  0.46467755  0.67216151  1  0.142094  0  0.126785  0.128331  0  0.994457  0
H  H52  1  0.05470570  0.09830653  0.44673812  1  0.657696  0  0.307112  0.377543  0  0.965111  0
H  H53  1  0.44529335  0.90169393  0.94673860  1  0.657696  0  0.307106  0.377548  0  0.965106  0
H  H54  1  0.94529461  0.90169462  0.55326142  1  0.658084  0  0.307085  0.377457  0  0.965223  0
H  H55  1  0.55470603  0.09830915  0.05326206  1  0.657693  0  0.307064  0.377458  0  0.965224  0
H  H56  1  0.45144006  0.76916342  0.87053900  1  0.166683  0  0.142982  0.111265  0  0.995089  0
H  H57  1  0.04855872  0.23083521  0.37053960  1  0.166424  0  0.142986  0.111275  0  0.99512  0
H  H58  1  0.54855887  0.23083578  0.12946017  1  0.166432  0  0.142969  0.111241  0  0.995141  0
H  H59  1  0.95144136  0.76916399  0.62946068  1  0.166707  0  0.14299  0.11127  0  0.995117  0
C  C60  1  0.18130117  0.51027687  0.62817911  1  0.04687  0  -0.004791  0.057594  0  4.036127  0
C  C61  1  0.31869988  0.48972308  0.12817969  1  0.046852  0  -0.004788  0.057589  0  4.03625  0
C  C62  1  0.81870017  0.48972330  0.37182006  1  0.04676  0  -0.004845  0.057547  0  4.036241  0
C  C63  1  0.68130031  0.51027709  0.87182096  1  0.04714  0  -0.004827  0.057541  0  4.036191  0
C  C64  1  0.24337607  0.57203109  0.72903194  1  0.038831  0  -0.024835  0.015856  0  4.111277  0
C  C65  1  0.25662263  0.42796774  0.22903252  1  0.038776  0  -0.024926  0.015797  0  4.111413  0
C  C66  1  0.75662149  0.42796617  0.27096760  1  0.038769  0  -0.02491  0.01576  0  4.111399  0
C  C67  1  0.74337630  0.57203146  0.77096813  1  0.038923  0  -0.024803  0.015918  0  4.111247  0
C  C68  1  0.06807373  0.36269887  0.51118477  1  1.011253  0  0.152799  0.176753  0  3.913329  0
C  C69  1  0.43192599  0.63730028  0.01118495  1  1.011257  0  0.152802  0.176758  0  3.91329  0
C  C70  1  0.93192739  0.63729936  0.48881477  1  1.011339  0  0.152827  0.176858  0  3.913221  0
C  C71  1  0.56807421  0.36269990  0.98881533  1  1.011235  0  0.152781  0.176724  0  3.913298  0
C  C72  1  0.29532498  0.61033631  0.64146467  1  -0.114434  0  -0.092735  -0.122854  0  3.966629  0
C  C73  1  0.20467608  0.38966363  0.14146488  1  -0.11436  0  -0.092708  -0.122818  0  3.966651  0
C  C74  1  0.70467522  0.38966387  0.35853524  1  -0.114476  0  -0.092709  -0.122814  0  3.966642  0
C  C75  1  0.79532515  0.61033558  0.85853540  1  -0.11439  0  -0.092709  -0.122764  0  3.966624  0
C  C76  1  0.27383710  0.60086155  0.78094254  1  0.317899  0  0.081031  0.101069  0  4.04493  0
C  C77  1  0.22616163  0.39913721  0.28094312  1  0.317932  0  0.081044  0.101131  0  4.045015  0
C  C78  1  0.72616172  0.39913668  0.21905700  1  0.31794  0  0.080995  0.10104  0  4.044916  0
C  C79  1  0.77383719  0.60086102  0.71905753  1  0.317913  0  0.081019  0.101086  0  4.04485  0
C  C80  1  0.15882575  0.47547584  0.57645857  1  0.36441  0  0.082433  0.096181  0  4.008061  0
C  C81  1  0.34117537  0.52452516  0.07645950  1  0.364492  0  0.082433  0.096189  0  4.008092  0
C  C82  1  0.84117559  0.52452433  0.42354060  1  0.364396  0  0.082453  0.096147  0  4.008077  0
C  C83  1  0.65882597  0.47547502  0.92354115  1  0.364412  0  0.082429  0.096168  0  4.008071  0
C  C84  1  0.24958679  0.50981296  0.53543754  1  0.388831  0  0.007628  -0.066022  0  3.914786  0
C  C85  1  0.25041294  0.49018616  0.03543810  1  0.388761  0  0.007593  -0.066125  0  3.914857  0
C  C86  1  0.75041444  0.49018624  0.46456164  1  0.388819  0  0.007619  -0.065992  0  3.914784  0
C  C87  1  0.74958725  0.50981402  0.96456255  1  0.388831  0  0.007614  -0.066025  0  3.914768  0
C  C88  1  0.32561800  0.64025806  0.69075779  1  -0.052083  0  -0.10326  -0.144598  0  4.038636  0
C  C89  1  0.17438193  0.35974180  0.19075838  1  -0.052144  0  -0.10326  -0.144609  0  4.038604  0
C  C90  1  0.67438219  0.35974211  0.30924175  1  -0.052155  0  -0.103223  -0.144524  0  4.03869  0
C  C91  1  0.82561815  0.64025740  0.80924190  1  -0.052247  0  -0.10326  -0.14462  0  4.038646  0
C  C92  1  0.12851147  0.47267763  0.71558443  1  -0.03242  0  -0.092001  -0.121767  0  3.997683  0
C  C93  1  0.37148847  0.52732220  0.21558537  1  -0.032372  0  -0.092007  -0.121859  0  3.99761  0
C  C94  1  0.87148861  0.52732157  0.28441437  1  -0.032395  0  -0.091947  -0.12168  0  3.997467  0
C  C95  1  0.62851057  0.47267798  0.78441528  1  -0.032424  0  -0.091991  -0.121763  0  3.99767  0
C  C96  1  0.09778870  0.44216470  0.66633161  1  -0.077523  0  -0.087235  -0.118389  0  3.950225  0
C  C97  1  0.40221467  0.55783520  0.16633144  1  -0.077584  0  -0.087199  -0.118283  0  3.950213  0
C  C98  1  0.90221242  0.55783353  0.33366830  1  -0.077318  0  -0.087265  -0.118479  0  3.950349  0
C  C99  1  0.59778678  0.44216594  0.83366847  1  -0.077735  0  -0.087242  -0.118416  0  3.950276  0
C  C100  1  0.37172748  0.17477350  0.44082912  1  1.569444  0  0.21141  0.584193  0  4.187944  0
C  C101  1  0.12827168  0.82522794  0.94082921  1  1.56936  0  0.211399  0.584254  0  4.187949  0
C  C102  1  0.62827386  0.82522667  0.55917042  1  1.569449  0  0.211434  0.584219  0  4.187862  0
C  C103  1  0.87172633  0.17477320  0.05917070  1  1.569448  0  0.211402  0.584171  0  4.187974  0
C  C104  1  0.38021798  0.93418720  0.43059097  1  -0.045877  0  -0.066637  -0.082305  0  3.890008  0
C  C105  1  0.11977991  0.06581329  0.93059049  1  -0.045919  0  -0.066617  -0.082202  0  3.88996  0
C  C106  1  0.61978210  0.06581200  0.56940931  1  -0.045954  0  -0.066612  -0.082225  0  3.889946  0
C  C107  1  0.88021820  0.93418883  0.06940905  1  -0.045886  0  -0.066575  -0.082141  0  3.889795  0
C  C108  1  0.87548189  0.97675874  0.43218055  1  1.543782  0  0.222471  0.574281  0  4.138465  0
C  C109  1  0.62451989  0.02324254  0.93218193  1  1.543679  0  0.222452  0.57433  0  4.138362  0
C  C110  1  0.12452186  0.02324241  0.56781825  1  1.543744  0  0.222416  0.574229  0  4.138476  0
C  C111  1  0.37548030  0.97675763  0.06782094  1  1.544052  0  0.222519  0.574325  0  4.138652  0
C  C112  1  0.46245034  0.82472281  0.42610885  1  -0.051628  0  -0.018049  -0.038251  0  3.967127  0
C  C113  1  0.03754881  0.17527865  0.92610797  1  -0.051656  0  -0.018051  -0.038331  0  3.967166  0
C  C114  1  0.53755100  0.17527736  0.57389217  1  -0.051646  0  -0.018019  -0.038289  0  3.967102  0
C  C115  1  0.96245057  0.82472444  0.07389231  1  -0.051659  0  -0.018112  -0.038442  0  3.967233  0
C  C116  1  0.45901655  0.05732675  0.43771397  1  -0.0102  0  -0.02182  -0.049678  0  3.99571  0
C  C117  1  0.04098260  0.94267470  0.93771441  1  -0.010143  0  -0.021845  -0.049719  0  3.995766  0
C  C118  1  0.54098479  0.94267342  0.56228594  1  -0.010209  0  -0.021839  -0.049664  0  3.995645  0
C  C119  1  0.95901666  0.05732742  0.06228514  1  -0.010186  0  -0.021887  -0.049716  0  3.99575  0
C  C120  1  0.62384520  0.83883081  0.42770323  1  0.054875  0  -0.065509  -0.079608  0  3.888634  0
C  C121  1  0.87615428  0.16117048  0.92770238  1  0.05484  0  -0.065462  -0.079494  0  3.888577  0
C  C122  1  0.37615614  0.16116937  0.57229779  1  0.054869  0  -0.065487  -0.079571  0  3.888549  0
C  C123  1  0.12384257  0.83883067  0.07229790  1  0.054877  0  -0.065483  -0.079527  0  3.888509  0
C  C124  1  0.70332200  0.96231788  0.43399492  1  -0.068391  0  -0.02155  -0.053088  0  3.999229  0
C  C125  1  0.79667875  0.03768437  0.93399520  1  -0.068407  0  -0.021553  -0.053053  0  3.999193  0
C  C126  1  0.29668060  0.03768327  0.56600536  1  -0.068355  0  -0.021566  -0.053072  0  3.999254  0
C  C127  1  0.20332189  0.96231969  0.06600545  1  -0.068412  0  -0.021527  -0.053041  0  3.999143  0
C  C128  1  0.62051734  0.07072438  0.43982970  1  -0.063174  0  -0.072657  -0.094393  0  3.928083  0
C  C129  1  0.87948215  0.92927688  0.93982979  1  -0.063163  0  -0.072667  -0.094463  0  3.928136  0
C  C130  1  0.37948285  0.92927579  0.56017021  1  -0.063155  0  -0.072647  -0.094432  0  3.927982  0
C  C131  1  0.12051952  0.07072621  0.06017012  1  -0.063143  0  -0.072703  -0.094561  0  3.928208  0
C  C132  1  0.20948837  0.54514873  0.82359529  1  0.425084  0  0.008377  -0.074457  0  3.933476  0
C  C133  1  0.29051027  0.45484900  0.32359587  1  0.425069  0  0.008374  -0.07454  0  3.933532  0
C  C134  1  0.79051034  0.45484853  0.17640425  1  0.425303  0  0.008405  -0.074463  0  3.933515  0
C  C135  1  0.70948740  0.54514923  0.67640441  1  0.425084  0  0.00836  -0.074486  0  3.933463  0
C  C136  1  0.37389603  0.69400672  0.41876892  1  1.567098  0  0.206151  0.575563  0  4.205874  0
C  C137  1  0.12610393  0.30599184  0.91876875  1  1.567106  0  0.206221  0.575686  0  4.205662  0
C  C138  1  0.62610509  0.30599151  0.58123137  1  1.567114  0  0.206212  0.575671  0  4.205772  0
C  C139  1  0.87389637  0.69400931  0.08123116  1  1.567113  0  0.206212  0.575696  0  4.205777  0
C  C140  1  0.37973414  0.70112634  0.84788762  1  0.988087  0  0.15527  0.170772  0  3.918965  0
C  C141  1  0.12026452  0.29887135  0.34788785  1  0.988413  0  0.15525  0.170729  0  3.919067  0
C  C142  1  0.62026457  0.29887092  0.15211192  1  0.988406  0  0.155309  0.17084  0  3.919095  0
C  C143  1  0.87973327  0.70112785  0.65211243  1  0.988268  0  0.155272  0.170772  0  3.918981  0
N  N144  1  0.19239850  0.43826078  0.49543629  1  -1.263713  0  -0.36847  -0.308041  0  3.641317  0
N  N145  1  0.30760058  0.56173961  0.99543682  1  -1.263688  0  -0.368445  -0.307983  0  3.64129  0
N  N146  1  0.80760169  0.56173939  0.50456326  1  -1.263773  0  -0.368416  -0.307981  0  3.641264  0
N  N147  1  0.69239857  0.43826153  0.00456383  1  -1.263725  0  -0.368464  -0.307996  0  3.641252  0
N  N148  1  0.04488294  0.38336435  0.55939600  1  -1.304055  0  -0.369445  -0.247606  0  3.667341  0
N  N149  1  0.45511703  0.61663667  0.05939618  1  -1.304083  0  -0.369451  -0.24759  0  3.6674  0
N  N150  1  0.95511726  0.61663582  0.44060355  1  -1.30408  0  -0.369463  -0.247623  0  3.667375  0
N  N151  1  0.54488328  0.38336447  0.94060410  1  -1.30406  0  -0.369428  -0.247576  0  3.667375  0
N  N152  1  0.38117686  0.69949559  0.79782541  1  -1.226436  0  -0.375911  -0.255903  0  3.668249  0
N  N153  1  0.11882188  0.30050314  0.29782564  1  -1.226467  0  -0.37593  -0.255925  0  3.668344  0
N  N154  1  0.61882070  0.30050166  0.20217450  1  -1.226474  0  -0.375949  -0.255928  0  3.668347  0
N  N155  1  0.88117820  0.69949606  0.70217464  1  -1.226429  0  -0.375933  -0.25593  0  3.668251  0
N  N156  1  0.27549114  0.60838579  0.86434640  1  -1.243971  0  -0.3525  -0.278603  0  3.613807  0
N  N157  1  0.22450753  0.39161187  0.36434662  1  -1.244069  0  -0.352458  -0.278535  0  3.613822  0
N  N158  1  0.72450653  0.39161243  0.13565351  1  -1.244065  0  -0.352487  -0.278607  0  3.613915  0
N  N159  1  0.77549233  0.60838538  0.63565366  1  -1.244188  0  -0.352489  -0.278594  0  3.613785  0
O  O160  1  0.22617968  0.16423908  0.44197165  1  -1.212864  0  -0.317643  -0.582378  0  2.27997  0
O  O161  1  0.27381948  0.83576236  0.94197175  1  -1.212851  0  -0.317658  -0.582448  0  2.279993  0
O  O162  1  0.77382155  0.83576012  0.55802863  1  -1.212897  0  -0.317664  -0.582379  0  2.279928  0
O  O163  1  0.72617634  0.16423975  0.05802816  1  -1.212915  0  -0.317646  -0.58237  0  2.279974  0
O  O164  1  0.45222928  0.28654547  0.44042645  1  -1.181943  0  -0.318966  -0.540756  0  2.32857  0
O  O165  1  0.04777195  0.71345403  0.94042656  1  -1.181919  0  -0.318935  -0.540722  0  2.32852  0
O  O166  1  0.54777310  0.71345373  0.55957346  1  -1.181998  0  -0.318941  -0.540731  0  2.328532  0
O  O167  1  0.95222698  0.28654517  0.05957335  1  -1.181915  0  -0.318942  -0.540721  0  2.328555  0
O  O168  1  0.93805521  0.09217168  0.44953718  1  -1.175888  0  -0.345666  -0.510357  0  2.307991  0
O  O169  1  0.56194533  0.90782860  0.94953688  1  -1.175783  0  -0.345691  -0.51044  0  2.308019  0
O  O170  1  0.06194613  0.90782849  0.55046310  1  -1.176268  0  -0.345634  -0.510288  0  2.308121  0
O  O171  1  0.43805394  0.09217352  0.05046340  1  -1.175874  0  -0.345628  -0.510329  0  2.307974  0
O  O172  1  0.95265404  0.89333877  0.41555207  1  -1.147609  0  -0.299095  -0.498268  0  2.124172  0
O  O173  1  0.54734659  0.10666253  0.91555232  1  -1.147589  0  -0.299076  -0.498273  0  2.12406  0
O  O174  1  0.04735131  0.10666626  0.58444784  1  -1.14757  0  -0.299072  -0.498251  0  2.124102  0
O  O175  1  0.45265197  0.89334347  0.08444796  1  -1.147849  0  -0.29914  -0.498288  0  2.124493  0
O  O176  1  0.44572252  0.59375242  0.42943812  1  -1.167475  0  -0.328727  -0.542609  0  2.297583  0
O  O177  1  0.05427767  0.40624807  0.92943794  1  -1.167449  0  -0.328766  -0.542675  0  2.297478  0
O  O178  1  0.55427997  0.40624776  0.57056253  1  -1.167444  0  -0.328756  -0.542625  0  2.297541  0
O  O179  1  0.94572159  0.59375404  0.07056235  1  -1.167417  0  -0.328757  -0.542654  0  2.297587  0
O  O180  1  0.23769875  0.68871115  0.40281707  1  -1.200732  0  -0.324148  -0.568546  0  2.210053  0
O  O181  1  0.26230212  0.31128549  0.90281765  1  -1.200764  0  -0.324181  -0.568584  0  2.209993  0
O  O182  1  0.76230318  0.31128416  0.59718284  1  -1.200802  0  -0.324195  -0.568613  0  2.210009  0
O  O183  1  0.73769714  0.68871663  0.09718300  1  -1.200779  0  -0.324176  -0.568598  0  2.209981  0
