# generated using pymatgen
data_CeP2H10(C2O)6
_symmetry_space_group_name_H-M   'P 1'
_cell_length_a   5.54019756
_cell_length_b   5.54021455
_cell_length_c   14.79265906
_cell_angle_alpha   83.41902008
_cell_angle_beta   83.41874860
_cell_angle_gamma   62.32344240
_symmetry_Int_Tables_number   1
_chemical_formula_structural   CeP2H10(C2O)6
_chemical_formula_sum   'Ce1 P2 H10 C12 O6'
_cell_volume   398.47128267
_cell_formula_units_Z   1
loop_
 _symmetry_equiv_pos_site_id
 _symmetry_equiv_pos_as_xyz
  1  'x, y, z'
loop_
 _atom_site_type_symbol
 _atom_site_label
 _atom_site_symmetry_multiplicity
 _atom_site_fract_x
 _atom_site_fract_y
 _atom_site_fract_z
 _atom_site_occupancy
 _atom_site_pbe_bader_spin_density
 _atom_site_pbe_cm5_charge
 _atom_site_pbe_ddec_charge
 _atom_site_pbe_ddec_spin_density
 _atom_site_pbe_ddec_sum_bond_order
 _atom_site_pbe_magmom
Ce  Ce0  1  0.37951094  0.62049198  0.99999987  1  0  1.693926  2.345016  0  2.87457  0
P  P1  1  0.00582571  0.24529021  0.11671537  1  0  0.416084  1.383477  0  5.321995  0
P  P2  1  0.75471550  0.99417276  0.88328443  1  0  0.416053  1.38348  0  5.321888  0
H  H3  1  0.60907843  0.49463545  0.26850087  1  0  0.109928  0.108433  0  1.012635  0
H  H4  1  0.50536299  0.39092096  0.73149957  1  0  0.109932  0.108411  0  1.012634  0
H  H5  1  0.66392288  0.50343921  0.43241480  1  0  0.098198  0.090603  0  1.02019  0
H  H6  1  0.49655840  0.33607304  0.56758577  1  0  0.098169  0.090553  0  1.02029  0
H  H7  1  0.13049644  0.27860576  0.49044031  1  0  0.095976  0.086771  0  1.041651  0
H  H8  1  0.72139188  0.86950253  0.50955972  1  0  0.095975  0.086771  0  1.041684  0
H  H9  1  0.53930813  0.06534949  0.38226961  1  0  0.097292  0.090008  0  1.035065  0
H  H10  1  0.93465222  0.46069214  0.61773037  1  0  0.097285  0.089995  0  1.035085  0
H  H11  1  0.48449295  0.05560989  0.21943141  1  0  0.117547  0.113907  0  0.98562  0
H  H12  1  0.94438998  0.51550788  0.78056798  1  0  0.117553  0.113914  0  0.98561  0
C  C13  1  0.04198766  0.27056541  0.23408205  1  0  -0.014109  -0.195842  0  3.978802  0
C  C14  1  0.72943156  0.95801518  0.76591859  1  0  -0.014105  -0.195845  0  3.978782  0
C  C15  1  0.81211394  0.40024656  0.29404867  1  0  -0.077081  -0.062586  0  3.980692  0
C  C16  1  0.59975642  0.18788148  0.70595218  1  0  -0.077079  -0.062553  0  3.980768  0
C  C17  1  0.84420655  0.40438463  0.38605055  1  0  -0.094347  -0.092725  0  4.020888  0
C  C18  1  0.59561432  0.15579166  0.61395033  1  0  -0.094338  -0.092673  0  4.020843  0
C  C19  1  0.10502851  0.28045310  0.41836202  1  0  -0.09179  -0.081002  0  4.007384  0
C  C20  1  0.71955057  0.89496500  0.58163733  1  0  -0.091795  -0.081035  0  4.007397  0
C  C21  1  0.33479153  0.15717352  0.35805734  1  0  -0.092048  -0.088956  0  4.010133  0
C  C22  1  0.84282310  0.66521233  0.64194159  1  0  -0.092059  -0.088977  0  4.010255  0
C  C23  1  0.30451094  0.15158343  0.26621424  1  0  -0.068356  -0.051257  0  3.958567  0
C  C24  1  0.84841473  0.69549149  0.73378471  1  0  -0.068343  -0.05124  0  3.958473  0
O  O25  1  0.15435206  0.38706051  0.05555548  1  0  -0.451411  -0.836698  0  2.270602  0
O  O26  1  0.61294378  0.84564681  0.94444639  1  0  -0.451408  -0.836713  0  2.270532  0
O  O27  1  0.14145435  0.93811482  0.10061962  1  0  -0.4495  -0.81595  0  2.192914  0
O  O28  1  0.06188839  0.85854669  0.89937929  1  0  -0.449488  -0.815955  0  2.192889  0
O  O29  1  0.69868736  0.38316815  0.10172503  1  0  -0.443338  -0.820681  0  2.223598  0
O  O30  1  0.61683432  0.30131351  0.89827503  1  0  -0.443324  -0.820651  0  2.22353  0
