# generated using pymatgen
data_NaH18C7S2NO3
_symmetry_space_group_name_H-M   'P 1'
_cell_length_a   5.66126212
_cell_length_b   14.62298870
_cell_length_c   15.71003930
_cell_angle_alpha   102.40860618
_cell_angle_beta   89.99810641
_cell_angle_gamma   89.99998620
_symmetry_Int_Tables_number   1
_chemical_formula_structural   NaH18C7S2NO3
_chemical_formula_sum   'Na4 H72 C28 S8 N4 O12'
_cell_volume   1270.16807291
_cell_formula_units_Z   4
loop_
 _symmetry_equiv_pos_site_id
 _symmetry_equiv_pos_as_xyz
  1  'x, y, z'
loop_
 _atom_site_type_symbol
 _atom_site_label
 _atom_site_symmetry_multiplicity
 _atom_site_fract_x
 _atom_site_fract_y
 _atom_site_fract_z
 _atom_site_occupancy
 _atom_site_hle17_bader_spin_density
 _atom_site_hle17_ddec_charge
 _atom_site_hle17_ddec_spin_density
 _atom_site_hle17_ddec_sum_bond_order
 _atom_site_hle17_magmom
 _atom_site_hse06_10hf_bader_spin_density
 _atom_site_hse06_10hf_ddec_charge
 _atom_site_hse06_10hf_ddec_spin_density
 _atom_site_hse06_10hf_ddec_sum_bond_order
 _atom_site_hse06_10hf_magmom
 _atom_site_hse06_bader_spin_density
 _atom_site_hse06_ddec_charge
 _atom_site_hse06_ddec_spin_density
 _atom_site_hse06_ddec_sum_bond_order
 _atom_site_hse06_magmom
 _atom_site_pbe_bader_spin_density
 _atom_site_pbe_cm5_charge
 _atom_site_pbe_ddec_charge
 _atom_site_pbe_ddec_spin_density
 _atom_site_pbe_ddec_sum_bond_order
 _atom_site_pbe_magmom
Na  Na0  1  0.26782979  0.45748919  0.44800570  1  0  0.882828  0  0.418738  0  0  0.831663  0  0.583945  0  0  0.842255  0  0.562005  0  0  0.626368  0.823989  0  0.599586  0
Na  Na1  1  0.76781312  0.04249833  0.55199179  1  0  0.882847  0  0.41874  0  0  0.831688  0  0.58395  0  0  0.84228  0  0.562012  0  0  0.62639  0.824012  0  0.599591  0
Na  Na2  1  0.73220171  0.54249709  0.55198773  1  0  0.882834  0  0.418752  0  0  0.83168  0  0.583961  0  0  0.842274  0  0.562024  0  0  0.626387  0.824009  0  0.599604  0
Na  Na3  1  0.23220777  0.95749361  0.44801547  1  0  0.882843  0  0.418726  0  0  0.831665  0  0.583958  0  0  0.84226  0  0.562018  0  0  0.626362  0.823992  0  0.5996  0
H  H4  1  0.12303643  0.53391805  0.64284167  1  0  0.322197  0  0.967019  0  0  0.297091  0  1.048917  0  0  0.306202  0  1.039893  0  0  0.267212  0.290653  0  1.05526  0
H  H5  1  0.62306484  0.96605961  0.35716341  1  0  0.322208  0  0.9673  0  0  0.296971  0  1.04946  0  0  0.306084  0  1.040434  0  0  0.267168  0.290536  0  1.055797  0
H  H6  1  0.87699860  0.46607313  0.35715463  1  0  0.32223  0  0.967162  0  0  0.297067  0  1.049178  0  0  0.306177  0  1.040153  0  0  0.267261  0.290629  0  1.055522  0
H  H7  1  0.37697549  0.03392741  0.64284035  1  0  0.322193  0  0.967129  0  0  0.297002  0  1.049208  0  0  0.306113  0  1.04018  0  0  0.267224  0.290564  0  1.055551  0
H  H8  1  0.54818537  0.34240636  0.54056246  1  0  0.385723  0  0.92972  0  0  0.35676  0  0.995757  0  0  0.366493  0  0.981566  0  0  0.263876  0.349855  0  1.005816  0
H  H9  1  0.04817917  0.15758240  0.45944290  1  0  0.385842  0  0.929601  0  0  0.35688  0  0.995588  0  0  0.366611  0  0.9814  0  0  0.263928  0.349978  0  1.005642  0
H  H10  1  0.45183906  0.65758344  0.45943611  1  0  0.385808  0  0.929521  0  0  0.356826  0  0.995627  0  0  0.366555  0  0.981443  0  0  0.263904  0.349922  0  1.005685  0
H  H11  1  0.95182053  0.84240880  0.54055595  1  0  0.385837  0  0.929577  0  0  0.356885  0  0.99559  0  0  0.366621  0  0.981394  0  0  0.26392  0.349981  0  1.005648  0
H  H12  1  0.71402485  0.34984890  0.46289661  1  0  0.383249  0  0.9352  0  0  0.353735  0  1.000649  0  0  0.362802  0  0.987613  0  0  0.264478  0.347328  0  1.00986  0
H  H13  1  0.21400778  0.15014436  0.53710581  1  0  0.38343  0  0.934979  0  0  0.353907  0  1.000437  0  0  0.362979  0  0.987392  0  0  0.26451  0.347496  0  1.009655  0
H  H14  1  0.28599781  0.65013669  0.53709859  1  0  0.383354  0  0.935033  0  0  0.35386  0  1.000447  0  0  0.362927  0  0.98741  0  0  0.264468  0.347453  0  1.009661  0
H  H15  1  0.78599545  0.84984892  0.46289090  1  0  0.383371  0  0.935059  0  0  0.353842  0  1.000528  0  0  0.362916  0  0.98748  0  0  0.264477  0.347433  0  1.00974  0
H  H16  1  0.21457792  0.40865473  0.27414631  1  0  0.360869  0  0.971979  0  0  0.330365  0  1.038923  0  0  0.33989  0  1.025165  0  0  0.2503  0.323623  0  1.048654  0
H  H17  1  0.71454987  0.09132728  0.72584499  1  0  0.360921  0  0.971979  0  0  0.330407  0  1.03893  0  0  0.33993  0  1.025174  0  0  0.250335  0.323667  0  1.048659  0
H  H18  1  0.78544121  0.59133156  0.72585094  1  0  0.36084  0  0.972065  0  0  0.330316  0  1.039032  0  0  0.339841  0  1.025273  0  0  0.25025  0.323575  0  1.048762  0
H  H19  1  0.28545689  0.90866392  0.27415514  1  0  0.361016  0  0.971834  0  0  0.3305  0  1.038783  0  0  0.340019  0  1.02503  0  0  0.250423  0.32376  0  1.048511  0
H  H20  1  0.49428230  0.41106631  0.27486909  1  0  0.373982  0  0.946196  0  0  0.344231  0  1.011446  0  0  0.353467  0  0.998068  0  0  0.257624  0.337731  0  1.020855  0
H  H21  1  0.99426139  0.08892979  0.72513258  1  0  0.374011  0  0.946169  0  0  0.344237  0  1.011452  0  0  0.353473  0  0.998075  0  0  0.257665  0.337736  0  1.020863  0
H  H22  1  0.50573154  0.58892205  0.72512157  1  0  0.374073  0  0.94609  0  0  0.344298  0  1.011368  0  0  0.353534  0  0.99799  0  0  0.257685  0.337798  0  1.020778  0
H  H23  1  0.00574537  0.91106913  0.27487288  1  0  0.374046  0  0.946131  0  0  0.344269  0  1.01142  0  0  0.353506  0  0.99804  0  0  0.25769  0.337768  0  1.02083  0
H  H24  1  0.42998614  0.40133057  0.67536458  1  0  0.08856  0  0.957566  0  0  0.10444  0  1.018631  0  0  0.105557  0  1.017769  0  0  0.107437  0.103501  0  1.019431  0
H  H25  1  0.93000848  0.09865094  0.32462541  1  0  0.088468  0  0.957412  0  0  0.104443  0  1.018529  0  0  0.10556  0  1.017667  0  0  0.107423  0.103496  0  1.019343  0
H  H26  1  0.57005772  0.59865076  0.32461896  1  0  0.088565  0  0.957614  0  0  0.104474  0  1.018743  0  0  0.10559  0  1.017881  0  0  0.107509  0.103542  0  1.019537  0
H  H27  1  0.06997003  0.90134019  0.67535879  1  0  0.088717  0  0.957537  0  0  0.104482  0  1.018721  0  0  0.105596  0  1.017866  0  0  0.107494  0.103549  0  1.01951  0
H  H28  1  0.22961877  0.45784306  0.75561306  1  0  0.077096  0  0.940148  0  0  0.095964  0  0.996943  0  0  0.096484  0  0.996904  0  0  0.106089  0.095415  0  0.997167  0
H  H29  1  0.72964541  0.04214035  0.24438470  1  0  0.076948  0  0.940187  0  0  0.095947  0  0.996991  0  0  0.096464  0  0.996956  0  0  0.106098  0.095425  0  0.997176  0
H  H30  1  0.77044452  0.54215022  0.24438238  1  0  0.076988  0  0.940252  0  0  0.095929  0  0.997065  0  0  0.096442  0  0.997035  0  0  0.106053  0.095429  0  0.997224  0
H  H31  1  0.27030836  0.95784945  0.75561324  1  0  0.077065  0  0.940276  0  0  0.095976  0  0.997025  0  0  0.096523  0  0.996947  0  0  0.106071  0.095427  0  0.997248  0
H  H32  1  0.08182464  0.33578021  0.57926411  1  0  0.054103  0  0.942236  0  0  0.067441  0  1.010968  0  0  0.067449  0  1.011083  0  0  0.097363  0.067295  0  1.011073  0
H  H33  1  0.58183938  0.16419801  0.42074834  1  0  0.054162  0  0.942237  0  0  0.06746  0  1.010944  0  0  0.067468  0  1.011057  0  0  0.097348  0.067311  0  1.011044  0
H  H34  1  0.91819802  0.66421102  0.42074111  1  0  0.054176  0  0.94217  0  0  0.067488  0  1.010941  0  0  0.067496  0  1.011056  0  0  0.097404  0.067337  0  1.011049  0
H  H35  1  0.41818329  0.83578556  0.57926620  1  0  0.054229  0  0.942237  0  0  0.067499  0  1.010919  0  0  0.067508  0  1.011031  0  0  0.0974  0.06735  0  1.011024  0
H  H36  1  0.88710404  0.39960776  0.65962252  1  0  0.051233  0  0.941669  0  0  0.061757  0  1.014335  0  0  0.06286  0  1.012936  0  0  0.095083  0.060846  0  1.015468  0
H  H37  1  0.38713761  0.10037463  0.34038405  1  0  0.051182  0  0.941734  0  0  0.061625  0  1.014415  0  0  0.062726  0  1.013016  0  0  0.095006  0.060708  0  1.015547  0
H  H38  1  0.11292039  0.60038068  0.34038406  1  0  0.051069  0  0.941656  0  0  0.061592  0  1.014351  0  0  0.062693  0  1.012955  0  0  0.095018  0.060678  0  1.015481  0
H  H39  1  0.61286562  0.89961667  0.65963774  1  0  0.051167  0  0.941534  0  0  0.061558  0  1.01423  0  0  0.06266  0  1.012833  0  0  0.095  0.060643  0  1.015363  0
H  H40  1  0.03851349  0.25699562  0.82756802  1  0  0.072282  0  0.95952  0  0  0.08632  0  1.026284  0  0  0.087274  0  1.026001  0  0  0.100464  0.08554  0  1.026552  0
H  H41  1  0.53851084  0.24299394  0.17245416  1  0  0.072151  0  0.959631  0  0  0.086344  0  1.026326  0  0  0.087304  0  1.026046  0  0  0.100436  0.085583  0  1.026574  0
H  H42  1  0.96153037  0.74301170  0.17243591  1  0  0.072211  0  0.959421  0  0  0.086327  0  1.026167  0  0  0.087281  0  1.025885  0  0  0.100455  0.085537  0  1.026444  0
H  H43  1  0.46139171  0.75700366  0.82756823  1  0  0.07229  0  0.959518  0  0  0.086363  0  1.026218  0  0  0.087354  0  1.025903  0  0  0.100467  0.085559  0  1.026505  0
H  H44  1  0.94676189  0.36953237  0.81461497  1  0  0.0703  0  0.912256  0  0  0.091856  0  0.967356  0  0  0.092264  0  0.967251  0  0  0.108922  0.091454  0  0.967548  0
H  H45  1  0.44676235  0.13045483  0.18540459  1  0  0.070201  0  0.91251  0  0  0.091957  0  0.967457  0  0  0.092372  0  0.967351  0  0  0.10894  0.091549  0  0.967662  0
H  H46  1  0.05327491  0.63045743  0.18538424  1  0  0.070251  0  0.912087  0  0  0.091917  0  0.967118  0  0  0.09233  0  0.967004  0  0  0.108901  0.091508  0  0.967321  0
H  H47  1  0.55315609  0.86954271  0.81460442  1  0  0.070413  0  0.912287  0  0  0.091978  0  0.967336  0  0  0.09239  0  0.96724  0  0  0.108939  0.09157  0  0.967524  0
H  H48  1  0.42817783  0.33632719  0.89143808  1  0  0.069054  0  0.932717  0  0  0.085479  0  0.995662  0  0  0.086289  0  0.996128  0  0  0.088545  0.084842  0  0.995388  0
H  H49  1  0.92817802  0.16364808  0.10856344  1  0  0.069189  0  0.932623  0  0  0.085528  0  0.995678  0  0  0.086341  0  0.996141  0  0  0.08858  0.084892  0  0.995405  0
H  H50  1  0.57186249  0.66367866  0.10855155  1  0  0.069074  0  0.932982  0  0  0.085494  0  0.995835  0  0  0.08631  0  0.996302  0  0  0.088558  0.084852  0  0.995562  0
H  H51  1  0.07176516  0.83635092  0.89145923  1  0  0.06931  0  0.932834  0  0  0.085629  0  0.995772  0  0  0.086447  0  0.996234  0  0  0.088568  0.084986  0  0.995507  0
H  H52  1  0.28364764  0.44507178  0.89916535  1  0  0.061814  0  0.941734  0  0  0.082488  0  0.999686  0  0  0.082696  0  1.000752  0  0  0.088865  0.082261  0  0.999025  0
H  H53  1  0.78358010  0.05491628  0.10080534  1  0  0.061747  0  0.941847  0  0  0.082436  0  0.999803  0  0  0.082643  0  1.000872  0  0  0.088859  0.08221  0  0.999142  0
H  H54  1  0.71639268  0.55493403  0.10081473  1  0  0.061912  0  0.941791  0  0  0.08245  0  0.999831  0  0  0.082662  0  1.000903  0  0  0.088866  0.082221  0  0.999168  0
H  H55  1  0.21628182  0.94508535  0.89917837  1  0  0.061951  0  0.94169  0  0  0.082537  0  0.999674  0  0  0.08275  0  1.000741  0  0  0.088916  0.08231  0  0.999011  0
H  H56  1  0.12687315  0.28599278  0.98580645  1  0  0.056127  0  0.933791  0  0  0.077985  0  0.990039  0  0  0.07816  0  0.991216  0  0  0.087155  0.077777  0  0.989285  0
H  H57  1  0.62685029  0.21403714  0.01421437  1  0  0.056094  0  0.933911  0  0  0.078061  0  0.990072  0  0  0.078244  0  0.99125  0  0  0.08716  0.077848  0  0.989325  0
H  H58  1  0.87317071  0.71401655  0.01417878  1  0  0.05605  0  0.933985  0  0  0.078034  0  0.990114  0  0  0.078208  0  0.991294  0  0  0.087143  0.077826  0  0.989358  0
H  H59  1  0.37308229  0.78600312  0.98580685  1  0  0.056024  0  0.933981  0  0  0.0779  0  0.990186  0  0  0.078072  0  0.991365  0  0  0.08709  0.077696  0  0.989427  0
H  H60  1  0.96775752  0.39099772  0.99341109  1  0  0.050644  0  0.931046  0  0  0.072287  0  0.987345  0  0  0.072527  0  0.988301  0  0  0.084326  0.071991  0  0.986838  0
H  H61  1  0.46774676  0.10902502  0.00658721  1  0  0.050525  0  0.930884  0  0  0.072182  0  0.987235  0  0  0.072422  0  0.988195  0  0  0.084268  0.071884  0  0.986731  0
H  H62  1  0.03228634  0.60900739  0.00656949  1  0  0.050533  0  0.93085  0  0  0.072209  0  0.987209  0  0  0.07245  0  0.988162  0  0  0.084226  0.071907  0  0.986707  0
H  H63  1  0.53222644  0.89100671  0.99340051  1  0  0.050624  0  0.930951  0  0  0.072253  0  0.987236  0  0  0.072496  0  0.988191  0  0  0.084295  0.071954  0  0.986735  0
H  H64  1  0.22735249  0.39616662  0.12497754  1  0  0.091056  0  0.990601  0  0  0.108662  0  1.059383  0  0  0.110104  0  1.059372  0  0  0.074346  0.10757  0  1.059463  0
H  H65  1  0.72739150  0.10388679  0.87502700  1  0  0.090998  0  0.990737  0  0  0.108546  0  1.059586  0  0  0.10999  0  1.05957  0  0  0.074273  0.10745  0  1.059672  0
H  H66  1  0.77261542  0.60383713  0.87501105  1  0  0.090917  0  0.990881  0  0  0.108532  0  1.05964  0  0  0.109973  0  1.059629  0  0  0.074308  0.107425  0  1.059729  0
H  H67  1  0.27267532  0.89618564  0.12498844  1  0  0.091107  0  0.990625  0  0  0.10864  0  1.059493  0  0  0.110083  0  1.05948  0  0  0.074342  0.107537  0  1.059586  0
H  H68  1  0.31105543  0.48380731  0.06814881  1  0  0.084577  0  0.96077  0  0  0.105793  0  1.023694  0  0  0.106816  0  1.02426  0  0  0.080239  0.105021  0  1.02332  0
H  H69  1  0.81104700  0.01623813  0.93183792  1  0  0.084612  0  0.96071  0  0  0.105786  0  1.02365  0  0  0.106808  0  1.024213  0  0  0.080237  0.105015  0  1.023278  0
H  H70  1  0.68895310  0.51620839  0.93185230  1  0  0.084493  0  0.960604  0  0  0.105663  0  1.023604  0  0  0.106686  0  1.024169  0  0  0.080188  0.104892  0  1.023231  0
H  H71  1  0.18892797  0.98381744  0.06816339  1  0  0.084592  0  0.960751  0  0  0.105777  0  1.023675  0  0  0.106796  0  1.024242  0  0  0.080238  0.105005  0  1.023302  0
H  H72  1  0.48126555  0.38011028  0.05706762  1  0  0.083046  0  0.962965  0  0  0.099461  0  1.035606  0  0  0.101099  0  1.035018  0  0  0.077935  0.098258  0  1.036051  0
H  H73  1  0.98127863  0.11992574  0.94293567  1  0  0.08303  0  0.9632  0  0  0.099448  0  1.035799  0  0  0.101085  0  1.035213  0  0  0.077928  0.098247  0  1.036242  0
H  H74  1  0.51875181  0.61989914  0.94293863  1  0  0.082984  0  0.962991  0  0  0.099354  0  1.035684  0  0  0.100991  0  1.035096  0  0  0.077887  0.098151  0  1.036126  0
H  H75  1  0.01873697  0.88012440  0.05710404  1  0  0.083119  0  0.963094  0  0  0.099465  0  1.035784  0  0  0.101103  0  1.035195  0  0  0.077952  0.098263  0  1.036226  0
C  C76  1  0.35689002  0.23463518  0.70567087  1  0  0.287546  0  3.758258  0  0  0.254797  0  4.064662  0  0  0.278765  0  4.073494  0  0  0.133677  0.238854  0  4.057836  0
C  C77  1  0.85692164  0.26533815  0.29432918  1  0  0.287705  0  3.75822  0  0  0.254973  0  4.064599  0  0  0.278941  0  4.073429  0  0  0.133912  0.239029  0  4.057778  0
C  C78  1  0.64312911  0.76534757  0.29431678  1  0  0.287572  0  3.758316  0  0  0.254804  0  4.064686  0  0  0.27877  0  4.073516  0  0  0.133827  0.238862  0  4.057864  0
C  C79  1  0.14303743  0.73465025  0.70566976  1  0  0.287672  0  3.75793  0  0  0.25501  0  4.064338  0  0  0.278981  0  4.073165  0  0  0.133865  0.239066  0  4.057515  0
C  C80  1  0.25245557  0.39667220  0.70182841  1  0  -0.051371  0  3.650661  0  0  -0.110414  0  3.896903  0  0  -0.107011  0  3.908407  0  0  -0.068826  -0.112441  0  3.888995  0
C  C81  1  0.75247334  0.10331047  0.29817213  1  0  -0.050838  0  3.650416  0  0  -0.11039  0  3.897176  0  0  -0.106984  0  3.90868  0  0  -0.068887  -0.112438  0  3.889263  0
C  C82  1  0.74757239  0.60331825  0.29815884  1  0  -0.051087  0  3.650555  0  0  -0.110476  0  3.897237  0  0  -0.107076  0  3.908752  0  0  -0.068938  -0.112537  0  3.889329  0
C  C83  1  0.24749103  0.89668004  0.70182977  1  0  -0.051367  0  3.651301  0  0  -0.110421  0  3.897603  0  0  -0.10704  0  3.909128  0  0  -0.068822  -0.112455  0  3.88969  0
C  C84  1  0.06619653  0.39837201  0.63194712  1  0  0.121269  0  3.629777  0  0  0.062536  0  3.904609  0  0  0.069041  0  3.910531  0  0  -0.081825  0.058173  0  3.90054  0
C  C85  1  0.56622887  0.10160900  0.36805588  1  0  0.121254  0  3.629776  0  0  0.062862  0  3.904353  0  0  0.069372  0  3.910266  0  0  -0.081555  0.05852  0  3.900257  0
C  C86  1  0.93380493  0.60161502  0.36805791  1  0  0.12147  0  3.629523  0  0  0.062859  0  3.904349  0  0  0.069358  0  3.910277  0  0  -0.081641  0.05851  0  3.900268  0
C  C87  1  0.43376729  0.89837803  0.63194980  1  0  0.121091  0  3.630056  0  0  0.062761  0  3.904471  0  0  0.069265  0  3.910389  0  0  -0.081749  0.058413  0  3.900383  0
C  C88  1  0.10162152  0.32586675  0.82061705  1  0  0.000542  0  3.640405  0  0  -0.06654  0  3.907133  0  0  -0.061997  0  3.918938  0  0  -0.063201  -0.069411  0  3.898971  0
C  C89  1  0.60160788  0.17411698  0.17938607  1  0  0.000854  0  3.640141  0  0  -0.066572  0  3.90711  0  0  -0.062053  0  3.918947  0  0  -0.063132  -0.069457  0  3.898934  0
C  C90  1  0.89840821  0.67413284  0.17937963  1  0  0.000577  0  3.639755  0  0  -0.066741  0  3.906462  0  0  -0.062192  0  3.918265  0  0  -0.063252  -0.069606  0  3.898297  0
C  C91  1  0.39829467  0.82588126  0.82062371  1  0  0.0003  0  3.640679  0  0  -0.066727  0  3.907225  0  0  -0.062227  0  3.919066  0  0  -0.063296  -0.069562  0  3.89903  0
C  C92  1  0.25372514  0.37058846  0.89911963  1  0  -0.136422  0  3.696211  0  0  -0.176259  0  3.960328  0  0  -0.178049  0  3.975058  0  0  -0.166659  -0.174868  0  3.950075  0
C  C93  1  0.75370852  0.12940819  0.10087855  1  0  -0.13645  0  3.696205  0  0  -0.176276  0  3.96057  0  0  -0.17806  0  3.975301  0  0  -0.166647  -0.17488  0  3.950311  0
C  C94  1  0.74629399  0.62941316  0.10086409  1  0  -0.136549  0  3.696197  0  0  -0.176145  0  3.960175  0  0  -0.17796  0  3.974931  0  0  -0.166625  -0.174748  0  3.949919  0
C  C95  1  0.24619580  0.87060684  0.89913071  1  0  -0.136807  0  3.696609  0  0  -0.17642  0  3.960376  0  0  -0.178226  0  3.975134  0  0  -0.16672  -0.175036  0  3.950129  0
C  C96  1  0.14733840  0.36099814  0.98604067  1  0  -0.053679  0  3.716756  0  0  -0.085149  0  3.974705  0  0  -0.085998  0  3.991005  0  0  -0.166076  -0.084413  0  3.963305  0
C  C97  1  0.64733351  0.13902959  0.01396929  1  0  -0.053411  0  3.716539  0  0  -0.084988  0  3.974557  0  0  -0.085849  0  3.99087  0  0  -0.166039  -0.084249  0  3.963148  0
C  C98  1  0.85269840  0.63901332  0.01395133  1  0  -0.053472  0  3.716561  0  0  -0.085183  0  3.974618  0  0  -0.086024  0  3.990917  0  0  -0.166008  -0.084441  0  3.963202  0
C  C99  1  0.35261849  0.86101415  0.98604561  1  0  -0.053668  0  3.716766  0  0  -0.085109  0  3.974461  0  0  -0.085955  0  3.990765  0  0  -0.16595  -0.084373  0  3.963056  0
C  C100  1  0.29959370  0.40775697  0.06335029  1  0  -0.287516  0  3.729603  0  0  -0.359806  0  3.975976  0  0  -0.362382  0  3.98698  0  0  -0.251409  -0.357782  0  3.968336  0
C  C101  1  0.79960218  0.09228786  0.93665173  1  0  -0.287627  0  3.729878  0  0  -0.359812  0  3.976371  0  0  -0.362382  0  3.987367  0  0  -0.251371  -0.357787  0  3.968735  0
C  C102  1  0.70042720  0.59225659  0.93664468  1  0  -0.287218  0  3.729572  0  0  -0.359408  0  3.975966  0  0  -0.361981  0  3.98697  0  0  -0.251268  -0.357367  0  3.96834  0
C  C103  1  0.20039575  0.90777341  0.06337234  1  0  -0.28748  0  3.729508  0  0  -0.359669  0  3.975842  0  0  -0.362244  0  3.986851  0  0  -0.251422  -0.357637  0  3.968216  0
S  S104  1  0.35573234  0.14478604  0.76128947  1  0  -0.476656  0  2.033556  0  0  -0.435081  0  2.334058  0  0  -0.451198  0  2.324505  0  0  -0.159444  -0.423703  0  2.340341  0
S  S105  1  0.85577418  0.35519004  0.23869840  1  0  -0.476905  0  2.03302  0  0  -0.435356  0  2.333518  0  0  -0.451481  0  2.323962  0  0  -0.15963  -0.423983  0  2.339816  0
S  S106  1  0.64428679  0.85519957  0.23871083  1  0  -0.476644  0  2.033845  0  0  -0.43506  0  2.334398  0  0  -0.451175  0  2.32484  0  0  -0.159441  -0.423683  0  2.340681  0
S  S107  1  0.14420079  0.64479131  0.76128897  1  0  -0.476683  0  2.033128  0  0  -0.435197  0  2.333697  0  0  -0.451329  0  2.324147  0  0  -0.159538  -0.423811  0  2.339971  0
S  S108  1  0.51513489  0.22449683  0.61050341  1  0  -0.534579  0  1.985488  0  0  -0.50073  0  2.299958  0  0  -0.516396  0  2.28931  0  0  -0.189239  -0.489694  0  2.30712  0
S  S109  1  0.01517018  0.27548001  0.38947834  1  0  -0.534667  0  1.98583  0  0  -0.500802  0  2.300295  0  0  -0.516467  0  2.289646  0  0  -0.189338  -0.489763  0  2.307456  0
S  S110  1  0.48486128  0.77548245  0.38948991  1  0  -0.534616  0  1.98512  0  0  -0.500773  0  2.299581  0  0  -0.516441  0  2.288929  0  0  -0.189328  -0.489738  0  2.306747  0
S  S111  1  0.98483305  0.72450552  0.61050284  1  0  -0.53473  0  1.985602  0  0  -0.500852  0  2.30002  0  0  -0.516518  0  2.28937  0  0  -0.189353  -0.489818  0  2.307184  0
N  N112  1  0.23520165  0.31350645  0.73882378  1  0  -0.124066  0  3.410928  0  0  -0.0255  0  3.636969  0  0  -0.045009  0  3.66194  0  0  -0.260396  -0.012542  0  3.619767  0
N  N113  1  0.73522083  0.18647486  0.26117669  1  0  -0.124228  0  3.410683  0  0  -0.025562  0  3.636983  0  0  -0.045061  0  3.661952  0  0  -0.260449  -0.012606  0  3.619793  0
N  N114  1  0.76482455  0.68647915  0.26117333  1  0  -0.124153  0  3.411079  0  0  -0.025404  0  3.63709  0  0  -0.0449  0  3.662045  0  0  -0.260387  -0.012452  0  3.6199  0
N  N115  1  0.26470645  0.81352267  0.73883040  1  0  -0.123955  0  3.41102  0  0  -0.02565  0  3.63738  0  0  -0.045155  0  3.662364  0  0  -0.260365  -0.012695  0  3.62017  0
O  O116  1  0.10283667  0.47827595  0.59362234  1  0  -0.621764  0  2.117476  0  0  -0.562904  0  2.354814  0  0  -0.579093  0  2.343393  0  0  -0.495105  -0.551494  0  2.362648  0
O  O117  1  0.60287628  0.02170285  0.40637662  1  0  -0.621863  0  2.117435  0  0  -0.562969  0  2.354724  0  0  -0.579157  0  2.343299  0  0  -0.495167  -0.551566  0  2.362548  0
O  O118  1  0.89717010  0.52171520  0.40636568  1  0  -0.621832  0  2.117822  0  0  -0.562931  0  2.355165  0  0  -0.579113  0  2.343743  0  0  -0.49521  -0.55153  0  2.362998  0
O  O119  1  0.39714991  0.97827999  0.59363141  1  0  -0.621694  0  2.11763  0  0  -0.562861  0  2.354852  0  0  -0.579044  0  2.343426  0  0  -0.495174  -0.551457  0  2.362678  0
O  O120  1  0.58785678  0.38432574  0.50056372  1  0  -0.882145  0  1.851627  0  0  -0.834383  0  2.023505  0  0  -0.850121  0  1.992373  0  0  -0.693806  -0.823303  0  2.04544  0
O  O121  1  0.08784166  0.11566362  0.49943939  1  0  -0.882482  0  1.851333  0  0  -0.834731  0  2.023273  0  0  -0.850468  0  1.992132  0  0  -0.693927  -0.823655  0  2.045207  0
O  O122  1  0.41216588  0.61565845  0.49943184  1  0  -0.882378  0  1.851298  0  0  -0.834618  0  2.023364  0  0  -0.850348  0  1.992237  0  0  -0.693849  -0.823543  0  2.0453  0
O  O123  1  0.91215451  0.88433108  0.50056079  1  0  -0.882459  0  1.851429  0  0  -0.834718  0  2.023335  0  0  -0.850459  0  1.992183  0  0  -0.69389  -0.823638  0  2.045274  0
O  O124  1  0.35273482  0.44562164  0.30077252  1  0  -0.859879  0  1.895911  0  0  -0.814271  0  2.062933  0  0  -0.831167  0  2.034058  0  0  -0.664293  -0.802255  0  2.083058  0
O  O125  1  0.85271651  0.05436779  0.69922820  1  0  -0.859983  0  1.895744  0  0  -0.814316  0  2.062756  0  0  -0.831229  0  2.033926  0  0  -0.664364  -0.802297  0  2.082876  0
O  O126  1  0.64727724  0.55436883  0.69922174  1  0  -0.859988  0  1.895732  0  0  -0.814319  0  2.062812  0  0  -0.83121  0  2.033925  0  0  -0.664307  -0.802301  0  2.082934  0
O  O127  1  0.14729909  0.94562205  0.30077930  1  0  -0.860124  0  1.895626  0  0  -0.814464  0  2.062681  0  0  -0.831368  0  2.033838  0  0  -0.664478  -0.802442  0  2.082801  0
