# generated using pymatgen
data_CdH10C9N2ClO3F
_symmetry_space_group_name_H-M   'P 1'
_cell_length_a   6.85129316
_cell_length_b   12.73817943
_cell_length_c   13.91218869
_cell_angle_alpha   90.00000046
_cell_angle_beta   95.48811810
_cell_angle_gamma   90.00008052
_symmetry_Int_Tables_number   1
_chemical_formula_structural   CdH10C9N2ClO3F
_chemical_formula_sum   'Cd4 H40 C36 N8 Cl4 O12 F4'
_cell_volume   1208.59282821
_cell_formula_units_Z   4
loop_
 _symmetry_equiv_pos_site_id
 _symmetry_equiv_pos_as_xyz
  1  'x, y, z'
loop_
 _atom_site_type_symbol
 _atom_site_label
 _atom_site_symmetry_multiplicity
 _atom_site_fract_x
 _atom_site_fract_y
 _atom_site_fract_z
 _atom_site_occupancy
 _atom_site_hle17_bader_spin_density
 _atom_site_hle17_ddec_charge
 _atom_site_hle17_ddec_spin_density
 _atom_site_hle17_ddec_sum_bond_order
 _atom_site_hle17_magmom
 _atom_site_hse06_10hf_bader_spin_density
 _atom_site_hse06_10hf_ddec_charge
 _atom_site_hse06_10hf_ddec_spin_density
 _atom_site_hse06_10hf_ddec_sum_bond_order
 _atom_site_hse06_10hf_magmom
 _atom_site_hse06_bader_spin_density
 _atom_site_hse06_ddec_charge
 _atom_site_hse06_ddec_spin_density
 _atom_site_hse06_ddec_sum_bond_order
 _atom_site_hse06_magmom
 _atom_site_pbe_bader_spin_density
 _atom_site_pbe_cm5_charge
 _atom_site_pbe_ddec_charge
 _atom_site_pbe_ddec_spin_density
 _atom_site_pbe_ddec_sum_bond_order
 _atom_site_pbe_magmom
Cd  Cd0  1  0.83725354  0.83950176  0.77548891  1  0  1.117329  0  1.794152  0  0  0.949966  0  2.2612  0  0  1.002121  0  2.209409  0  0  0.6872  0.912738  0  2.296755  0
Cd  Cd1  1  0.66275037  0.33950089  0.22451112  1  0  1.117358  0  1.794105  0  0  0.949988  0  2.261133  0  0  1.00214  0  2.209344  0  0  0.68722  0.912762  0  2.296691  0
Cd  Cd2  1  0.16274936  0.16049710  0.22451064  1  0  1.11732  0  1.794169  0  0  0.949986  0  2.261184  0  0  1.002139  0  2.209395  0  0  0.6872  0.91276  0  2.296741  0
Cd  Cd3  1  0.33725254  0.66049797  0.77548915  1  0  1.117316  0  1.79416  0  0  0.949974  0  2.261178  0  0  1.002127  0  2.209388  0  0  0.687214  0.912749  0  2.296734  0
H  H4  1  0.47194056  0.23543414  0.95288139  1  0  0.140167  0  0.935513  0  0  0.148303  0  0.997415  0  0  0.151958  0  0.99444  0  0  0.117906  0.145581  0  0.99968  0
H  H5  1  0.02805715  0.73543792  0.04711892  1  0  0.140185  0  0.935519  0  0  0.148335  0  0.997402  0  0  0.15199  0  0.994426  0  0  0.117915  0.145613  0  0.999669  0
H  H6  1  0.52805942  0.76456158  0.04711874  1  0  0.140207  0  0.935506  0  0  0.148334  0  0.997419  0  0  0.151999  0  0.99443  0  0  0.117914  0.145612  0  0.999683  0
H  H7  1  0.97193990  0.26456408  0.95288107  1  0  0.140242  0  0.935501  0  0  0.148382  0  0.997393  0  0  0.152045  0  0.994409  0  0  0.117942  0.145661  0  0.999657  0
H  H8  1  0.48247878  0.99688048  0.73212710  1  0  0.099834  0  0.965437  0  0  0.103809  0  1.039687  0  0  0.106589  0  1.037161  0  0  0.111185  0.10174  0  1.041598  0
H  H9  1  0.01752402  0.49688342  0.26787417  1  0  0.099746  0  0.965298  0  0  0.103688  0  1.039615  0  0  0.106469  0  1.037089  0  0  0.111131  0.101619  0  1.041525  0
H  H10  1  0.51752267  0.00311681  0.26787382  1  0  0.099765  0  0.965331  0  0  0.103687  0  1.039663  0  0  0.106466  0  1.037138  0  0  0.111146  0.10162  0  1.041571  0
H  H11  1  0.98247596  0.50312016  0.73212596  1  0  0.099759  0  0.965374  0  0  0.103684  0  1.039694  0  0  0.106464  0  1.037167  0  0  0.111145  0.101618  0  1.0416  0
H  H12  1  0.85650186  0.96704119  0.98302741  1  0  0.094551  0  0.943508  0  0  0.099916  0  1.013272  0  0  0.103325  0  1.009372  0  0  0.119166  0.097348  0  1.016235  0
H  H13  1  0.64349945  0.46704265  0.01697250  1  0  0.094491  0  0.943469  0  0  0.099845  0  1.013256  0  0  0.103217  0  1.009401  0  0  0.119146  0.097294  0  1.0162  0
H  H14  1  0.14350250  0.03295767  0.01697005  1  0  0.094514  0  0.943445  0  0  0.099874  0  1.013223  0  0  0.103251  0  1.00936  0  0  0.119153  0.097331  0  1.016158  0
H  H15  1  0.35650200  0.53295856  0.98302914  1  0  0.094502  0  0.94345  0  0  0.099869  0  1.013218  0  0  0.103248  0  1.00935  0  0  0.119143  0.097304  0  1.016177  0
H  H16  1  0.16519037  0.91549039  0.64365001  1  0  0.038573  0  0.965228  0  0  0.043171  0  1.046105  0  0  0.044731  0  1.041114  0  0  0.108794  0.041824  0  1.049816  0
H  H17  1  0.33481073  0.41548886  0.35634902  1  0  0.038557  0  0.965218  0  0  0.043164  0  1.046097  0  0  0.044724  0  1.041108  0  0  0.108787  0.041818  0  1.049808  0
H  H18  1  0.83480813  0.08451083  0.35634934  1  0  0.038543  0  0.965261  0  0  0.043142  0  1.04613  0  0  0.044702  0  1.041139  0  0  0.108787  0.041796  0  1.049842  0
H  H19  1  0.66519071  0.58451000  0.64364973  1  0  0.038559  0  0.965245  0  0  0.04315  0  1.046127  0  0  0.044711  0  1.041135  0  0  0.108791  0.041803  0  1.049837  0
H  H20  1  0.41450022  0.12326738  0.59270634  1  0  0.09313  0  0.946463  0  0  0.112774  0  1.011474  0  0  0.113296  0  1.011604  0  0  0.099103  0.112256  0  1.011539  0
H  H21  1  0.08550158  0.62326728  0.40729201  1  0  0.09312  0  0.946515  0  0  0.11278  0  1.011525  0  0  0.113298  0  1.011658  0  0  0.099102  0.112263  0  1.011586  0
H  H22  1  0.58549683  0.87673462  0.40729366  1  0  0.093106  0  0.946432  0  0  0.112754  0  1.01145  0  0  0.113269  0  1.011587  0  0  0.099083  0.112236  0  1.011512  0
H  H23  1  0.91449985  0.37673315  0.59270675  1  0  0.093104  0  0.946482  0  0  0.112752  0  1.0115  0  0  0.113267  0  1.011636  0  0  0.099088  0.112236  0  1.011563  0
H  H24  1  0.30191447  0.08451062  0.47702787  1  0  0.11029  0  0.960216  0  0  0.12713  0  1.026843  0  0  0.128067  0  1.027128  0  0  0.098332  0.126366  0  1.026744  0
H  H25  1  0.19808869  0.58450904  0.52297125  1  0  0.110263  0  0.960248  0  0  0.12715  0  1.026841  0  0  0.128087  0  1.027127  0  0  0.098334  0.126385  0  1.02674  0
H  H26  1  0.69808257  0.91549138  0.52297213  1  0  0.110278  0  0.960223  0  0  0.127108  0  1.026859  0  0  0.128045  0  1.027144  0  0  0.098337  0.126344  0  1.02676  0
H  H27  1  0.80191274  0.41549061  0.47702751  1  0  0.110271  0  0.96023  0  0  0.127099  0  1.026871  0  0  0.128036  0  1.027157  0  0  0.098326  0.126336  0  1.026771  0
H  H28  1  0.38219204  0.98703837  0.56495869  1  0  0.103451  0  0.960609  0  0  0.124056  0  1.024709  0  0  0.124619  0  1.024834  0  0  0.103441  0.123513  0  1.024775  0
H  H29  1  0.11780925  0.48703746  0.43503963  1  0  0.103453  0  0.960605  0  0  0.124086  0  1.024683  0  0  0.12465  0  1.024806  0  0  0.103452  0.123542  0  1.024749  0
H  H30  1  0.61780500  0.01296441  0.43504059  1  0  0.103426  0  0.960721  0  0  0.124045  0  1.024805  0  0  0.12461  0  1.024926  0  0  0.103437  0.123501  0  1.024872  0
H  H31  1  0.88219072  0.51296297  0.56495906  1  0  0.103444  0  0.960592  0  0  0.124066  0  1.024673  0  0  0.12463  0  1.024795  0  0  0.103441  0.123522  0  1.024739  0
H  H32  1  0.86402610  0.14605496  0.60151900  1  0  0.11283  0  0.940464  0  0  0.131335  0  1.002985  0  0  0.133421  0  1.001283  0  0  0.108713  0.129724  0  1.004303  0
H  H33  1  0.63597436  0.64605489  0.39847871  1  0  0.112811  0  0.940493  0  0  0.131339  0  1.002993  0  0  0.133424  0  1.001293  0  0  0.108712  0.129728  0  1.00431  0
H  H34  1  0.13597241  0.85394704  0.39848106  1  0  0.112851  0  0.940466  0  0  0.131355  0  1.002987  0  0  0.133441  0  1.001286  0  0  0.108725  0.129743  0  1.004305  0
H  H35  1  0.36402707  0.35394554  0.60151934  1  0  0.112839  0  0.940493  0  0  0.131344  0  1.003004  0  0  0.133429  0  1.001303  0  0  0.108714  0.129734  0  1.004322  0
H  H36  1  0.00598070  0.19127852  0.50716719  1  0  0.102631  0  0.957814  0  0  0.121714  0  1.025599  0  0  0.121878  0  1.026245  0  0  0.09613  0.121451  0  1.025284  0
H  H37  1  0.49402128  0.69127715  0.49283117  1  0  0.102647  0  0.957819  0  0  0.121725  0  1.025616  0  0  0.121889  0  1.026262  0  0  0.096136  0.121461  0  1.0253  0
H  H38  1  0.99401781  0.80872348  0.49283288  1  0  0.102639  0  0.957795  0  0  0.12171  0  1.025596  0  0  0.121874  0  1.026241  0  0  0.096132  0.121447  0  1.025279  0
H  H39  1  0.50597869  0.30872328  0.50716753  1  0  0.102645  0  0.957819  0  0  0.121716  0  1.025614  0  0  0.121879  0  1.026259  0  0  0.096132  0.121453  0  1.025299  0
H  H40  1  0.08020486  0.22235677  0.63088357  1  0  0.093412  0  0.942815  0  0  0.110508  0  1.011887  0  0  0.111626  0  1.010795  0  0  0.098893  0.109616  0  1.012732  0
H  H41  1  0.41979573  0.72235613  0.36911472  1  0  0.093391  0  0.942781  0  0  0.110488  0  1.011866  0  0  0.111608  0  1.010772  0  0  0.098879  0.109597  0  1.012712  0
H  H42  1  0.91979511  0.77764523  0.36911656  1  0  0.093358  0  0.942752  0  0  0.11046  0  1.011825  0  0  0.111578  0  1.010734  0  0  0.098884  0.109568  0  1.012671  0
H  H43  1  0.58020424  0.27764273  0.63088397  1  0  0.093392  0  0.942785  0  0  0.110484  0  1.011865  0  0  0.111604  0  1.010771  0  0  0.098871  0.109592  0  1.012711  0
C  C44  1  0.75791272  0.15098497  0.07676145  1  0  0.664199  0  3.927584  0  0  0.610891  0  4.22593  0  0  0.646746  0  4.218553  0  0  0.20682  0.586584  0  4.230111  0
C  C45  1  0.74208629  0.65098421  0.92323763  1  0  0.664454  0  3.927272  0  0  0.61112  0  4.225665  0  0  0.646975  0  4.218288  0  0  0.206933  0.58681  0  4.229849  0
C  C46  1  0.24209164  0.84901153  0.92323673  1  0  0.664184  0  3.927435  0  0  0.610902  0  4.225774  0  0  0.646756  0  4.218401  0  0  0.206844  0.586593  0  4.229953  0
C  C47  1  0.25791222  0.34901465  0.07676243  1  0  0.664265  0  3.927411  0  0  0.610927  0  4.225821  0  0  0.646784  0  4.218446  0  0  0.206871  0.586619  0  4.230001  0
C  C48  1  0.67504602  0.10665836  0.98033147  1  0  -0.087132  0  3.721683  0  0  -0.060351  0  3.962082  0  0  -0.072379  0  3.98621  0  0  -0.009894  -0.05284  0  3.946131  0
C  C49  1  0.82495144  0.60665844  0.01967113  1  0  -0.087369  0  3.721814  0  0  -0.060565  0  3.962253  0  0  -0.072595  0  3.986374  0  0  -0.009977  -0.05305  0  3.946306  0
C  C50  1  0.32495543  0.89334128  0.01966945  1  0  -0.087113  0  3.72168  0  0  -0.060371  0  3.962165  0  0  -0.072399  0  3.986285  0  0  -0.009896  -0.052859  0  3.946219  0
C  C51  1  0.17504562  0.39334278  0.98033102  1  0  -0.087138  0  3.721696  0  0  -0.060323  0  3.96209  0  0  -0.072351  0  3.986212  0  0  -0.00991  -0.05281  0  3.946138  0
C  C52  1  0.52809498  0.16261842  0.92541351  1  0  -0.119113  0  3.685151  0  0  -0.163063  0  3.942223  0  0  -0.159461  0  3.956153  0  0  -0.068738  -0.165036  0  3.933013  0
C  C53  1  0.97190114  0.66262410  0.07458615  1  0  -0.119042  0  3.685038  0  0  -0.163053  0  3.942161  0  0  -0.159448  0  3.956086  0  0  -0.068719  -0.16503  0  3.932952  0
C  C54  1  0.47190499  0.83737730  0.07458446  1  0  -0.119075  0  3.684991  0  0  -0.163039  0  3.942122  0  0  -0.159444  0  3.95605  0  0  -0.068669  -0.165013  0  3.932912  0
C  C55  1  0.02809297  0.33738025  0.92541371  1  0  -0.119141  0  3.685033  0  0  -0.163122  0  3.942141  0  0  -0.159525  0  3.956067  0  0  -0.068697  -0.165096  0  3.932932  0
C  C56  1  0.45856678  0.12200976  0.83664627  1  0  0.263373  0  3.782955  0  0  0.251654  0  4.07123  0  0  0.257302  0  4.081218  0  0  0.102916  0.247003  0  4.064987  0
C  C57  1  0.04143358  0.62201277  0.16335632  1  0  0.263307  0  3.783126  0  0  0.251613  0  4.07139  0  0  0.257261  0  4.081381  0  0  0.102885  0.246964  0  4.065146  0
C  C58  1  0.54143175  0.87798753  0.16335667  1  0  0.263287  0  3.783092  0  0  0.251571  0  4.071365  0  0  0.257218  0  4.081358  0  0  0.102827  0.246921  0  4.065123  0
C  C59  1  0.95856641  0.37799238  0.83664597  1  0  0.26338  0  3.782983  0  0  0.251657  0  4.071276  0  0  0.257305  0  4.081267  0  0  0.102871  0.247008  0  4.065035  0
C  C60  1  0.53479022  0.02990087  0.80205948  1  0  0.027077  0  3.695419  0  0  -0.018856  0  3.958851  0  0  -0.012129  0  3.9732  0  0  0.039993  -0.023085  0  3.949185  0
C  C61  1  0.96520848  0.52990655  0.19794031  1  0  0.027282  0  3.695732  0  0  -0.018634  0  3.959136  0  0  -0.011908  0  3.97349  0  0  0.04011  -0.022866  0  3.949471  0
C  C62  1  0.46520974  0.97009485  0.19793922  1  0  0.027206  0  3.695751  0  0  -0.018683  0  3.959176  0  0  -0.011955  0  3.973527  0  0  0.040084  -0.022915  0  3.949515  0
C  C63  1  0.03479003  0.47009781  0.80205976  1  0  0.027178  0  3.695501  0  0  -0.018713  0  3.958954  0  0  -0.011982  0  3.973299  0  0  0.040052  -0.022945  0  3.949291  0
C  C64  1  0.74370968  0.01351164  0.94248911  1  0  0.116026  0  3.660074  0  0  0.069707  0  3.917407  0  0  0.078086  0  3.934609  0  0  0.04988  0.064316  0  3.905831  0
C  C65  1  0.75629630  0.51351323  0.05751100  1  0  0.116303  0  3.660074  0  0  0.069981  0  3.91742  0  0  0.078387  0  3.934628  0  0  0.049987  0.064574  0  3.90584  0
C  C66  1  0.25629760  0.98648565  0.05750847  1  0  0.116088  0  3.659962  0  0  0.069779  0  3.917342  0  0  0.078183  0  3.934554  0  0  0.049854  0.064369  0  3.905758  0
C  C67  1  0.24370222  0.48648720  0.94249050  1  0  0.116062  0  3.660149  0  0  0.069742  0  3.917495  0  0  0.078146  0  3.934707  0  0  0.049862  0.064348  0  3.905916  0
C  C68  1  0.06213913  0.98240101  0.63776599  1  0  0.394431  0  3.794243  0  0  0.319568  0  4.080879  0  0  0.348632  0  4.081209  0  0  0.169471  0.300128  0  4.080042  0
C  C69  1  0.43786800  0.48239956  0.36223189  1  0  0.39442  0  3.794234  0  0  0.319507  0  4.080946  0  0  0.34857  0  4.081277  0  0  0.169422  0.300066  0  4.08011  0
C  C70  1  0.93785938  0.01760021  0.36223408  1  0  0.394487  0  3.794283  0  0  0.31965  0  4.080883  0  0  0.348714  0  4.081211  0  0  0.169494  0.300209  0  4.080049  0
C  C71  1  0.56213197  0.51760087  0.63776753  1  0  0.394385  0  3.794398  0  0  0.319545  0  4.081008  0  0  0.348607  0  4.081339  0  0  0.169443  0.300105  0  4.080172  0
C  C72  1  0.31697527  0.06527868  0.55431345  1  0  -0.183413  0  3.655406  0  0  -0.283742  0  3.901942  0  0  -0.280932  0  3.913398  0  0  -0.137653  -0.285327  0  3.894196  0
C  C73  1  0.18302930  0.56527708  0.44568430  1  0  -0.183395  0  3.655575  0  0  -0.283811  0  3.90212  0  0  -0.280998  0  3.913578  0  0  -0.137698  -0.285392  0  3.894368  0
C  C74  1  0.68302178  0.93472410  0.44568726  1  0  -0.183356  0  3.65541  0  0  -0.283713  0  3.901967  0  0  -0.280896  0  3.913425  0  0  -0.137655  -0.285298  0  3.894218  0
C  C75  1  0.81697212  0.43472256  0.55431374  1  0  -0.183411  0  3.655497  0  0  -0.28375  0  3.902035  0  0  -0.280932  0  3.913494  0  0  -0.137666  -0.285335  0  3.894285  0
C  C76  1  0.01192877  0.16215191  0.58179278  1  0  -0.172617  0  3.647125  0  0  -0.273976  0  3.895884  0  0  -0.270427  0  3.905216  0  0  -0.137164  -0.276055  0  3.889551  0
C  C77  1  0.48807313  0.66215054  0.41820557  1  0  -0.172594  0  3.647143  0  0  -0.273978  0  3.895923  0  0  -0.270434  0  3.90526  0  0  -0.137187  -0.276059  0  3.889589  0
C  C78  1  0.98806828  0.83785009  0.41820722  1  0  -0.172563  0  3.647121  0  0  -0.273918  0  3.895882  0  0  -0.270372  0  3.905219  0  0  -0.13715  -0.275999  0  3.889547  0
C  C79  1  0.51192683  0.33784911  0.58179312  1  0  -0.172608  0  3.647119  0  0  -0.273941  0  3.895863  0  0  -0.270401  0  3.905212  0  0  -0.137133  -0.276021  0  3.88953  0
N  N80  1  0.67671531  0.97727885  0.85478901  1  0  -0.283976  0  3.242059  0  0  -0.209841  0  3.509251  0  0  -0.228637  0  3.528281  0  0  -0.317571  -0.197022  0  3.495985  0
N  N81  1  0.82328898  0.47728045  0.14521463  1  0  -0.284185  0  3.242283  0  0  -0.210039  0  3.509485  0  0  -0.228834  0  3.528503  0  0  -0.317679  -0.197219  0  3.496226  0
N  N82  1  0.32328761  0.02271923  0.14521270  1  0  -0.284065  0  3.242133  0  0  -0.209934  0  3.50933  0  0  -0.228728  0  3.528347  0  0  -0.31763  -0.197115  0  3.496074  0
N  N83  1  0.17671248  0.52272155  0.85478844  1  0  -0.284001  0  3.242091  0  0  -0.20987  0  3.509286  0  0  -0.228666  0  3.528307  0  0  -0.317584  -0.197051  0  3.496023  0
N  N84  1  0.12607422  0.06592313  0.59166197  1  0  -0.085281  0  3.511425  0  0  0.017323  0  3.746172  0  0  -0.002874  0  3.771548  0  0  -0.285508  0.030852  0  3.728567  0
N  N85  1  0.37392744  0.56592246  0.40833709  1  0  -0.0853  0  3.511476  0  0  0.017327  0  3.746247  0  0  -0.00287  0  3.771625  0  0  -0.285423  0.030857  0  3.728639  0
N  N86  1  0.87392576  0.93407809  0.40833817  1  0  -0.085278  0  3.511489  0  0  0.01732  0  3.746243  0  0  -0.002877  0  3.771618  0  0  -0.285488  0.030852  0  3.728637  0
N  N87  1  0.62607400  0.43407797  0.59166167  1  0  -0.085272  0  3.511422  0  0  0.017322  0  3.746167  0  0  -0.002877  0  3.771542  0  0  -0.285491  0.030852  0  3.728561  0
Cl  Cl88  1  0.00312349  0.70265301  0.66876578  1  0  -0.602801  0  0.971786  0  0  -0.539666  0  1.26116  0  0  -0.558805  0  1.235324  0  0  -0.291164  -0.525938  0  1.279219  0
Cl  Cl89  1  0.49687706  0.20265238  0.33123467  1  0  -0.602798  0  0.971764  0  0  -0.53967  0  1.261142  0  0  -0.558805  0  1.235307  0  0  -0.291161  -0.525939  0  1.279204  0
Cl  Cl90  1  0.99688234  0.29734664  0.33123390  1  0  -0.602783  0  0.97174  0  0  -0.53966  0  1.261122  0  0  -0.558798  0  1.235287  0  0  -0.291164  -0.52593  0  1.279183  0
Cl  Cl91  1  0.50312292  0.79734569  0.66876618  1  0  -0.602793  0  0.97177  0  0  -0.539659  0  1.261142  0  0  -0.558798  0  1.235306  0  0  -0.291162  -0.525931  0  1.279201  0
O  O92  1  0.87661597  0.09528083  0.13021558  1  0  -0.640187  0  1.992816  0  0  -0.583896  0  2.245275  0  0  -0.612025  0  2.235432  0  0  -0.329527  -0.564121  0  2.251303  0
O  O93  1  0.62338586  0.59528154  0.86978722  1  0  -0.640231  0  1.992823  0  0  -0.583941  0  2.245316  0  0  -0.612066  0  2.235467  0  0  -0.329564  -0.564167  0  2.251345  0
O  O94  1  0.12338694  0.90471803  0.86978397  1  0  -0.640154  0  1.992714  0  0  -0.583865  0  2.245167  0  0  -0.611996  0  2.235327  0  0  -0.32952  -0.56409  0  2.251193  0
O  O95  1  0.37661560  0.40471732  0.13021513  1  0  -0.640202  0  1.99281  0  0  -0.58389  0  2.245277  0  0  -0.612016  0  2.235428  0  0  -0.329554  -0.564115  0  2.251304  0
O  O96  1  0.69913735  0.24340397  0.09277303  1  0  -0.645331  0  2.078182  0  0  -0.581086  0  2.34518  0  0  -0.611013  0  2.334575  0  0  -0.332401  -0.560018  0  2.351546  0
O  O97  1  0.80086337  0.74340560  0.90722612  1  0  -0.645452  0  2.077961  0  0  -0.581204  0  2.344989  0  0  -0.611133  0  2.334385  0  0  -0.332452  -0.560137  0  2.351356  0
O  O98  1  0.30086701  0.75659332  0.90722514  1  0  -0.645323  0  2.07819  0  0  -0.581093  0  2.345178  0  0  -0.611017  0  2.334569  0  0  -0.332397  -0.560027  0  2.351541  0
O  O99  1  0.19913221  0.25659326  0.09277453  1  0  -0.645326  0  2.078048  0  0  -0.581101  0  2.345079  0  0  -0.611027  0  2.334469  0  0  -0.33239  -0.560034  0  2.351443  0
O  O100  1  0.89830332  0.97838820  0.67113361  1  0  -0.542748  0  2.084685  0  0  -0.48057  0  2.338961  0  0  -0.506992  0  2.331997  0  0  -0.314024  -0.462055  0  2.342957  0
O  O101  1  0.60169802  0.47838727  0.32886630  1  0  -0.542683  0  2.08481  0  0  -0.480487  0  2.339104  0  0  -0.506908  0  2.332144  0  0  -0.313996  -0.461974  0  2.343099  0
O  O102  1  0.10169665  0.02161223  0.32886652  1  0  -0.542792  0  2.084712  0  0  -0.480632  0  2.338982  0  0  -0.507058  0  2.332026  0  0  -0.314054  -0.462116  0  2.342981  0
O  O103  1  0.39830489  0.52161237  0.67113324  1  0  -0.54266  0  2.084914  0  0  -0.4805  0  2.339186  0  0  -0.506919  0  2.332225  0  0  -0.313992  -0.461986  0  2.343182  0
F  F104  1  0.31447314  0.17361442  0.78088022  1  0  -0.208736  0  1.198196  0  0  -0.146798  0  1.34383  0  0  -0.156737  0  1.336083  0  0  -0.094313  -0.139566  0  1.349207  0
F  F105  1  0.18552587  0.67362145  0.21912088  1  0  -0.208745  0  1.198177  0  0  -0.146777  0  1.343772  0  0  -0.156716  0  1.336027  0  0  -0.094294  -0.139545  0  1.349149  0
F  F106  1  0.68552537  0.82638052  0.21912057  1  0  -0.208733  0  1.198204  0  0  -0.14675  0  1.343802  0  0  -0.15669  0  1.336056  0  0  -0.094276  -0.139518  0  1.349178  0
F  F107  1  0.81447411  0.32638369  0.78088069  1  0  -0.208782  0  1.198173  0  0  -0.146822  0  1.34379  0  0  -0.156761  0  1.336044  0  0  -0.094316  -0.13959  0  1.349167  0
