# generated using pymatgen
data_ZnH9C13NO5
_symmetry_space_group_name_H-M   'P 1'
_cell_length_a   7.75595775
_cell_length_b   8.22070236
_cell_length_c   9.73754872
_cell_angle_alpha   73.08702847
_cell_angle_beta   75.92464704
_cell_angle_gamma   72.19750222
_symmetry_Int_Tables_number   1
_chemical_formula_structural   ZnH9C13NO5
_chemical_formula_sum   'Zn2 H18 C26 N2 O10'
_cell_volume   557.39590228
_cell_formula_units_Z   2
loop_
 _symmetry_equiv_pos_site_id
 _symmetry_equiv_pos_as_xyz
  1  'x, y, z'
loop_
 _atom_site_type_symbol
 _atom_site_label
 _atom_site_symmetry_multiplicity
 _atom_site_fract_x
 _atom_site_fract_y
 _atom_site_fract_z
 _atom_site_occupancy
 _atom_site_pbe_bader_spin_density
 _atom_site_pbe_cm5_charge
 _atom_site_pbe_ddec_charge
 _atom_site_pbe_ddec_spin_density
 _atom_site_pbe_ddec_sum_bond_order
 _atom_site_pbe_magmom
Zn  Zn0  1  0.51989370  0.12912032  0.09877804  1  0  0.698473  0.881269  0  2.312049  0
Zn  Zn1  1  0.48011005  0.87087932  0.90122290  1  0  0.698455  0.881224  0  2.312107  0
H  H2  1  0.84181655  0.09019694  0.91397932  1  0  0.281325  0.375123  0  0.970027  0
H  H3  1  0.15818159  0.90980397  0.08601723  1  0  0.28131  0.375132  0  0.969996  0
H  H4  1  0.85193833  0.15904417  0.04520363  1  0  0.286493  0.379523  0  0.963648  0
H  H5  1  0.14806115  0.84095676  0.95479164  1  0  0.286476  0.379535  0  0.963646  0
H  H6  1  0.86751161  0.41519535  0.08696958  1  0  0.107982  0.114096  0  1.019912  0
H  H7  1  0.13249249  0.58480297  0.91303264  1  0  0.107988  0.114115  0  1.019809  0
H  H8  1  0.14468243  0.21395016  0.45539352  1  0  0.103686  0.105614  0  1.022755  0
H  H9  1  0.85532387  0.78604027  0.54461019  1  0  0.103709  0.105664  0  1.022828  0
H  H10  1  0.81710936  0.75161069  0.36414518  1  0  0.103068  0.102947  0  1.042456  0
H  H11  1  0.18289029  0.24837964  0.63586184  1  0  0.103065  0.102903  0  1.042431  0
H  H12  1  0.35770597  0.49894368  0.13055474  1  0  0.120665  0.100393  0  1.002246  0
H  H13  1  0.64229241  0.50106120  0.86943979  1  0  0.120692  0.100425  0  1.002223  0
H  H14  1  0.34303016  0.67122616  0.30226039  1  0  0.115084  0.131776  0  1.000861  0
H  H15  1  0.65696616  0.32878132  0.69773389  1  0  0.115119  0.131821  0  1.000873  0
H  H16  1  0.65266429  0.19348415  0.56138954  1  0  0.110016  0.134101  0  1.036882  0
H  H17  1  0.34732762  0.80652455  0.43861247  1  0  0.110018  0.134095  0  1.036885  0
H  H18  1  0.65820616  0.04444086  0.37391173  1  0  0.11932  0.09007  0  1.003151  0
H  H19  1  0.34178742  0.95556653  0.62609233  1  0  0.119342  0.090039  0  1.003088  0
C  C20  1  0.70300563  0.74366930  0.13394793  1  0  0.227645  0.600818  0  4.164415  0
C  C21  1  0.29699942  0.25633034  0.86605483  1  0  0.227666  0.600874  0  4.164377  0
C  C22  1  0.83225755  0.59690189  0.21864149  1  0  -0.019749  -0.040234  0  3.992103  0
C  C23  1  0.16774996  0.40309384  0.78135867  1  0  -0.019742  -0.040213  0  3.992049  0
C  C24  1  0.90198791  0.43416832  0.18204655  1  0  -0.075573  -0.104189  0  3.93106  0
C  C25  1  0.09801767  0.56582474  0.81795563  1  0  -0.075593  -0.104284  0  3.93103  0
C  C26  1  0.01653852  0.29788949  0.26795432  1  0  -0.018621  -0.033977  0  3.980153  0
C  C27  1  0.98346500  0.70210618  0.73204762  1  0  -0.018596  -0.033831  0  3.980097  0
C  C28  1  0.10376266  0.12498847  0.22471648  1  0  0.2029  0.579755  0  4.219767  0
C  C29  1  0.89624147  0.87500986  0.77528369  1  0  0.202896  0.579673  0  4.21988  0
C  C30  1  0.05456250  0.32415739  0.39220364  1  0  -0.072818  -0.120921  0  3.897453  0
C  C31  1  0.94544116  0.67583301  0.60779954  1  0  -0.072836  -0.12102  0  3.89769  0
C  C32  1  0.98217966  0.48594707  0.43314901  1  0  -0.00893  0.058853  0  3.98855  0
C  C33  1  0.01782121  0.51404857  0.56685343  1  0  -0.008958  0.058861  0  3.988543  0
C  C34  1  0.87447282  0.62217731  0.34133051  1  0  -0.075869  -0.119873  0  3.916461  0
C  C35  1  0.12553413  0.37781580  0.65866730  1  0  -0.075862  -0.119831  0  3.91629  0
C  C36  1  0.42326982  0.43671274  0.22642632  1  0  0.05129  0.107932  0  3.918403  0
C  C37  1  0.57672457  0.56329208  0.77356999  1  0  0.051203  0.107768  0  3.918482  0
C  C38  1  0.41519267  0.53251886  0.32480600  1  0  -0.072704  -0.154728  0  3.908851  0
C  C39  1  0.58480159  0.46749124  0.67518804  1  0  -0.072762  -0.154844  0  3.909073  0
C  C40  1  0.50057193  0.45033357  0.44769818  1  0  0.017011  0.102444  0  3.962453  0
C  C41  1  0.49942268  0.54967521  0.55229817  1  0  0.017047  0.102608  0  3.962358  0
C  C42  1  0.58759352  0.26992132  0.46713752  1  0  -0.077465  -0.165974  0  3.90473  0
C  C43  1  0.41239743  0.73008605  0.53286498  1  0  -0.077513  -0.166056  0  3.904778  0
C  C44  1  0.59020617  0.18355742  0.36363213  1  0  0.051835  0.102807  0  3.934629  0
C  C45  1  0.40978515  0.81644864  0.63636959  1  0  0.051854  0.102886  0  3.934514  0
N  N46  1  0.51091739  0.26509318  0.24449439  1  0  -0.334904  -0.241591  0  3.584595  0
N  N47  1  0.48907998  0.73491034  0.75550476  1  0  -0.334875  -0.241474  0  3.584511  0
O  O48  1  0.64353176  0.88474602  0.17831709  1  0  -0.30586  -0.536635  0  2.450397  0
O  O49  1  0.35647596  0.11525367  0.82168311  1  0  -0.305901  -0.536726  0  2.450314  0
O  O50  1  0.65740238  0.71571756  0.02697382  1  0  -0.306476  -0.542938  0  2.416944  0
O  O51  1  0.34259849  0.28427808  0.97302863  1  0  -0.306454  -0.542908  0  2.417071  0
O  O52  1  0.25945317  0.03776959  0.25903758  1  0  -0.3338  -0.591905  0  2.233637  0
O  O53  1  0.74055041  0.96222612  0.74095920  1  0  -0.333814  -0.591869  0  2.233615  0
O  O54  1  0.01825034  0.07620752  0.15319755  1  0  -0.316202  -0.558889  0  2.219047  0
O  O55  1  0.98175209  0.92379210  0.84680262  1  0  -0.316195  -0.55888  0  2.219171  0
O  O56  1  0.76979357  0.17971691  0.97361285  1  0  -0.57779  -0.755665  0  2.133352  0
O  O57  1  0.23020481  0.82028797  0.02638168  1  0  -0.577774  -0.755692  0  2.133309  0
