# generated using pymatgen
data_CdH11C10S2N3O4
_symmetry_space_group_name_H-M   'P 1'
_cell_length_a   7.19272588
_cell_length_b   9.84751759
_cell_length_c   19.03941726
_cell_angle_alpha   89.99986233
_cell_angle_beta   90.00011862
_cell_angle_gamma   101.76809800
_symmetry_Int_Tables_number   1
_chemical_formula_structural   CdH11C10S2N3O4
_chemical_formula_sum   'Cd4 H44 C40 S8 N12 O16'
_cell_volume   1320.22585447
_cell_formula_units_Z   4
loop_
 _symmetry_equiv_pos_site_id
 _symmetry_equiv_pos_as_xyz
  1  'x, y, z'
loop_
 _atom_site_type_symbol
 _atom_site_label
 _atom_site_symmetry_multiplicity
 _atom_site_fract_x
 _atom_site_fract_y
 _atom_site_fract_z
 _atom_site_occupancy
 _atom_site_hle17_bader_spin_density
 _atom_site_hle17_ddec_charge
 _atom_site_hle17_ddec_spin_density
 _atom_site_hle17_ddec_sum_bond_order
 _atom_site_hle17_magmom
 _atom_site_hse06_10hf_bader_spin_density
 _atom_site_hse06_10hf_ddec_charge
 _atom_site_hse06_10hf_ddec_spin_density
 _atom_site_hse06_10hf_ddec_sum_bond_order
 _atom_site_hse06_10hf_magmom
 _atom_site_hse06_bader_spin_density
 _atom_site_hse06_ddec_charge
 _atom_site_hse06_ddec_spin_density
 _atom_site_hse06_ddec_sum_bond_order
 _atom_site_hse06_magmom
 _atom_site_pbe_bader_spin_density
 _atom_site_pbe_cm5_charge
 _atom_site_pbe_ddec_charge
 _atom_site_pbe_ddec_spin_density
 _atom_site_pbe_ddec_sum_bond_order
 _atom_site_pbe_magmom
Cd  Cd0  1  0.79913234  0.83748038  0.18118653  1  0  0.995919  0  1.868135  0  0  0.823806  0  2.323291  0  0  0.870068  0  2.28157  0  0  0.680366  0.791342  0  2.35154  0
Cd  Cd1  1  0.29913377  0.83748196  0.31881345  1  0  0.995948  0  1.868083  0  0  0.823834  0  2.323259  0  0  0.870095  0  2.281538  0  0  0.68039  0.791372  0  2.351508  0
Cd  Cd2  1  0.20086401  0.16251873  0.81881390  1  0  0.995883  0  1.868129  0  0  0.823745  0  2.323279  0  0  0.870006  0  2.28156  0  0  0.680337  0.79128  0  2.351532  0
Cd  Cd3  1  0.70086564  0.16251819  0.68118646  1  0  0.995952  0  1.868086  0  0  0.823818  0  2.323275  0  0  0.870081  0  2.281549  0  0  0.68038  0.791353  0  2.35153  0
H  H4  1  0.53946457  0.58643952  0.19097628  1  0  0.41873  0  0.887529  0  0  0.387774  0  0.950899  0  0  0.398432  0  0.935567  0  0  0.286642  0.380308  0  0.961627  0
H  H5  1  0.03946040  0.58644113  0.30902224  1  0  0.41874  0  0.887515  0  0  0.387797  0  0.950864  0  0  0.398451  0  0.935538  0  0  0.286644  0.380329  0  0.961595  0
H  H6  1  0.46053954  0.41355752  0.80902311  1  0  0.418747  0  0.887498  0  0  0.387778  0  0.950897  0  0  0.398436  0  0.935564  0  0  0.286622  0.38031  0  0.961629  0
H  H7  1  0.96052957  0.41356003  0.69097557  1  0  0.418726  0  0.887533  0  0  0.38777  0  0.950906  0  0  0.398426  0  0.935576  0  0  0.286653  0.380302  0  0.961635  0
H  H8  1  0.70878715  0.58113976  0.24594389  1  0  0.410283  0  0.89256  0  0  0.38011  0  0.960029  0  0  0.39021  0  0.945474  0  0  0.288837  0.372951  0  0.970322  0
H  H9  1  0.20878412  0.58114159  0.25405529  1  0  0.410316  0  0.892564  0  0  0.380162  0  0.959952  0  0  0.390259  0  0.945402  0  0  0.288876  0.373005  0  0.970243  0
H  H10  1  0.29121308  0.41885831  0.75405550  1  0  0.410356  0  0.892512  0  0  0.380206  0  0.959888  0  0  0.390303  0  0.945339  0  0  0.288899  0.373048  0  0.97018  0
H  H11  1  0.79120862  0.41885958  0.74594357  1  0  0.41032  0  0.892512  0  0  0.380152  0  0.959962  0  0  0.390252  0  0.945407  0  0  0.288862  0.372994  0  0.970254  0
H  H12  1  0.72060650  0.11310047  0.99711161  1  0  0.305695  0  0.912463  0  0  0.287914  0  0.976068  0  0  0.295213  0  0.970753  0  0  0.309634  0.282689  0  0.980008  0
H  H13  1  0.22060402  0.11309916  0.50288988  1  0  0.305646  0  0.912531  0  0  0.287886  0  0.97611  0  0  0.295186  0  0.970793  0  0  0.309612  0.28266  0  0.980049  0
H  H14  1  0.27939570  0.88689968  0.00288988  1  0  0.305627  0  0.912558  0  0  0.287894  0  0.97609  0  0  0.295194  0  0.970776  0  0  0.309616  0.282669  0  0.980029  0
H  H15  1  0.77939511  0.88689995  0.49711003  1  0  0.305661  0  0.912473  0  0  0.287877  0  0.976087  0  0  0.295176  0  0.970774  0  0  0.309606  0.282653  0  0.980027  0
H  H16  1  0.77792589  0.60869155  0.07585414  1  0  0.081806  0  0.952588  0  0  0.094836  0  1.009356  0  0  0.096507  0  1.007802  0  0  0.11453  0.093328  0  1.011381  0
H  H17  1  0.27792999  0.60869064  0.42414664  1  0  0.081796  0  0.952551  0  0  0.094835  0  1.009312  0  0  0.096506  0  1.007757  0  0  0.11453  0.093326  0  1.011339  0
H  H18  1  0.22207213  0.39130859  0.92414577  1  0  0.081799  0  0.95257  0  0  0.094836  0  1.009334  0  0  0.096508  0  1.007781  0  0  0.114528  0.093329  0  1.01136  0
H  H19  1  0.72207916  0.39130952  0.57585380  1  0  0.081767  0  0.952635  0  0  0.094834  0  1.009355  0  0  0.096506  0  1.007801  0  0  0.114534  0.093326  0  1.011381  0
H  H20  1  0.67870219  0.53546537  0.95316303  1  0  0.11431  0  0.96422  0  0  0.119398  0  1.030388  0  0  0.122837  0  1.029881  0  0  0.103072  0.116758  0  1.031097  0
H  H21  1  0.17869990  0.53546389  0.54683738  1  0  0.114315  0  0.964228  0  0  0.119396  0  1.030403  0  0  0.122837  0  1.029893  0  0  0.103058  0.116755  0  1.031112  0
H  H22  1  0.32129862  0.46453477  0.04683688  1  0  0.114314  0  0.964232  0  0  0.119402  0  1.030397  0  0  0.122842  0  1.029889  0  0  0.103069  0.116761  0  1.031105  0
H  H23  1  0.82129812  0.46453625  0.45316201  1  0  0.11427  0  0.964214  0  0  0.119353  0  1.030398  0  0  0.122792  0  1.029895  0  0  0.103054  0.116717  0  1.031103  0
H  H24  1  0.61275706  0.71886864  0.86942714  1  0  0.088509  0  0.936616  0  0  0.102395  0  0.992907  0  0  0.104186  0  0.992213  0  0  0.105817  0.101153  0  0.993189  0
H  H25  1  0.11275485  0.71886578  0.63057352  1  0  0.088438  0  0.936625  0  0  0.102387  0  0.992858  0  0  0.10418  0  0.992161  0  0  0.105797  0.101144  0  0.99314  0
H  H26  1  0.38724264  0.28113255  0.13057330  1  0  0.08842  0  0.936624  0  0  0.102323  0  0.992898  0  0  0.104113  0  0.992206  0  0  0.105785  0.10108  0  0.99318  0
H  H27  1  0.88724011  0.28113332  0.36942692  1  0  0.088476  0  0.936626  0  0  0.102407  0  0.99287  0  0  0.104199  0  0.992175  0  0  0.105802  0.101165  0  0.993152  0
H  H28  1  0.65651702  0.96282859  0.91093090  1  0  0.111043  0  0.987784  0  0  0.117163  0  1.05782  0  0  0.120631  0  1.056459  0  0  0.093162  0.114541  0  1.059161  0
H  H29  1  0.15651352  0.96282693  0.58906896  1  0  0.111112  0  0.987793  0  0  0.11722  0  1.057823  0  0  0.120688  0  1.056469  0  0  0.093192  0.114597  0  1.059163  0
H  H30  1  0.34348211  0.03717052  0.08906954  1  0  0.111043  0  0.987808  0  0  0.117199  0  1.057809  0  0  0.120674  0  1.056428  0  0  0.093168  0.114576  0  1.059151  0
H  H31  1  0.84348618  0.03717425  0.41093148  1  0  0.111079  0  0.987798  0  0  0.117198  0  1.057822  0  0  0.120664  0  1.056474  0  0  0.093173  0.114576  0  1.059162  0
H  H32  1  0.77346063  0.31474584  0.04680931  1  0  0.130794  0  0.960561  0  0  0.140932  0  1.016477  0  0  0.144822  0  1.015371  0  0  0.111497  0.137654  0  1.018585  0
H  H33  1  0.27345958  0.31474584  0.45319130  1  0  0.130797  0  0.960537  0  0  0.140956  0  1.016425  0  0  0.144847  0  1.015315  0  0  0.111494  0.137678  0  1.018534  0
H  H34  1  0.22654156  0.68525431  0.95319165  1  0  0.130789  0  0.960511  0  0  0.140942  0  1.016414  0  0  0.144836  0  1.015296  0  0  0.111496  0.137664  0  1.018525  0
H  H35  1  0.72653787  0.68525222  0.54680861  1  0  0.130767  0  0.960562  0  0  0.14089  0  1.016501  0  0  0.14478  0  1.015391  0  0  0.111468  0.137611  0  1.01861  0
H  H36  1  0.91712053  0.46662369  0.14641842  1  0  0.105836  0  0.956805  0  0  0.114862  0  1.01845  0  0  0.11779  0  1.015325  0  0  0.105707  0.11272  0  1.020715  0
H  H37  1  0.41711626  0.46662409  0.35358212  1  0  0.105833  0  0.956841  0  0  0.114856  0  1.018483  0  0  0.117784  0  1.015361  0  0  0.105701  0.112713  0  1.020748  0
H  H38  1  0.08288473  0.53337750  0.85358202  1  0  0.105834  0  0.95684  0  0  0.114863  0  1.018476  0  0  0.11779  0  1.015358  0  0  0.105706  0.11272  0  1.02074  0
H  H39  1  0.58288008  0.53337502  0.64641832  1  0  0.105826  0  0.956841  0  0  0.114849  0  1.018484  0  0  0.117774  0  1.015371  0  0  0.105693  0.112706  0  1.020751  0
H  H40  1  0.06924927  0.35837870  0.24622373  1  0  0.102554  0  0.972028  0  0  0.112358  0  1.034339  0  0  0.115593  0  1.033673  0  0  0.102729  0.110038  0  1.034933  0
H  H41  1  0.56924902  0.35837994  0.25377667  1  0  0.102552  0  0.972017  0  0  0.112354  0  1.034335  0  0  0.115589  0  1.033669  0  0  0.102722  0.110035  0  1.03493  0
H  H42  1  0.93075124  0.64162041  0.75377724  1  0  0.102574  0  0.972014  0  0  0.112373  0  1.034326  0  0  0.115608  0  1.03366  0  0  0.102735  0.110052  0  1.034923  0
H  H43  1  0.43075011  0.64161917  0.74622271  1  0  0.102544  0  0.972003  0  0  0.11234  0  1.03433  0  0  0.115577  0  1.033663  0  0  0.10271  0.110021  0  1.034925  0
H  H44  1  0.05113988  0.10457517  0.24378158  1  0  0.072056  0  0.975117  0  0  0.084884  0  1.036854  0  0  0.086247  0  1.035737  0  0  0.097702  0.083962  0  1.03749  0
H  H45  1  0.55113935  0.10457537  0.25621913  1  0  0.072073  0  0.97508  0  0  0.084904  0  1.036814  0  0  0.086266  0  1.035699  0  0  0.097732  0.083981  0  1.037451  0
H  H46  1  0.94886093  0.89542497  0.75621939  1  0  0.072071  0  0.975101  0  0  0.084901  0  1.036841  0  0  0.086263  0  1.035726  0  0  0.097726  0.083981  0  1.037475  0
H  H47  1  0.44886117  0.89542374  0.74377974  1  0  0.072073  0  0.975084  0  0  0.084896  0  1.036823  0  0  0.086258  0  1.035708  0  0  0.097723  0.083974  0  1.037458  0
C  C48  1  0.74977210  0.68324316  0.03707821  1  0  0.14724  0  3.707273  0  0  0.114622  0  3.958399  0  0  0.123469  0  3.976239  0  0  0.038134  0.108334  0  3.946969  0
C  C49  1  0.24977526  0.68324313  0.46292245  1  0  0.147327  0  3.707221  0  0  0.114709  0  3.958339  0  0  0.123557  0  3.976178  0  0  0.03818  0.108425  0  3.946911  0
C  C50  1  0.25022732  0.31675698  0.96292223  1  0  0.147308  0  3.70722  0  0  0.114671  0  3.958342  0  0  0.123518  0  3.97618  0  0  0.038165  0.108387  0  3.946914  0
C  C51  1  0.75022972  0.31675702  0.53707798  1  0  0.147299  0  3.707355  0  0  0.114679  0  3.958462  0  0  0.123528  0  3.976294  0  0  0.03816  0.108394  0  3.947037  0
C  C52  1  0.69370980  0.64307738  0.96944708  1  0  -0.147169  0  3.747664  0  0  -0.160856  0  4.004939  0  0  -0.169866  0  4.026812  0  0  -0.096397  -0.154109  0  3.989427  0
C  C53  1  0.19370912  0.64307700  0.53055320  1  0  -0.147256  0  3.747799  0  0  -0.160943  0  4.005097  0  0  -0.169953  0  4.026968  0  0  -0.096417  -0.154197  0  3.989584  0
C  C54  1  0.30628990  0.35692380  0.03055283  1  0  -0.147239  0  3.747747  0  0  -0.160931  0  4.005034  0  0  -0.16994  0  4.026906  0  0  -0.096422  -0.154186  0  3.989521  0
C  C55  1  0.80628891  0.35692315  0.46944776  1  0  -0.147165  0  3.747764  0  0  -0.160882  0  4.005103  0  0  -0.169892  0  4.026975  0  0  -0.096404  -0.15414  0  3.989588  0
C  C56  1  0.65750684  0.74536024  0.92327543  1  0  0.02277  0  3.741497  0  0  0.003632  0  3.992298  0  0  0.009681  0  4.010442  0  0  -0.068355  0.000313  0  3.978413  0
C  C57  1  0.15750550  0.74535656  0.57672418  1  0  0.022829  0  3.741392  0  0  0.003634  0  3.992193  0  0  0.009681  0  4.010336  0  0  -0.068353  0.000316  0  3.978307  0
C  C58  1  0.34249314  0.25464198  0.07672344  1  0  0.02291  0  3.741466  0  0  0.00377  0  3.992273  0  0  0.009818  0  4.010415  0  0  -0.068297  0.000452  0  3.978387  0
C  C59  1  0.84249334  0.25464151  0.42327626  1  0  0.022838  0  3.741386  0  0  0.003666  0  3.992184  0  0  0.009716  0  4.010323  0  0  -0.068312  0.000349  0  3.978299  0
C  C60  1  0.68137045  0.88112795  0.94623351  1  0  -0.213119  0  3.681279  0  0  -0.231948  0  3.93968  0  0  -0.24183  0  3.958485  0  0  -0.098315  -0.224691  0  3.926242  0
C  C61  1  0.18137212  0.88113059  0.55376700  1  0  -0.213064  0  3.681222  0  0  -0.23189  0  3.939613  0  0  -0.241772  0  3.958411  0  0  -0.098254  -0.224635  0  3.926177  0
C  C62  1  0.31862925  0.11887323  0.05376588  1  0  -0.213161  0  3.681285  0  0  -0.232021  0  3.939698  0  0  -0.241904  0  3.958518  0  0  -0.098336  -0.224759  0  3.926253  0
C  C63  1  0.81862729  0.11886956  0.44623449  1  0  -0.213115  0  3.681315  0  0  -0.231919  0  3.939703  0  0  -0.241801  0  3.958502  0  0  -0.098272  -0.224662  0  3.926264  0
C  C64  1  0.73908540  0.91387070  0.01617091  1  0  0.430572  0  3.757523  0  0  0.399565  0  4.021661  0  0  0.418816  0  4.034992  0  0  0.226833  0.386541  0  4.012453  0
C  C65  1  0.23908640  0.91386747  0.48382998  1  0  0.430462  0  3.757713  0  0  0.399493  0  4.021789  0  0  0.418743  0  4.03512  0  0  0.226769  0.38647  0  4.012579  0
C  C66  1  0.26091569  0.08613049  0.98382900  1  0  0.430621  0  3.757574  0  0  0.399572  0  4.021752  0  0  0.418822  0  4.035084  0  0  0.226853  0.386549  0  4.012545  0
C  C67  1  0.76091579  0.08613268  0.51617045  1  0  0.430529  0  3.757632  0  0  0.399487  0  4.021804  0  0  0.418737  0  4.035134  0  0  0.226772  0.386466  0  4.012594  0
C  C68  1  0.83506319  0.12866373  0.09372370  1  0  0.431027  0  3.773689  0  0  0.399504  0  4.037734  0  0  0.418732  0  4.05262  0  0  0.228259  0.386565  0  4.027228  0
C  C69  1  0.33506304  0.12866289  0.40627667  1  0  0.431059  0  3.773678  0  0  0.399517  0  4.037748  0  0  0.418747  0  4.052635  0  0  0.228245  0.386577  0  4.027239  0
C  C70  1  0.16493761  0.87133641  0.90627673  1  0  0.431081  0  3.77368  0  0  0.399527  0  4.037769  0  0  0.418759  0  4.052657  0  0  0.228219  0.386588  0  4.02726  0
C  C71  1  0.66493690  0.87133415  0.59372325  1  0  0.430955  0  3.773729  0  0  0.399426  0  4.037775  0  0  0.418653  0  4.052664  0  0  0.228222  0.386488  0  4.027266  0
C  C72  1  0.83539287  0.27255626  0.09197304  1  0  -0.22166  0  3.683512  0  0  -0.235554  0  3.932851  0  0  -0.246478  0  3.952522  0  0  -0.091641  -0.228763  0  3.920777  0
C  C73  1  0.33539162  0.27255644  0.40802821  1  0  -0.221684  0  3.683441  0  0  -0.235596  0  3.932776  0  0  -0.246519  0  3.952442  0  0  -0.091641  -0.228805  0  3.920699  0
C  C74  1  0.16460764  0.72744285  0.90802845  1  0  -0.221663  0  3.683426  0  0  -0.235564  0  3.932755  0  0  -0.246489  0  3.952427  0  0  -0.091625  -0.228771  0  3.920678  0
C  C75  1  0.66461139  0.72744164  0.59197276  1  0  -0.221605  0  3.683481  0  0  -0.235487  0  3.932816  0  0  -0.246408  0  3.952486  0  0  -0.09162  -0.228696  0  3.920739  0
C  C76  1  0.91655957  0.35598784  0.14676461  1  0  0.021773  0  3.729165  0  0  0.001061  0  3.982032  0  0  0.008155  0  3.997664  0  0  -0.069291  -0.002998  0  3.971034  0
C  C77  1  0.41656086  0.35598825  0.35323607  1  0  0.021784  0  3.729221  0  0  0.001084  0  3.982075  0  0  0.008177  0  3.997708  0  0  -0.069261  -0.002973  0  3.971076  0
C  C78  1  0.08344124  0.64401230  0.85323583  1  0  0.021817  0  3.729224  0  0  0.001103  0  3.982088  0  0  0.008196  0  3.997722  0  0  -0.069241  -0.002955  0  3.971091  0
C  C79  1  0.58344104  0.64401086  0.64676385  1  0  0.021791  0  3.729222  0  0  0.001081  0  3.982078  0  0  0.008172  0  3.997708  0  0  -0.069248  -0.002978  0  3.971082  0
C  C80  1  0.99946707  0.29679104  0.20264506  1  0  -0.151722  0  3.767445  0  0  -0.167133  0  4.023955  0  0  -0.17614  0  4.046256  0  0  -0.10342  -0.161567  0  4.008883  0
C  C81  1  0.49946477  0.29678959  0.29735470  1  0  -0.15174  0  3.767482  0  0  -0.167149  0  4.023983  0  0  -0.176155  0  4.046287  0  0  -0.103434  -0.161584  0  4.008913  0
C  C82  1  0.00053484  0.70320807  0.79735485  1  0  -0.151744  0  3.767512  0  0  -0.16714  0  4.024011  0  0  -0.176148  0  4.046314  0  0  -0.103437  -0.161575  0  4.008941  0
C  C83  1  0.50053407  0.70320848  0.70264416  1  0  -0.151712  0  3.767546  0  0  -0.167115  0  4.024043  0  0  -0.176121  0  4.046346  0  0  -0.10341  -0.161551  0  4.008972  0
C  C84  1  0.99078499  0.15552681  0.20106002  1  0  0.119843  0  3.778316  0  0  0.092065  0  4.028377  0  0  0.099096  0  4.049619  0  0  0.029769  0.087665  0  4.013605  0
C  C85  1  0.49078298  0.15552639  0.29894044  1  0  0.119878  0  3.778269  0  0  0.092101  0  4.028326  0  0  0.099133  0  4.049569  0  0  0.029756  0.0877  0  4.013555  0
C  C86  1  0.00921553  0.84447230  0.79894042  1  0  0.11982  0  3.778278  0  0  0.092031  0  4.028344  0  0  0.099065  0  4.049587  0  0  0.029726  0.087631  0  4.01357  0
C  C87  1  0.50921586  0.84447168  0.70105895  1  0  0.119826  0  3.778347  0  0  0.092052  0  4.028398  0  0  0.099082  0  4.049641  0  0  0.02975  0.087653  0  4.013624  0
S  S88  1  0.43822989  0.88612704  0.19307591  1  0  -0.582689  0  2.022495  0  0  -0.540879  0  2.414676  0  0  -0.557079  0  2.393082  0  0  -0.215408  -0.530022  0  2.429559  0
S  S89  1  0.93822512  0.88612599  0.30692465  1  0  -0.582705  0  2.022506  0  0  -0.540885  0  2.41467  0  0  -0.557083  0  2.393076  0  0  -0.215412  -0.530027  0  2.429551  0
S  S90  1  0.56177398  0.11387415  0.80692190  1  0  -0.582739  0  2.022551  0  0  -0.540882  0  2.414649  0  0  -0.557079  0  2.393054  0  0  -0.215429  -0.530027  0  2.429532  0
S  S91  1  0.06177093  0.11387207  0.69307421  1  0  -0.582658  0  2.022504  0  0  -0.540833  0  2.414654  0  0  -0.557028  0  2.393062  0  0  -0.215411  -0.529977  0  2.429535  0
S  S92  1  0.27035665  0.72131287  0.13928071  1  0  1.314096  0  5.653888  0  0  1.216069  0  6.196334  0  0  1.266055  0  6.17263  0  0  0.495442  1.181613  0  6.211934  0
S  S93  1  0.77035379  0.72131264  0.36071940  1  0  1.314132  0  5.653968  0  0  1.216129  0  6.196379  0  0  1.266116  0  6.172672  0  0  0.495471  1.181671  0  6.211984  0
S  S94  1  0.72964277  0.27868727  0.86071763  1  0  1.314138  0  5.6539  0  0  1.216114  0  6.196338  0  0  1.2661  0  6.172632  0  0  0.495495  1.181659  0  6.21194  0
S  S95  1  0.22964505  0.27868543  0.63928051  1  0  1.313908  0  5.6541  0  0  1.215892  0  6.196559  0  0  1.265876  0  6.172851  0  0  0.495383  1.181435  0  6.212162  0
N  N96  1  0.77124707  0.81509093  0.06076268  1  0  -0.413539  0  3.207021  0  0  -0.340101  0  3.473404  0  0  -0.362044  0  3.488963  0  0  -0.34799  -0.325416  0  3.463005  0
N  N97  1  0.27125124  0.81508996  0.43923836  1  0  -0.413495  0  3.206993  0  0  -0.340098  0  3.473417  0  0  -0.362038  0  3.48897  0  0  -0.347997  -0.325421  0  3.46303  0
N  N98  1  0.22875373  0.18490921  0.93923775  1  0  -0.413519  0  3.207004  0  0  -0.340053  0  3.473403  0  0  -0.361992  0  3.488959  0  0  -0.347973  -0.325377  0  3.463016  0
N  N99  1  0.72875263  0.18491123  0.56076261  1  0  -0.413551  0  3.20699  0  0  -0.340105  0  3.473369  0  0  -0.362042  0  3.488919  0  0  -0.348017  -0.325429  0  3.462982  0
N  N100  1  0.90762062  0.07112981  0.14898019  1  0  -0.442173  0  3.223051  0  0  -0.369228  0  3.488184  0  0  -0.391905  0  3.505767  0  0  -0.350512  -0.353625  0  3.475725  0
N  N101  1  0.40762051  0.07113022  0.35102031  1  0  -0.442215  0  3.223035  0  0  -0.369266  0  3.488167  0  0  -0.391939  0  3.505738  0  0  -0.35052  -0.353662  0  3.475708  0
N  N102  1  0.09238018  0.92887034  0.85101973  1  0  -0.442206  0  3.223012  0  0  -0.369264  0  3.48818  0  0  -0.391934  0  3.50574  0  0  -0.350512  -0.353662  0  3.47572  0
N  N103  1  0.59237833  0.92886785  0.64897960  1  0  -0.442159  0  3.223033  0  0  -0.369205  0  3.488148  0  0  -0.391879  0  3.505729  0  0  -0.350506  -0.353604  0  3.47569  0
N  N104  1  0.75774425  0.05155469  0.03622144  1  0  -0.45476  0  3.312257  0  0  -0.397611  0  3.55323  0  0  -0.419985  0  3.562064  0  0  -0.392484  -0.381891  0  3.546668  0
N  N105  1  0.25774435  0.05155362  0.46377949  1  0  -0.454751  0  3.312395  0  0  -0.397618  0  3.553324  0  0  -0.419994  0  3.562159  0  0  -0.392471  -0.381904  0  3.546784  0
N  N106  1  0.24225823  0.94844649  0.96377900  1  0  -0.454763  0  3.312395  0  0  -0.397617  0  3.553335  0  0  -0.420001  0  3.562182  0  0  -0.392467  -0.381896  0  3.546771  0
N  N107  1  0.74225616  0.94844549  0.53622094  1  0  -0.454703  0  3.312238  0  0  -0.397539  0  3.553216  0  0  -0.419916  0  3.562058  0  0  -0.392442  -0.381816  0  3.546645  0
O  O108  1  0.07215142  0.72624740  0.15443025  1  0  -0.670853  0  2.079006  0  0  -0.611514  0  2.362342  0  0  -0.635681  0  2.347577  0  0  -0.344766  -0.59429  0  2.371761  0
O  O109  1  0.57214903  0.72624412  0.34556970  1  0  -0.670865  0  2.079141  0  0  -0.61152  0  2.362453  0  0  -0.635689  0  2.34769  0  0  -0.34475  -0.594284  0  2.371852  0
O  O110  1  0.92784832  0.27375897  0.84556967  1  0  -0.670893  0  2.079102  0  0  -0.611533  0  2.362416  0  0  -0.635703  0  2.347658  0  0  -0.344763  -0.594298  0  2.371813  0
O  O111  1  0.42785092  0.27375291  0.65443074  1  0  -0.670769  0  2.079091  0  0  -0.611443  0  2.362431  0  0  -0.63561  0  2.34767  0  0  -0.344727  -0.594202  0  2.371815  0
O  O112  1  0.32331041  0.74214972  0.06522120  1  0  -0.636256  0  1.985205  0  0  -0.582456  0  2.233421  0  0  -0.60367  0  2.222096  0  0  -0.325231  -0.567669  0  2.241595  0
O  O113  1  0.82331037  0.74214817  0.43477945  1  0  -0.636318  0  1.985186  0  0  -0.582514  0  2.233407  0  0  -0.603724  0  2.222075  0  0  -0.325271  -0.567731  0  2.241587  0
O  O114  1  0.67668900  0.25785042  0.93477766  1  0  -0.636267  0  1.985124  0  0  -0.582461  0  2.233344  0  0  -0.603673  0  2.222019  0  0  -0.325247  -0.567676  0  2.241521  0
O  O115  1  0.17669403  0.25784991  0.56522046  1  0  -0.636265  0  1.985311  0  0  -0.582443  0  2.233488  0  0  -0.603675  0  2.22221  0  0  -0.325233  -0.567659  0  2.241662  0
O  O116  1  0.31426183  0.59041073  0.16814513  1  0  -0.679281  0  1.997664  0  0  -0.606602  0  2.227428  0  0  -0.63065  0  2.215234  0  0  -0.33078  -0.590079  0  2.23572  0
O  O117  1  0.81425913  0.59041166  0.33185517  1  0  -0.679283  0  1.997708  0  0  -0.606619  0  2.227486  0  0  -0.630666  0  2.215292  0  0  -0.330784  -0.590093  0  2.235779  0
O  O118  1  0.68574037  0.40958942  0.83185425  1  0  -0.679326  0  1.99776  0  0  -0.606657  0  2.227549  0  0  -0.630702  0  2.215352  0  0  -0.330815  -0.590132  0  2.235843  0
O  O119  1  0.18573861  0.40958745  0.66814474  1  0  -0.679227  0  1.997698  0  0  -0.606564  0  2.227471  0  0  -0.630608  0  2.21528  0  0  -0.33078  -0.590039  0  2.235762  0
O  O120  1  0.67935176  0.59588760  0.19606997  1  0  -0.811612  0  1.906951  0  0  -0.749073  0  2.101329  0  0  -0.771224  0  2.070493  0  0  -0.583541  -0.733362  0  2.122223  0
O  O121  1  0.17934564  0.59589234  0.30392759  1  0  -0.811656  0  1.906957  0  0  -0.74914  0  2.101312  0  0  -0.771286  0  2.070477  0  0  -0.583591  -0.733432  0  2.122214  0
O  O122  1  0.32065068  0.40410840  0.80392837  1  0  -0.811696  0  1.906909  0  0  -0.749158  0  2.101248  0  0  -0.771307  0  2.070414  0  0  -0.583583  -0.73345  0  2.12215  0
O  O123  1  0.82064686  0.40411298  0.69606969  1  0  -0.811646  0  1.906936  0  0  -0.749112  0  2.101321  0  0  -0.77126  0  2.070486  0  0  -0.583574  -0.7334  0  2.122215  0
