# generated using pymatgen
data_ZnH20C27(N2O3)2
_symmetry_space_group_name_H-M   'P 1'
_cell_length_a   14.36798710
_cell_length_b   14.41668691
_cell_length_c   17.48845188
_cell_angle_alpha   109.62739971
_cell_angle_beta   109.56599879
_cell_angle_gamma   100.63544469
_symmetry_Int_Tables_number   1
_chemical_formula_structural   ZnH20C27(N2O3)2
_chemical_formula_sum   'Zn4 H80 C108 N16 O24'
_cell_volume   3029.60181450
_cell_formula_units_Z   4
loop_
 _symmetry_equiv_pos_site_id
 _symmetry_equiv_pos_as_xyz
  1  'x, y, z'
loop_
 _atom_site_type_symbol
 _atom_site_label
 _atom_site_symmetry_multiplicity
 _atom_site_fract_x
 _atom_site_fract_y
 _atom_site_fract_z
 _atom_site_occupancy
 _atom_site_pbe_bader_charge
 _atom_site_pbe_bader_spin_density
 _atom_site_pbe_cm5_charge
 _atom_site_pbe_ddec_charge
 _atom_site_pbe_ddec_spin_density
 _atom_site_pbe_ddec_sum_bond_order
 _atom_site_pbe_magmom
Zn  Zn0  1  0.81047057  0.86896795  0.63468673  1  1.246235  0  0.698273  0.753661  0  2.419177  0
Zn  Zn1  1  0.32340344  0.76592537  0.63460087  1  1.24609  0  0.697655  0.753808  0  2.418226  0
Zn  Zn2  1  0.18952546  0.13103589  0.36531951  1  1.246314  0  0.69826  0.753581  0  2.41915  0
Zn  Zn3  1  0.67659452  0.23406973  0.36539658  1  1.246043  0  0.697615  0.753788  0  2.418425  0
H  H4  1  0.57268623  0.04017745  0.76645454  1  0.546965  0  0.30347  0.288481  0  0.997808  0
H  H5  1  0.69306667  0.72632157  0.76665761  1  0.529468  0  0.303222  0.287676  0  0.997918  0
H  H6  1  0.42731230  0.95982947  0.23354978  1  0.546855  0  0.30344  0.28855  0  0.997676  0
H  H7  1  0.30693387  0.27368059  0.23334591  1  0.529458  0  0.303237  0.287678  0  0.997894  0
H  H8  1  0.26626126  0.99453703  0.67536572  1  0.529082  0  0.308392  0.289318  0  1.001343  0
H  H9  1  0.90838343  0.68074402  0.67537342  1  0.505267  0  0.30846  0.290373  0  1.001945  0
H  H10  1  0.73373176  0.00546056  0.32463513  1  0.529023  0  0.308424  0.289344  0  1.001306  0
H  H11  1  0.09161097  0.31925982  0.32462495  1  0.505395  0  0.308425  0.29038  0  1.00197  0
H  H12  1  0.86673377  0.06563337  0.61284728  1  0.072099  0  0.109346  0.07256  0  1.034602  0
H  H13  1  0.24534497  0.54740097  0.61265750  1  0.074125  0  0.108977  0.071378  0  1.035982  0
H  H14  1  0.13327463  0.93437811  0.38716719  1  0.07202  0  0.109268  0.072499  0  1.034732  0
H  H15  1  0.75465368  0.45258943  0.38734512  1  0.074062  0  0.10894  0.07133  0  1.036196  0
H  H16  1  0.82785411  0.23414194  0.65388458  1  0.069409  0  0.110689  0.112983  0  0.981962  0
H  H17  1  0.32519798  0.41965270  0.65332818  1  0.031835  0  0.110037  0.11192  0  0.983248  0
H  H18  1  0.17215103  0.76586880  0.34612654  1  0.069535  0  0.110662  0.112931  0  0.982101  0
H  H19  1  0.67480687  0.58034071  0.34667518  1  0.031991  0  0.109992  0.111892  0  0.983339  0
H  H20  1  0.70791805  0.25775873  0.72946116  1  0.145471  0  0.122529  0.138614  0  0.9758  0
H  H21  1  0.52071427  0.47156681  0.72911923  1  0.139366  0  0.122188  0.138698  0  0.977679  0
H  H22  1  0.29206963  0.74224287  0.27053427  1  0.145651  0  0.122453  0.138482  0  0.975856  0
H  H23  1  0.47929196  0.52843051  0.27088559  1  0.139554  0  0.122204  0.138749  0  0.977683  0
H  H24  1  0.66931548  0.94427000  0.70832459  1  0.152178  0  0.127351  0.120441  0  0.991866  0
H  H25  1  0.53831191  0.76425148  0.70855062  1  0.153315  0  0.127531  0.120662  0  0.992398  0
H  H26  1  0.33067526  0.05573391  0.29167342  1  0.152116  0  0.127345  0.120443  0  0.991783  0
H  H27  1  0.46168504  0.23574052  0.29144970  1  0.153202  0  0.12752  0.120636  0  0.992317  0
H  H28  1  0.65047216  0.29659554  0.00144303  1  0.108161  0  0.111342  0.117339  0  0.986321  0
H  H29  1  0.85015724  0.70434958  0.00125905  1  0.08561  0  0.111634  0.117587  0  0.987509  0
H  H30  1  0.34952754  0.70340032  0.99855509  1  0.107845  0  0.111354  0.117352  0  0.986349  0
H  H31  1  0.14984601  0.29564779  0.99874271  1  0.085515  0  0.11162  0.11877  0  0.986087  0
H  H32  1  0.61046844  0.35377411  0.12878850  1  0.040114  0  0.090001  0.126564  0  0.997852  0
H  H33  1  0.01747431  0.77472514  0.12869566  1  0.020003  0  0.090207  0.126928  0  0.997832  0
H  H34  1  0.38952962  0.64622102  0.87121299  1  0.040119  0  0.090025  0.126552  0  0.997903  0
H  H35  1  0.98254023  0.22526883  0.87130526  1  0.020599  0  0.090106  0.12681  0  0.99784  0
H  H36  1  0.51868091  0.24863368  0.12400954  1  0.034743  0  0.088227  0.128063  0  1.018593  0
H  H37  1  0.10440937  0.87520195  0.12397882  1  0.049992  0  0.088481  0.129099  0  1.016871  0
H  H38  1  0.48131244  0.75136075  0.87598938  1  0.034863  0  0.088232  0.128033  0  1.018549  0
H  H39  1  0.89560112  0.12478896  0.87601960  1  0.049893  0  0.08848  0.129077  0  1.016856  0
H  H40  1  0.47916515  0.35192357  0.10615943  1  0.073789  0  0.090998  0.135586  0  1.013629  0
H  H41  1  0.12624125  0.75416106  0.10614178  1  0.05702  0  0.091227  0.135937  0  1.014796  0
H  H42  1  0.52082985  0.64807159  0.89383612  1  0.073562  0  0.090998  0.135569  0  1.013734  0
H  H43  1  0.87376451  0.24583148  0.89384957  1  0.057282  0  0.09121  0.13591  0  1.014755  0
H  H44  1  0.33112533  0.18071203  0.96223369  1  0.076872  0  0.108769  0.117161  0  0.99472  0
H  H45  1  0.13037073  0.78139065  0.96224616  1  0.072174  0  0.109047  0.117234  0  0.995151  0
H  H46  1  0.66887474  0.81928697  0.03776482  1  0.076889  0  0.108743  0.117069  0  0.994768  0
H  H47  1  0.86963143  0.21860593  0.03775167  1  0.072198  0  0.109074  0.117256  0  0.995072  0
H  H48  1  0.41153526  0.08543764  0.73791590  1  0.09263  0  0.101967  0.103101  0  1.05646  0
H  H49  1  0.82566859  0.65228917  0.73778662  1  0.062223  0  0.102275  0.103296  0  1.055837  0
H  H50  1  0.58846488  0.91454879  0.26208314  1  0.092666  0  0.101938  0.102956  0  1.056577  0
H  H51  1  0.17433434  0.34772000  0.26221548  1  0.062218  0  0.102226  0.103255  0  1.055798  0
H  H52  1  0.03029069  0.96773028  0.72264335  1  0.214534  0  0.125033  0.123714  0  1.047368  0
H  H53  1  0.19150280  0.75505039  0.72254013  1  0.231042  0  0.124936  0.123398  0  1.04642  0
H  H54  1  0.96969986  0.03227683  0.27736293  1  0.214404  0  0.125032  0.123736  0  1.047292  0
H  H55  1  0.80848839  0.24494643  0.27745659  1  0.230845  0  0.124915  0.123483  0  1.04644  0
H  H56  1  0.82245701  0.81121063  0.45216903  1  0.065283  0  0.119488  0.091596  0  0.979458  0
H  H57  1  0.12867421  0.64092632  0.45201273  1  0.095279  0  0.119058  0.090797  0  0.980134  0
H  H58  1  0.17753977  0.18879554  0.54783463  1  0.065309  0  0.119507  0.091609  0  0.979457  0
H  H59  1  0.87132129  0.35906806  0.54798445  1  0.095127  0  0.119096  0.09083  0  0.980172  0
H  H60  1  0.97018663  0.82926170  0.40539064  1  0.074681  0  0.111873  0.116922  0  0.980913  0
H  H61  1  0.93421357  0.57579608  0.40531007  1  0.076326  0  0.111842  0.117185  0  0.980162  0
H  H62  1  0.02981139  0.17074367  0.59461540  1  0.074648  0  0.111902  0.116925  0  0.980982  0
H  H63  1  0.06578027  0.42420853  0.59468438  1  0.076224  0  0.111871  0.117202  0  0.980258  0
H  H64  1  0.15553318  0.92153829  0.52558538  1  0.119944  0  0.110105  0.124114  0  1.032876  0
H  H65  1  0.86919411  0.60358502  0.52559910  1  0.097904  0  0.109673  0.123193  0  1.032506  0
H  H66  1  0.84446569  0.07846079  0.47442428  1  0.120117  0  0.110072  0.124012  0  1.032832  0
H  H67  1  0.13079853  0.39642040  0.47439468  1  0.098037  0  0.109655  0.123056  0  1.032548  0
H  H68  1  0.48940874  0.66874633  0.49590206  1  0.080138  0  0.104823  0.11344  0  1.015236  0
H  H69  1  0.50616621  0.82708451  0.49588140  1  0.087589  0  0.104767  0.1131  0  1.016167  0
H  H70  1  0.51059672  0.33125729  0.50410202  1  0.080132  0  0.104868  0.113512  0  1.015249  0
H  H71  1  0.49383093  0.17291455  0.50411694  1  0.087684  0  0.104757  0.113077  0  1.016116  0
H  H72  1  0.32554012  0.52066597  0.44134508  1  0.068932  0  0.101698  0.104354  0  0.999836  0
H  H73  1  0.61586443  0.92060493  0.44159223  1  0.075646  0  0.101615  0.104983  0  0.998894  0
H  H74  1  0.67446312  0.47933536  0.55866121  1  0.068853  0  0.101675  0.10432  0  0.999865  0
H  H75  1  0.38413431  0.07939646  0.55840832  1  0.075584  0  0.10161  0.105016  0  0.99884  0
H  H76  1  0.19159896  0.07943670  0.05068769  1  0.053119  0  0.103007  0.106299  0  0.998775  0
H  H77  1  0.35952724  0.97178410  0.05122363  1  0.097071  0  0.103441  0.107154  0  1.000027  0
H  H78  1  0.80839694  0.92056478  0.94931614  1  0.053169  0  0.102978  0.106307  0  0.99863  0
H  H79  1  0.64049635  0.02821911  0.94877651  1  0.096788  0  0.103418  0.107164  0  1.000103  0
H  H80  1  0.07081983  0.98986612  0.88676928  1  0.088914  0  0.104482  0.11688  0  1.014211  0
H  H81  1  0.31569884  0.89723278  0.88715079  1  0.099936  0  0.104439  0.116867  0  1.012968  0
H  H82  1  0.92918015  0.01014472  0.11323937  1  0.088789  0  0.10446  0.116863  0  1.013998  0
H  H83  1  0.68432306  0.10277598  0.11285217  1  0.099809  0  0.104414  0.116763  0  1.013034  0
C  C84  1  0.81293252  0.07880542  0.64362442  1  0.432815  0  0.030592  0.04863  0  3.998726  0
C  C85  1  0.32989515  0.56488478  0.64337645  1  0.453227  0  0.031386  0.051371  0  4.000332  0
C  C86  1  0.18706986  0.92120380  0.35638556  1  0.432631  0  0.030711  0.048698  0  3.999023  0
C  C87  1  0.67010735  0.43511027  0.35662847  1  0.452578  0  0.031306  0.051323  0  4.000794  0
C  C88  1  0.79185745  0.17197037  0.66767703  1  0.026001  0  -0.082861  -0.110612  0  4.023368  0
C  C89  1  0.37497491  0.49565756  0.66726864  1  0.058378  0  -0.081988  -0.108694  0  4.026564  0
C  C90  1  0.20814142  0.82803734  0.33233046  1  0.02624  0  -0.082881  -0.110633  0  4.023382  0
C  C91  1  0.62503153  0.50433819  0.33273693  1  0.058318  0  -0.081806  -0.108432  0  4.026523  0
C  C92  1  0.72448643  0.18510071  0.70888309  1  -0.006299  0  -0.05929  -0.112186  0  3.890721  0
C  C93  1  0.48355671  0.52366696  0.70855331  1  0.025826  0  -0.059232  -0.113634  0  3.893472  0
C  C94  1  0.27550845  0.81490233  0.29111633  1  -0.006443  0  -0.059199  -0.111891  0  3.890476  0
C  C95  1  0.51644994  0.47633351  0.29145421  1  0.0259  0  -0.059298  -0.113886  0  3.893345  0
C  C96  1  0.67888729  0.10286426  0.72512694  1  0.380388  0  0.117117  0.22316  0  4.018439  0
C  C97  1  0.54546688  0.62220885  0.72500576  1  0.368717  0  0.116007  0.221915  0  4.015992  0
C  C98  1  0.32110504  0.89714198  0.27487328  1  0.3802  0  0.117  0.222879  0  4.018583  0
C  C99  1  0.45453315  0.37779176  0.27499949  1  0.368485  0  0.116031  0.222093  0  4.015574  0
C  C100  1  0.70190731  0.01020116  0.69679473  1  0.516484  0  0.053193  0.001343  0  3.856336  0
C  C101  1  0.49414262  0.68669642  0.69680497  1  0.481235  0  0.053079  0.002038  0  3.854241  0
C  C102  1  0.29808807  0.98980110  0.30320690  1  0.516622  0  0.053135  0.001266  0  3.856278  0
C  C103  1  0.50586116  0.31330017  0.30320014  1  0.481638  0  0.053114  0.002074  0  3.854019  0
C  C104  1  0.61958882  0.20111060  0.83236566  1  1.382203  0  0.243354  0.483047  0  4.095888  0
C  C105  1  0.71202659  0.63069222  0.83206049  1  1.382333  0  0.245333  0.487317  0  4.094405  0
C  C106  1  0.38040213  0.79889408  0.16762976  1  1.382015  0  0.24334  0.482982  0  4.0962  0
C  C107  1  0.28796933  0.36930926  0.16794449  1  1.381905  0  0.245195  0.487072  0  4.094398  0
C  C108  1  0.53778680  0.19086821  0.86666068  1  -0.037275  0  -0.01492  -0.021974  0  4.016054  0
C  C109  1  0.82809626  0.67545218  0.86649758  1  -0.013121  0  -0.01652  -0.026064  0  4.021022  0
C  C110  1  0.46220996  0.80913400  0.13333729  1  -0.037248  0  -0.014902  -0.022031  0  4.016057  0
C  C111  1  0.17190688  0.32454913  0.13350410  1  -0.01346  0  -0.01655  -0.026081  0  4.021857  0
C  C112  1  0.56825250  0.24879684  0.95849542  1  -0.044221  0  -0.067681  -0.134858  0  3.88825  0
C  C113  1  0.88942138  0.70936633  0.95835164  1  -0.026249  0  -0.068197  -0.135143  0  3.890884  0
C  C114  1  0.43174723  0.75119902  0.04150385  1  -0.04396  0  -0.067687  -0.134847  0  3.888316  0
C  C115  1  0.11058875  0.29063798  0.04165386  1  -0.026179  0  -0.06813  -0.136042  0  3.890986  0
C  C116  1  0.49543889  0.24471096  0.99492922  1  0.036074  0  0.001071  0.184152  0  3.964618  0
C  C117  1  0.99866118  0.75004445  0.99486685  1  -0.004526  0  0.001295  0.183631  0  3.966359  0
C  C118  1  0.50455824  0.75528180  0.00506737  1  0.035709  0  0.001019  0.183981  0  3.964476  0
C  C119  1  0.00134862  0.24995278  0.00513488  1  -0.004651  0  0.001214  0.183397  0  3.966846  0
C  C120  1  0.52797984  0.30345349  0.09380861  1  -0.07943  0  -0.239176  -0.412136  0  3.949972  0
C  C121  1  0.06499183  0.79019140  0.09376149  1  -0.033969  0  -0.240167  -0.414232  0  3.950902  0
C  C122  1  0.47201611  0.69654008  0.90618846  1  -0.078963  0  -0.239206  -0.412013  0  3.949896  0
C  C123  1  0.93502005  0.20980341  0.90623897  1  -0.034558  0  -0.240015  -0.41405  0  3.95082  0
C  C124  1  0.39058652  0.18422218  0.93659350  1  -0.068358  0  -0.070844  -0.134627  0  3.883917  0
C  C125  1  0.04524119  0.75225248  0.93658148  1  -0.008722  0  -0.070405  -0.132572  0  3.885537  0
C  C126  1  0.60941107  0.81577374  0.06340751  1  -0.068484  0  -0.070793  -0.134394  0  3.883846  0
C  C127  1  0.95476549  0.24775267  0.06342049  1  -0.008558  0  -0.070393  -0.132483  0  3.885436  0
C  C128  1  0.35818484  0.12712840  0.84420994  1  0.04108  0  -0.019435  -0.034778  0  4.01275  0
C  C129  1  0.98530025  0.71694004  0.84417468  1  0.01995  0  -0.019369  -0.036199  0  4.013059  0
C  C130  1  0.64181530  0.87286431  0.15579027  1  0.041354  0  -0.019426  -0.034976  0  4.012667  0
C  C131  1  0.01470336  0.28306281  0.15582413  1  0.019991  0  -0.01936  -0.036179  0  4.0129  0
C  C132  1  0.43300692  0.12926923  0.80922205  1  -0.068192  0  -0.088092  -0.147141  0  3.954907  0
C  C133  1  0.87547787  0.67972864  0.80911201  1  -0.088951  0  -0.088008  -0.145365  0  3.955483  0
C  C134  1  0.56699238  0.87072115  0.19077730  1  -0.068497  0  -0.088064  -0.146818  0  3.95483  0
C  C135  1  0.12452650  0.32028049  0.19088932  1  -0.088901  0  -0.087915  -0.145384  0  3.9555  0
C  C136  1  0.24301714  0.06949687  0.78917505  1  1.384013  0  0.243926  0.484184  0  4.086095  0
C  C137  1  0.04550230  0.71957596  0.78916512  1  1.40663  0  0.245302  0.487652  0  4.084745  0
C  C138  1  0.75698625  0.93049424  0.21083187  1  1.384315  0  0.243971  0.484231  0  4.08616  0
C  C139  1  0.95449754  0.28043089  0.21083324  1  1.406783  0  0.245251  0.487654  0  4.084398  0
C  C140  1  0.10818898  0.95455849  0.63383660  1  0.397605  0  0.112924  0.225866  0  3.998325  0
C  C141  1  0.02484371  0.67911657  0.63379848  1  0.442754  0  0.112364  0.22527  0  4.001397  0
C  C142  1  0.89180835  0.04544061  0.36616980  1  0.396869  0  0.112911  0.225663  0  3.998335  0
C  C143  1  0.97515060  0.32088491  0.36619979  1  0.442659  0  0.112331  0.22533  0  4.001132  0
C  C144  1  0.02093877  0.93988377  0.65372465  1  0.485543  0  0.040625  -0.015659  0  3.850027  0
C  C145  1  0.13194529  0.71389086  0.65364433  1  0.439349  0  0.04141  -0.012902  0  3.847541  0
C  C146  1  0.97905623  0.06011930  0.34627996  1  0.485448  0  0.040617  -0.015647  0  3.850082  0
C  C147  1  0.86804647  0.28610753  0.34635356  1  0.439634  0  0.041522  -0.012965  0  3.847388  0
C  C148  1  0.90412327  0.85088529  0.50126966  1  0.468362  0  0.030834  0.048939  0  3.995449  0
C  C149  1  0.09619552  0.65031899  0.50118473  1  0.425915  0  0.031145  0.05086  0  3.99423  0
C  C150  1  0.09587340  0.14911851  0.49873274  1  0.468685  0  0.03082  0.048967  0  3.995331  0
C  C151  1  0.90380065  0.34967931  0.49881428  1  0.425934  0  0.031148  0.05089  0  3.99431  0
C  C152  1  0.98654308  0.86131345  0.47636554  1  0.000241  0  -0.089568  -0.121594  0  4.05178  0
C  C153  1  0.98887659  0.61480533  0.47630489  1  0.012448  0  -0.089175  -0.122725  0  4.047843  0
C  C154  1  0.01345020  0.13868887  0.52363956  1  0.000234  0  -0.089679  -0.121709  0  4.05165  0
C  C155  1  0.01111900  0.38519769  0.52369415  1  0.013765  0  -0.089248  -0.122814  0  4.047873  0
C  C156  1  0.08886537  0.91275053  0.54241200  1  -0.039568  0  -0.075656  -0.141974  0  3.921165  0
C  C157  1  0.95266729  0.62935216  0.54239008  1  -0.038181  0  -0.075382  -0.14086  0  3.917531  0
C  C158  1  0.91113016  0.08724780  0.45759143  1  -0.03933  0  -0.075528  -0.14172  0  3.920899  0
C  C159  1  0.04732589  0.37065248  0.45760705  1  -0.039267  0  -0.075328  -0.140666  0  3.917379  0
C  C160  1  0.68937383  0.66908572  0.56292311  1  1.53398  0  0.203552  0.568001  0  4.221836  0
C  C161  1  0.37311783  0.89396527  0.56276091  1  1.531501  0  0.202971  0.567322  0  4.220105  0
C  C162  1  0.31063187  0.33091634  0.43708346  1  1.533618  0  0.203486  0.567782  0  4.222021  0
C  C163  1  0.62687124  0.10602766  0.43723360  1  1.531093  0  0.202977  0.567395  0  4.220036  0
C  C164  1  0.59115843  0.58183186  0.52956301  1  -0.042605  0  -0.02026  -0.039245  0  3.995074  0
C  C165  1  0.43819174  0.94776399  0.52946202  1  -0.038109  0  -0.01967  -0.039125  0  3.997151  0
C  C166  1  0.40884904  0.41816466  0.47044420  1  -0.042592  0  -0.020253  -0.03913  0  3.99493  0
C  C167  1  0.56180385  0.05223274  0.47053584  1  -0.038141  0  -0.019644  -0.039132  0  3.997188  0
C  C168  1  0.49322401  0.59433949  0.49669621  1  0.008727  0  -0.084018  -0.095335  0  3.965402  0
C  C169  1  0.50325569  0.90230703  0.49670244  1  5.9e-05  0  -0.083594  -0.093948  0  3.966323  0
C  C170  1  0.50678372  0.40566410  0.50331189  1  0.008987  0  -0.084112  -0.095539  0  3.965801  0
C  C171  1  0.49674038  0.09768891  0.50329589  1  0.000356  0  -0.083579  -0.093872  0  3.966308  0
C  C172  1  0.40245443  0.51258540  0.46705983  1  -0.023307  0  -0.08479  -0.090469  0  3.983004  0
C  C173  1  0.56460266  0.95439556  0.46717645  1  -0.026444  0  -0.085837  -0.092436  0  3.982135  0
C  C174  1  0.59754600  0.48741206  0.53294636  1  -0.023221  0  -0.084812  -0.090405  0  3.983285  0
C  C175  1  0.43539367  0.04560115  0.53282159  1  -0.026381  0  -0.085809  -0.092492  0  3.982192  0
C  C176  1  0.10751471  0.04451075  0.02776699  1  0.000928  0  -0.081866  -0.091231  0  3.970727  0
C  C177  1  0.42049897  0.98355977  0.02806375  1  -0.005873  0  -0.082822  -0.093962  0  3.975882  0
C  C178  1  0.89249064  0.95549681  0.97223701  1  0.001771  0  -0.081937  -0.091332  0  3.970933  0
C  C179  1  0.57951494  0.01644521  0.97193549  1  -0.005446  0  -0.08277  -0.093952  0  3.976004  0
C  C180  1  0.04030907  0.99405383  0.93660823  1  -0.002106  0  -0.082216  -0.089064  0  3.946909  0
C  C181  1  0.39615675  0.94272884  0.93682529  1  -0.035232  0  -0.081246  -0.086721  0  3.946744  0
C  C182  1  0.95969920  0.00595366  0.06339595  1  -0.002058  0  -0.082021  -0.088916  0  3.946984  0
C  C183  1  0.60385778  0.05727142  0.06317623  1  -0.035898  0  -0.081224  -0.086688  0  3.946912  0
C  C184  1  0.93226579  0.94907092  0.90828359  1  -0.040987  0  -0.018164  -0.040838  0  3.982212  0
C  C185  1  0.47565371  0.95912227  0.90821815  1  -0.080842  0  -0.018627  -0.041765  0  3.98497  0
C  C186  1  0.06774231  0.05093186  0.09172037  1  -0.041013  0  -0.018223  -0.040787  0  3.982044  0
C  C187  1  0.52436015  0.04088036  0.09178271  1  -0.080459  0  -0.018683  -0.041632  0  3.98523  0
C  C188  1  0.85962679  0.89582122  0.81033064  1  1.520295  0  0.204335  0.565303  0  4.219733  0
C  C189  1  0.45000901  0.91441437  0.81018525  1  1.55602  0  0.203884  0.566285  0  4.221796  0
C  C190  1  0.14037301  0.10418095  0.18967270  1  1.520155  0  0.204177  0.565107  0  4.219653  0
C  C191  1  0.55000534  0.08558585  0.18980878  1  1.557475  0  0.204017  0.566389  0  4.221544  0
N  N192  1  0.76772635  0.99947633  0.65767531  1  -1.266957  0  -0.337723  -0.22029  0  3.645899  0
N  N193  1  0.38918812  0.65834934  0.65764358  1  -1.260143  0  -0.337052  -0.221111  0  3.644647  0
N  N194  1  0.23227350  0.00053215  0.34233151  1  -1.267153  0  -0.337661  -0.220106  0  3.645786  0
N  N195  1  0.61081627  0.34164487  0.34235988  1  -1.259754  0  -0.337012  -0.221112  0  3.644906  0
N  N196  1  0.61196180  0.10873486  0.76709141  1  -1.292684  0  -0.397182  -0.39401  0  3.539966  0
N  N197  1  0.65437998  0.65830341  0.76712207  1  -1.279722  0  -0.396994  -0.394015  0  3.538103  0
N  N198  1  0.38803339  0.89127131  0.23290668  1  -1.292374  0  -0.397057  -0.393972  0  3.539746  0
N  N199  1  0.34561602  0.34169647  0.23287849  1  -1.279497  0  -0.397066  -0.394099  0  3.538157  0
N  N200  1  0.21091051  0.00698955  0.69885151  1  -1.280102  0  -0.397089  -0.378961  0  3.545835  0
N  N201  1  0.98722347  0.69170542  0.69883285  1  -1.259681  0  -0.397337  -0.38083  0  3.550049  0
N  N202  1  0.78908419  0.99300410  0.30115441  1  -1.279924  0  -0.397153  -0.378858  0  3.545627  0
N  N203  1  0.01276910  0.30829531  0.30116475  1  -1.260083  0  -0.397264  -0.38085  0  3.549934  0
N  N204  1  0.92240872  0.88917694  0.58845621  1  -1.291198  0  -0.335081  -0.220581  0  3.643756  0
N  N205  1  0.16516126  0.69935300  0.58835980  1  -1.276534  0  -0.335705  -0.223619  0  3.645702  0
N  N206  1  0.07758559  0.11082850  0.41154716  1  -1.291265  0  -0.335079  -0.220583  0  3.643772  0
N  N207  1  0.83483595  0.30064607  0.41164142  1  -1.276418  0  -0.335763  -0.223657  0  3.645891  0
O  O208  1  0.67891064  0.75285013  0.55420479  1  -1.160531  0  -0.334522  -0.545067  0  2.306459  0
O  O209  1  0.37479696  0.80153015  0.55423887  1  -1.160247  0  -0.334517  -0.545373  0  2.307919  0
O  O210  1  0.32109174  0.24715118  0.44579555  1  -1.160357  0  -0.334477  -0.544946  0  2.306663  0
O  O211  1  0.62518519  0.19845817  0.44574682  1  -1.160219  0  -0.334499  -0.545382  0  2.307951  0
O  O212  1  0.77680421  0.65926861  0.59831137  1  -1.207909  0  -0.319621  -0.577359  0  2.263152  0
O  O213  1  0.32097883  0.93923222  0.59796551  1  -1.211035  0  -0.31957  -0.57672  0  2.2576  0
O  O214  1  0.22319832  0.34073273  0.40169530  1  -1.207799  0  -0.319658  -0.577316  0  2.262984  0
O  O215  1  0.67901824  0.06076448  0.40203330  1  -1.210918  0  -0.319546  -0.576724  0  2.257527  0
O  O216  1  0.90395594  0.89852402  0.75723549  1  -1.164895  0  -0.333723  -0.554564  0  2.382745  0
O  O217  1  0.35254045  0.85866264  0.75724382  1  -1.180274  0  -0.332678  -0.554199  0  2.383049  0
O  O218  1  0.09604463  0.10147185  0.24276858  1  -1.164697  0  -0.33363  -0.554492  0  2.382602  0
O  O219  1  0.64746945  0.14133066  0.24275740  1  -1.180261  0  -0.332812  -0.554349  0  2.383097  0
O  O220  1  0.76253315  0.85407221  0.78315611  1  -1.198173  0  -0.326313  -0.573341  0  2.187281  0
O  O221  1  0.51978660  0.92891788  0.78284970  1  -1.192294  0  -0.326051  -0.573511  0  2.187858  0
O  O222  1  0.23746770  0.14593074  0.21684943  1  -1.198159  0  -0.326246  -0.573224  0  2.187195  0
O  O223  1  0.48021737  0.07108415  0.21714439  1  -1.193879  0  -0.326043  -0.57359  0  2.187569  0
O  O224  1  0.68854773  0.28538840  0.86082760  1  -1.122095  0  -0.286992  -0.465526  0  2.073385  0
O  O225  1  0.67152026  0.57435805  0.86013790  1  -1.12249  0  -0.288312  -0.467375  0  2.073548  0
O  O226  1  0.31143993  0.71462812  0.13916568  1  -1.121768  0  -0.28695  -0.465418  0  2.073673  0
O  O227  1  0.32849028  0.42564941  0.13987029  1  -1.122364  0  -0.288214  -0.467284  0  2.073216  0
O  O228  1  0.17985494  0.07989841  0.82257550  1  -1.131763  0  -0.285791  -0.470014  0  2.112203  0
O  O229  1  0.14205187  0.74257239  0.82258549  1  -1.148751  0  -0.286897  -0.472237  0  2.111979  0
O  O230  1  0.82014556  0.92008647  0.17743121  1  -1.131993  0  -0.285846  -0.470121  0  2.112389  0
O  O231  1  0.85794539  0.25743137  0.17741075  1  -1.148779  0  -0.286913  -0.472296  0  2.111744  0
