# generated using pymatgen
data_AlH5C10NO7
_symmetry_space_group_name_H-M   'P 1'
_cell_length_a   6.88635563
_cell_length_b   11.26727836
_cell_length_c   13.48410691
_cell_angle_alpha   76.59584556
_cell_angle_beta   70.07001581
_cell_angle_gamma   70.70298768
_symmetry_Int_Tables_number   1
_chemical_formula_structural   AlH5C10NO7
_chemical_formula_sum   'Al2 H10 C20 N2 O14'
_cell_volume   919.90863293
_cell_formula_units_Z   2
loop_
 _symmetry_equiv_pos_site_id
 _symmetry_equiv_pos_as_xyz
  1  'x, y, z'
loop_
 _atom_site_type_symbol
 _atom_site_label
 _atom_site_symmetry_multiplicity
 _atom_site_fract_x
 _atom_site_fract_y
 _atom_site_fract_z
 _atom_site_occupancy
 _atom_site_pbe_bader_charge
 _atom_site_pbe_bader_spin_density
 _atom_site_pbe_cm5_charge
 _atom_site_pbe_ddec_charge
 _atom_site_pbe_ddec_spin_density
 _atom_site_pbe_ddec_sum_bond_order
 _atom_site_pbe_magmom
Al  Al0  1  0.50018891  0.49989272  0.49986119  1  2.50615  0  0.409191  1.640856  0  2.542048  0
Al  Al1  1  0.00016521  0.49992277  0.49982536  1  2.507218  0  0.402808  1.653576  0  2.546192  0
H  H2  1  0.23376418  0.64402997  0.41212183  1  0.62875  0  0.33286  0.413828  0  0.891756  0
H  H3  1  0.76655028  0.35582646  0.58766219  1  0.626913  0  0.3327  0.413511  0  0.892397  0
H  H4  1  0.77109512  0.11324136  0.47316703  1  0.199182  0  0.119277  0.123428  0  1.091082  0
H  H5  1  0.22852449  0.88655018  0.52748745  1  0.192031  0  0.119209  0.12378  0  1.090926  0
H  H6  1  0.68716899  0.45258533  0.18853493  1  0.103385  0  0.112785  0.120905  0  0.992177  0
H  H7  1  0.22402606  0.57585405  0.17560992  1  0.106611  0  0.109857  0.117278  0  0.994567  0
H  H8  1  0.34930691  0.58757591  0.97768212  1  0.088631  0  0.103123  0.103934  0  1.008436  0
H  H9  1  0.31300437  0.54762226  0.81105224  1  0.098202  0  0.113037  0.121049  0  0.991763  0
H  H10  1  0.77607498  0.42439700  0.82401872  1  0.103039  0  0.109636  0.117251  0  0.994696  0
H  H11  1  0.65075583  0.41279414  0.02191675  1  0.092256  0  0.103426  0.104084  0  1.008609  0
C  C12  1  0.87079177  0.51173350  0.31015904  1  1.547803  0  0.270446  0.650902  0  4.075379  0
C  C13  1  0.62310393  0.72438705  0.50679437  1  1.639602  0  0.280049  0.656007  0  4.078308  0
C  C14  1  0.12942715  0.48829854  0.68950988  1  1.546366  0  0.270589  0.651306  0  4.07308  0
C  C15  1  0.37691997  0.27541290  0.49332026  1  1.640989  0  0.280372  0.657211  0  4.076905  0
C  C16  1  0.55896230  0.86557497  0.50594722  1  0.042239  0  0.007533  -0.050647  0  3.911437  0
C  C17  1  0.44069393  0.13416588  0.49474061  1  0.05282  0  0.007715  -0.051967  0  3.91181  0
C  C18  1  0.70730501  0.93205896  0.49246323  1  0.167026  0  0.096544  0.066678  0  3.938212  0
C  C19  1  0.29229130  0.06769616  0.50831578  1  0.16294  0  0.095421  0.065916  0  3.938256  0
C  C20  1  0.65259471  0.06292090  0.48615990  1  0.05012  0  -0.06731  -0.125343  0  3.924899  0
C  C21  1  0.34702985  0.93682971  0.51460131  1  0.057406  0  -0.067181  -0.12576  0  3.92457  0
C  C22  1  0.83335731  0.47998881  0.14155008  1  -0.00923  0  -0.072421  -0.130196  0  3.914868  0
C  C23  1  0.13760315  0.55048859  0.13303348  1  -0.056975  0  -0.08632  -0.101371  0  3.997399  0
C  C24  1  0.20688545  0.55584149  0.02402715  1  -0.038678  0  -0.086207  -0.131823  0  3.99438  0
C  C25  1  0.09518171  0.51990157  0.96964166  1  -0.05628  0  -0.001625  0.079725  0  3.996265  0
C  C26  1  0.16668176  0.52037819  0.85804163  1  -0.009855  0  -0.073589  -0.130857  0  3.915655  0
C  C27  1  0.86239724  0.44989271  0.86657181  1  -0.054728  0  -0.085782  -0.100825  0  3.996986  0
C  C28  1  0.79313950  0.44457217  0.97557000  1  -0.024805  0  -0.086593  -0.131873  0  3.994021  0
C  C29  1  0.90484040  0.48053269  0.02994419  1  -0.01784  0  -0.001924  0.080162  0  3.99529  0
C  C30  1  0.94783985  0.51328237  0.19249812  1  -0.025421  0  -0.014572  -0.039504  0  3.989113  0
C  C31  1  0.05218225  0.48704089  0.80712741  1  -0.025668  0  -0.014739  -0.040035  0  3.989399  0
N  N32  1  0.93085179  0.86322949  0.48987544  1  0.398804  0  0.058626  0.516064  0  4.22407  0
N  N33  1  0.06875461  0.13656058  0.51087496  1  0.410196  0  0.060237  0.518146  0  4.223671  0
O  O34  1  0.67418233  0.51375443  0.35587990  1  -1.266695  0  -0.238055  -0.602028  0  2.348367  0
O  O35  1  0.81806690  0.66898107  0.50348342  1  -1.254019  0  -0.221953  -0.588463  0  2.419824  0
O  O36  1  0.99305504  0.48902096  0.64458634  1  -1.256462  0  -0.237595  -0.596531  0  2.338003  0
O  O37  1  0.51782724  0.32549690  0.49173563  1  -1.237712  0  -0.221431  -0.560748  0  2.331174  0
O  O38  1  0.32609769  0.48616588  0.64384485  1  -1.265485  0  -0.237744  -0.601609  0  2.34702  0
O  O39  1  0.18215736  0.33087654  0.49626873  1  -1.252834  0  -0.222058  -0.588569  0  2.419794  0
O  O40  1  0.00730099  0.51081675  0.35506751  1  -1.252908  0  -0.237422  -0.595905  0  2.338417  0
O  O41  1  0.48232726  0.67432155  0.50819457  1  -1.235781  0  -0.221071  -0.560098  0  2.332074  0
O  O42  1  0.24934054  0.55996491  0.45323177  1  -1.43499  0  -0.452719  -0.98831  0  2.139969  0
O  O43  1  0.75102195  0.43984801  0.54646389  1  -1.43302  0  -0.452845  -0.988332  0  2.140507  0
O  O44  1  0.96625699  0.82890430  0.57753246  1  -0.429869  0  -0.089857  -0.274302  0  1.938856  0
O  O45  1  0.06706797  0.85111293  0.40209479  1  -0.443874  0  -0.106849  -0.307546  0  1.89938  0
O  O46  1  0.93254891  0.14898237  0.59863024  1  -0.447188  0  -0.107159  -0.308076  0  1.89951  0
O  O47  1  0.03332470  0.17067747  0.42321736  1  -0.438357  0  -0.090419  -0.27488  0  1.939179  0
