# generated using pymatgen
data_Zn4C40Cl4O13F16
_symmetry_space_group_name_H-M   'P 1'
_cell_length_a   23.95496391
_cell_length_b   23.95636970
_cell_length_c   23.95460446
_cell_angle_alpha   66.58719381
_cell_angle_beta   72.46791639
_cell_angle_gamma   107.54048921
_symmetry_Int_Tables_number   1
_chemical_formula_structural   Zn4C40Cl4O13F16
_chemical_formula_sum   'Zn8 C80 Cl8 O26 F32'
_cell_volume   10544.76025905
_cell_formula_units_Z   2
loop_
 _symmetry_equiv_pos_site_id
 _symmetry_equiv_pos_as_xyz
  1  'x, y, z'
loop_
 _atom_site_type_symbol
 _atom_site_label
 _atom_site_symmetry_multiplicity
 _atom_site_fract_x
 _atom_site_fract_y
 _atom_site_fract_z
 _atom_site_occupancy
 _atom_site_pbe_bader_charge
 _atom_site_pbe_bader_spin_density
 _atom_site_pbe_cm5_charge
 _atom_site_pbe_ddec_charge
 _atom_site_pbe_ddec_spin_density
 _atom_site_pbe_ddec_sum_bond_order
 _atom_site_pbe_magmom
Zn  Zn0  1  0.05705450  0.95746195  0.48549264  1  1.324195  0  0.680889  0.97862  0  2.361702  0
Zn  Zn1  1  0.05705260  0.09959482  0.45746371  1  1.321663  0  0.680858  0.97851  0  2.361718  0
Zn  Zn2  1  0.94294127  0.98549161  0.45745408  1  1.323995  0  0.680803  0.97849  0  2.361503  0
Zn  Zn3  1  0.94295600  0.95745769  0.59959787  1  1.321599  0  0.680871  0.978582  0  2.361747  0
Zn  Zn4  1  0.94294589  0.54253770  0.01450695  1  1.324206  0  0.680862  0.978559  0  2.361715  0
Zn  Zn5  1  0.05706150  0.51451095  0.04254405  1  1.324184  0  0.680852  0.978545  0  2.361464  0
Zn  Zn6  1  0.94294523  0.40040528  0.04254114  1  1.321732  0  0.680885  0.978517  0  2.361785  0
Zn  Zn7  1  0.05704280  0.54253681  0.90040336  1  1.321632  0  0.680851  0.97858  0  2.361653  0
C  C8  1  0.18099730  0.09050956  0.40949553  1  1.601821  0  0.229559  0.63882  0  4.160517  0
C  C9  1  0.99999499  0.13695160  0.36304594  1  1.608523  0  0.229659  0.630083  0  4.128143  0
C  C10  1  0.99998362  0.90949674  0.40950939  1  1.618879  0  0.229554  0.638757  0  4.160609  0
C  C11  1  0.81900309  0.90948721  0.59051585  1  1.602058  0  0.229304  0.638658  0  4.160752  0
C  C12  1  0.00000657  0.86304479  0.63695356  1  1.60875  0  0.229765  0.630224  0  4.128348  0
C  C13  1  0.99998848  0.09049390  0.59050578  1  1.638264  0  0.22959  0.63887  0  4.160469  0
C  C14  1  0.00000333  0.59048634  0.09050791  1  1.618895  0  0.229478  0.638606  0  4.160756  0
C  C15  1  0.00000867  0.36305121  0.13695399  1  1.608473  0  0.229692  0.630208  0  4.128395  0
C  C16  1  0.81900112  0.40949271  0.09049116  1  1.601941  0  0.229464  0.638673  0  4.160694  0
C  C17  1  0.99999385  0.40948488  0.90951457  1  1.63861  0  0.229395  0.638764  0  4.160716  0
C  C18  1  0.99999442  0.63695189  0.86304614  1  1.608626  0  0.229685  0.630145  0  4.128302  0
C  C19  1  0.18099700  0.59049353  0.90948209  1  1.602353  0  0.229594  0.638911  0  4.16075  0
C  C20  1  0.00000221  0.80513928  0.69485967  1  0.053432  0  -0.016099  -0.124793  0  3.853859  0
C  C21  1  0.00000005  0.69485986  0.80513960  1  0.053384  0  -0.016029  -0.124566  0  3.853667  0
C  C22  1  0.95719010  0.77696890  0.76583816  1  0.115807  0  0.016166  0.074515  0  3.985417  0
C  C23  1  0.04281188  0.72303136  0.73416108  1  0.124011  0  0.016043  0.074225  0  3.985574  0
C  C24  1  0.95718923  0.72302833  0.81977989  1  0.124732  0  0.016092  0.074247  0  3.985568  0
C  C25  1  0.04281259  0.77697022  0.68021966  1  0.123932  0  0.016053  0.074329  0  3.985621  0
C  C26  1  0.99999926  0.19485909  0.30513907  1  0.053667  0  -0.016049  -0.12468  0  3.853823  0
C  C27  1  0.00000420  0.30514300  0.19486121  1  0.053657  0  -0.01601  -0.124579  0  3.85365  0
C  C28  1  0.95719062  0.18022301  0.27696073  1  0.12269  0  0.016068  0.074382  0  3.985417  0
C  C29  1  0.04281216  0.31977893  0.22303897  1  0.122999  0  0.015981  0.074186  0  3.985574  0
C  C30  1  0.95719304  0.23416462  0.22302272  1  0.125874  0  0.015975  0.074104  0  3.985172  0
C  C31  1  0.04281062  0.26583820  0.27697763  1  0.125667  0  0.015912  0.07407  0  3.985432  0
C  C32  1  0.99999878  0.62796846  0.12799217  1  0.062144  0  -0.024607  -0.218372  0  3.945984  0
C  C33  1  0.95747693  0.65756367  0.13562820  1  0.654682  0  0.103433  0.174813  0  4.07167  0
C  C34  1  0.95758938  0.69228116  0.17038475  1  0.505172  0  0.099745  0.134218  0  4.062654  0
C  C35  1  0.99999961  0.69973116  0.19974894  1  0.226681  0  -0.007377  -0.035861  0  4.175628  0
C  C36  1  0.04240225  0.67036431  0.19231101  1  0.503898  0  0.099862  0.134483  0  4.0627  0
C  C37  1  0.04251898  0.63560823  0.15759329  1  0.653351  0  0.103542  0.174773  0  4.071584  0
C  C38  1  0.99999639  0.73478871  0.23481177  1  -0.24584  0  -0.021512  -0.037547  0  4.089162  0
C  C39  1  0.99999255  0.76518530  0.26521595  1  -0.034163  0  -0.021521  -0.037568  0  4.089288  0
C  C40  1  0.99998585  0.80024404  0.30027727  1  0.225876  0  -0.007271  -0.035784  0  4.17527  0
C  C41  1  0.95758590  0.82961738  0.30770481  1  0.503988  0  0.099703  0.134342  0  4.062523  0
C  C42  1  0.95746539  0.86437123  0.34242540  1  0.654227  0  0.103419  0.174755  0  4.07148  0
C  C43  1  0.99997484  0.87200060  0.37204213  1  0.061838  0  -0.024527  -0.218287  0  3.94598  0
C  C44  1  0.04247786  0.84238201  0.36443409  1  0.653481  0  0.103379  0.174768  0  4.071666  0
C  C45  1  0.04236807  0.80766615  0.32967525  1  0.50631  0  0.099941  0.134583  0  4.062413  0
C  C46  1  0.00000638  0.37200297  0.87203241  1  0.048232  0  -0.024571  -0.218394  0  3.945944  0
C  C47  1  0.04253028  0.40688115  0.79991574  1  0.660173  0  0.103375  0.174696  0  4.071466  0
C  C48  1  0.04241476  0.37200943  0.76531560  1  0.512808  0  0.09971  0.134137  0  4.062783  0
C  C49  1  0.00000116  0.30024157  0.80027479  1  0.20067  0  -0.007307  -0.035645  0  4.175135  0
C  C50  1  0.95759844  0.26528297  0.87204771  1  0.512662  0  0.099938  0.134439  0  4.062581  0
C  C51  1  0.95748644  0.29988431  0.90691802  1  0.660434  0  0.103411  0.174717  0  4.071987  0
C  C52  1  0.99999819  0.26518443  0.76521190  1  -0.244632  0  -0.021549  -0.037724  0  4.089405  0
C  C53  1  0.99999229  0.23479626  0.73480649  1  -0.035448  0  -0.021417  -0.037334  0  4.089495  0
C  C54  1  0.99998768  0.19974023  0.69974249  1  0.201139  0  -0.007269  -0.035831  0  4.17536  0
C  C55  1  0.04237274  0.23470038  0.62796677  1  0.512745  0  0.099903  0.134589  0  4.062653  0
C  C56  1  0.04248083  0.20009979  0.59309734  1  0.659883  0  0.103267  0.174455  0  4.072002  0
C  C57  1  0.99997606  0.12797868  0.62798227  1  0.048251  0  -0.024473  -0.218147  0  3.945927  0
C  C58  1  0.95746551  0.09309826  0.70010331  1  0.660856  0  0.103327  0.174596  0  4.071947  0
C  C59  1  0.95758500  0.12796824  0.73470420  1  0.512585  0  0.099864  0.134475  0  4.062656  0
C  C60  1  0.74403793  0.37201053  0.12797862  1  0.081463  0  -0.024573  -0.218084  0  3.945801  0
C  C61  1  0.70680200  0.40689175  0.13560511  1  0.519394  0  0.103307  0.174506  0  4.071809  0
C  C62  1  0.63732992  0.37202417  0.17035930  1  0.637121  0  0.099798  0.134608  0  4.062592  0
C  C63  1  0.60051913  0.30025300  0.19973740  1  0.102777  0  -0.007378  -0.036075  0  4.17565  0
C  C64  1  0.63732698  0.26528904  0.19230793  1  0.494961  0  0.099916  0.134581  0  4.062523  0
C  C65  1  0.70679978  0.29989059  0.15759052  1  0.654799  0  0.10334  0.174474  0  4.071783  0
C  C66  1  0.53040013  0.26519891  0.23479202  1  -0.172203  0  -0.02153  -0.037521  0  4.089286  0
C  C67  1  0.46959863  0.23481149  0.26517799  1  0.147183  0  -0.02146  -0.037556  0  4.089141  0
C  C68  1  0.39947869  0.19975282  0.30023555  1  0.101876  0  -0.007315  -0.035689  0  4.175364  0
C  C69  1  0.36267009  0.23471291  0.30767470  1  0.495122  0  0.099871  0.134405  0  4.062765  0
C  C70  1  0.29319782  0.20010981  0.34239173  1  0.655518  0  0.103407  0.174682  0  4.071997  0
C  C71  1  0.25596340  0.12799310  0.37199454  1  0.081285  0  -0.024704  -0.218413  0  3.946116  0
C  C72  1  0.29320236  0.09311597  0.36434632  1  0.519955  0  0.103418  0.174532  0  4.071686  0
C  C73  1  0.36267407  0.12798681  0.32958844  1  0.635203  0  0.099847  0.134321  0  4.062408  0
C  C74  1  0.25595826  0.62796754  0.87200471  1  0.081071  0  -0.024333  -0.217941  0  3.945948  0
C  C75  1  0.29320010  0.63558762  0.90689098  1  0.519216  0  0.103124  0.174423  0  4.071679  0
C  C76  1  0.36267205  0.67034415  0.87202097  1  0.638271  0  0.0997  0.134373  0  4.062677  0
C  C77  1  0.39948184  0.69973087  0.80024678  1  0.102597  0  -0.007194  -0.035772  0  4.175787  0
C  C78  1  0.36266883  0.69230104  0.76528052  1  0.495191  0  0.099804  0.134371  0  4.062942  0
C  C79  1  0.29319381  0.65757858  0.79988331  1  0.654847  0  0.103222  0.1743  0  4.072088  0
C  C80  1  0.46960051  0.73478723  0.76519554  1  -0.172505  0  -0.021532  -0.037577  0  4.089583  0
C  C81  1  0.53040067  0.76517902  0.73481617  1  0.14743  0  -0.021476  -0.037471  0  4.089356  0
C  C82  1  0.60052005  0.80024023  0.69975986  1  0.102157  0  -0.007317  -0.03585  0  4.175241  0
C  C83  1  0.63733796  0.80768328  0.73472024  1  0.495414  0  0.099969  0.13469  0  4.062485  0
C  C84  1  0.70681112  0.84240128  0.70011686  1  0.654995  0  0.103204  0.174411  0  4.072237  0
C  C85  1  0.74403785  0.87199987  0.62799764  1  0.081195  0  -0.024499  -0.218312  0  3.945777  0
C  C86  1  0.70679386  0.86435584  0.59311774  1  0.520114  0  0.103298  0.174645  0  4.071822  0
C  C87  1  0.63732522  0.82960209  0.62798816  1  0.635772  0  0.0997  0.134215  0  4.062937  0
Cl  Cl88  1  0.90262473  0.80548324  0.79188185  1  -0.123134  0  0.012169  -0.024637  0  1.661475  0
Cl  Cl89  1  0.09737924  0.69451849  0.70811871  1  -0.122142  0  0.012288  -0.024496  0  1.661549  0
Cl  Cl90  1  0.90262566  0.69450771  0.90286092  1  -0.123979  0  0.012222  -0.024573  0  1.661645  0
Cl  Cl91  1  0.09737747  0.80549215  0.59713896  1  -0.131889  0  0.012265  -0.024527  0  1.661619  0
Cl  Cl92  1  0.90262867  0.09714525  0.30546930  1  -0.133168  0  0.012275  -0.024496  0  1.661359  0
Cl  Cl93  1  0.09737236  0.40285494  0.19453162  1  -0.133024  0  0.012323  -0.024416  0  1.661432  0
Cl  Cl94  1  0.90263047  0.20812610  0.19449189  1  -0.122109  0  0.012299  -0.024498  0  1.661407  0
Cl  Cl95  1  0.09737076  0.29187480  0.30550828  1  -0.121897  0  0.012366  -0.024394  0  1.661519  0
O  O96  1  0.99999993  0.00000163  0.50000031  1  -1.234528  0  -0.57177  -1.040444  0  2.537943  0
O  O97  1  0.15238032  0.02579813  0.43339208  1  -1.153684  0  -0.30976  -0.536651  0  2.354352  0
O  O98  1  0.03970144  0.15421271  0.38548453  1  -1.164507  0  -0.312488  -0.54237  0  2.454034  0
O  O99  1  0.95915982  0.93338287  0.41423488  1  -1.153963  0  -0.309818  -0.536612  0  2.354464  0
O  O100  1  0.15238175  0.12659995  0.41423674  1  -1.149476  0  -0.309824  -0.536536  0  2.354404  0
O  O101  1  0.04082040  0.91424340  0.43338379  1  -1.153223  0  -0.30979  -0.536567  0  2.354352  0
O  O102  1  0.96028654  0.07481360  0.38548293  1  -1.167341  0  -0.312569  -0.542437  0  2.453637  0
O  O103  1  0.84761634  0.93338285  0.52580137  1  -1.15379  0  -0.309737  -0.536576  0  2.354128  0
O  O104  1  0.96031071  0.88548788  0.65421687  1  -1.164474  0  -0.312608  -0.542588  0  2.454327  0
O  O105  1  0.84762532  0.91421863  0.62660934  1  -1.149646  0  -0.309665  -0.536481  0  2.354697  0
O  O106  1  0.03970478  0.88548101  0.57481444  1  -1.167581  0  -0.312573  -0.542415  0  2.453872  0
O  O107  1  0.04082035  0.12658669  0.52579719  1  -1.167792  0  -0.309767  -0.536619  0  2.354213  0
O  O108  1  0.95917390  0.02578177  0.62660060  1  -1.156539  0  -0.309804  -0.536617  0  2.354506  0
O  O109  1  0.00000066  0.49999869  0.99999982  1  -1.234601  0  -0.571782  -1.040459  0  2.537961  0
O  O110  1  0.95917970  0.58575752  0.06661537  1  -1.153308  0  -0.309743  -0.536482  0  2.354206  0
O  O111  1  0.03971807  0.42518810  0.11451423  1  -1.167484  0  -0.312502  -0.542408  0  2.453697  0
O  O112  1  0.84761736  0.37340247  0.08575470  1  -1.149451  0  -0.309774  -0.536492  0  2.354514  0
O  O113  1  0.04083015  0.56660427  0.08577823  1  -1.153985  0  -0.309746  -0.536466  0  2.354664  0
O  O114  1  0.84761887  0.47420229  0.06660805  1  -1.154128  0  -0.309719  -0.536571  0  2.354253  0
O  O115  1  0.96029975  0.34578918  0.11451902  1  -1.16437  0  -0.312553  -0.542496  0  2.45428  0
O  O116  1  0.95916741  0.37339352  0.97422397  1  -1.157203  0  -0.309751  -0.536514  0  2.354694  0
O  O117  1  0.03969004  0.61450908  0.84578196  1  -1.164664  0  -0.312571  -0.54253  0  2.45421  0
O  O118  1  0.04080767  0.47419900  0.87341636  1  -1.167379  0  -0.309676  -0.536588  0  2.354143  0
O  O119  1  0.96029724  0.61451825  0.92518518  1  -1.167364  0  -0.312526  -0.542397  0  2.45391  0
O  O120  1  0.15238303  0.56661948  0.97419157  1  -1.15395  0  -0.309853  -0.53672  0  2.354202  0
O  O121  1  0.15237534  0.58575956  0.87338944  1  -1.149953  0  -0.309871  -0.536674  0  2.354618  0
F  F122  1  0.91482425  0.65392941  0.10976810  1  -0.609323  0  -0.079554  -0.088545  0  1.395299  0
F  F123  1  0.08517764  0.60976330  0.15396607  1  -0.609133  0  -0.079669  -0.08859  0  1.395433  0
F  F124  1  0.08395578  0.67600019  0.21951145  1  -0.617358  0  -0.08215  -0.096753  0  1.361544  0
F  F125  1  0.91603004  0.71947113  0.17601168  1  -0.617716  0  -0.082202  -0.096768  0  1.361227  0
F  F126  1  0.91604254  0.82399429  0.28049164  1  -0.617537  0  -0.082144  -0.096788  0  1.361474  0
F  F127  1  0.08390877  0.78045335  0.32407343  1  -0.618009  0  -0.08221  -0.096818  0  1.361325  0
F  F128  1  0.08511631  0.84599683  0.39031077  1  -0.60886  0  -0.079511  -0.088557  0  1.395502  0
F  F129  1  0.91481574  0.89022933  0.34604049  1  -0.609059  0  -0.079671  -0.088683  0  1.395312  0
F  F130  1  0.08519615  0.47538593  0.76089938  1  -0.604702  0  -0.079544  -0.088501  0  1.395067  0
F  F131  1  0.91482971  0.26086294  0.97542256  1  -0.60494  0  -0.079601  -0.088579  0  1.395561  0
F  F132  1  0.91603875  0.19653421  0.90796746  1  -0.61759  0  -0.082176  -0.096744  0  1.361395  0
F  F133  1  0.08397569  0.40792724  0.69657021  1  -0.616722  0  -0.0822  -0.096691  0  1.361574  0
F  F134  1  0.08391677  0.30345216  0.59204137  1  -0.617093  0  -0.082273  -0.09686  0  1.361237  0
F  F135  1  0.91604020  0.09204685  0.80345532  1  -0.61761  0  -0.08225  -0.096883  0  1.361248  0
F  F136  1  0.91481395  0.02459015  0.73912669  1  -0.605189  0  -0.079613  -0.088597  0  1.395383  0
F  F137  1  0.08512078  0.23912359  0.52458647  1  -0.604547  0  -0.079475  -0.088422  0  1.395484  0
F  F138  1  0.73628944  0.47540025  0.10973661  1  -0.608535  0  -0.07945  -0.08849  0  1.395259  0
F  F139  1  0.73628254  0.26086541  0.15397354  1  -0.609656  0  -0.079574  -0.08854  0  1.395366  0
F  F140  1  0.60449685  0.19653650  0.21951758  1  -0.617294  0  -0.082169  -0.096762  0  1.361254  0
F  F141  1  0.60450216  0.40794796  0.17597574  1  -0.617497  0  -0.082234  -0.096831  0  1.361021  0
F  F142  1  0.39550271  0.30346067  0.28047997  1  -0.617245  0  -0.082117  -0.096675  0  1.361379  0
F  F143  1  0.39549973  0.09206926  0.32394262  1  -0.616309  0  -0.082291  -0.096754  0  1.361354  0
F  F144  1  0.26371039  0.02461179  0.39018566  1  -0.60859  0  -0.079553  -0.088409  0  1.395158  0
F  F145  1  0.26371650  0.23913331  0.34602482  1  -0.609866  0  -0.079565  -0.088547  0  1.395425  0
F  F146  1  0.26371771  0.60971432  0.97540394  1  -0.608864  0  -0.079504  -0.088504  0  1.395159  0
F  F147  1  0.26370684  0.65396005  0.76085645  1  -0.609893  0  -0.079471  -0.088373  0  1.395702  0
F  F148  1  0.39549133  0.71951091  0.69652534  1  -0.617117  0  -0.082153  -0.0967  0  1.361554  0
F  F149  1  0.39550406  0.67595656  0.90794990  1  -0.617862  0  -0.082182  -0.096787  0  1.361158  0
F  F150  1  0.60451305  0.78048657  0.80347260  1  -0.617174  0  -0.082113  -0.096739  0  1.361381  0
F  F151  1  0.60449274  0.82396379  0.59206755  1  -0.616383  0  -0.082158  -0.096727  0  1.361478  0
F  F152  1  0.73627763  0.89020301  0.52461180  1  -0.608988  0  -0.079504  -0.08844  0  1.395214  0
F  F153  1  0.73629672  0.84603556  0.73913998  1  -0.610094  0  -0.079434  -0.088379  0  1.395811  0
