# generated using pymatgen
data_MnH10(C5N4)2
_symmetry_space_group_name_H-M   'P 1'
_cell_length_a   9.99141456
_cell_length_b   11.93947549
_cell_length_c   11.93476052
_cell_angle_alpha   79.79310870
_cell_angle_beta   65.12202993
_cell_angle_gamma   65.09299346
_symmetry_Int_Tables_number   1
_chemical_formula_structural   MnH10(C5N4)2
_chemical_formula_sum   'Mn4 H40 C40 N32'
_cell_volume   1171.48161027
_cell_formula_units_Z   4
loop_
 _symmetry_equiv_pos_site_id
 _symmetry_equiv_pos_as_xyz
  1  'x, y, z'
loop_
 _atom_site_type_symbol
 _atom_site_label
 _atom_site_symmetry_multiplicity
 _atom_site_fract_x
 _atom_site_fract_y
 _atom_site_fract_z
 _atom_site_occupancy
 _atom_site_pbe_cm5_charge
 _atom_site_pbe_ddec_charge
 _atom_site_pbe_ddec_spin_density
 _atom_site_pbe_ddec_sum_bond_order
 _atom_site_pbe_magmom
Mn  Mn0  1  0.00000152  0.99999386  0.99999934  1  0.640081  0.769696  4.55105  2.74356  4.34
Mn  Mn1  1  0.49999729  0.00000033  0.50000110  1  0.641634  0.76268  -4.505843  2.780258  -4.298
Mn  Mn2  1  0.00000087  0.49999816  0.49999921  1  0.639202  0.766815  4.54874  2.743203  4.339
Mn  Mn3  1  0.99999786  0.49999596  0.99999785  1  0.638336  0.775506  4.5962  2.705729  4.38
H  H4  1  0.37192210  0.90281797  0.84032706  1  0.118067  0.082534  0.000998  1.030492  0.0
H  H5  1  0.77415823  0.83989801  0.59742771  1  0.117616  0.082779  -0.000634  1.030414  0.0
H  H6  1  0.11325794  0.59763369  0.66026602  1  0.11807  0.084157  0.0003  1.028512  0.0
H  H7  1  0.21141686  0.66005915  0.90246398  1  0.117363  0.083959  0.00027  1.027812  0.0
H  H8  1  0.62808137  0.09718171  0.15966919  1  0.118074  0.082584  0.000998  1.030485  0.0
H  H9  1  0.22584330  0.16010083  0.40257409  1  0.117617  0.082802  -0.000634  1.030379  0.0
H  H10  1  0.88674233  0.40236607  0.33973208  1  0.118059  0.084137  0.0003  1.02852  0.0
H  H11  1  0.78857896  0.33994228  0.09753967  1  0.117379  0.083977  0.00027  1.027838  0.0
H  H12  1  0.62668523  0.73033399  0.83986805  1  0.104388  0.108252  0.000337  1.038847  0.0
H  H13  1  0.85601360  0.83915851  0.76956819  1  0.103936  0.106667  -0.000448  1.04218  0.0
H  H14  1  0.19440888  0.76988444  0.66047832  1  0.105502  0.109523  6e-06  1.035787  0.0
H  H15  1  0.46601972  0.65992308  0.72986701  1  0.105698  0.109845  0.000683  1.038728  0.0
H  H16  1  0.37331908  0.26966485  0.16012820  1  0.104387  0.108235  0.000337  1.038808  0.0
H  H17  1  0.14398423  0.16084247  0.23043453  1  0.103949  0.106686  -0.000448  1.042137  0.0
H  H18  1  0.80559075  0.23011577  0.33951794  1  0.105496  0.10949  6e-06  1.0357  0.0
H  H19  1  0.53397479  0.34007920  0.27013756  1  0.105724  0.109872  0.000683  1.038706  0.0
H  H20  1  0.61216813  0.57375618  0.00923088  1  0.106041  0.100169  -0.00015  1.035435  0.0
H  H21  1  0.68544867  0.00939284  0.92541308  1  0.106244  0.100412  -0.000216  1.035359  0.0
H  H22  1  0.19395920  0.92584583  0.49031314  1  0.106152  0.100867  0.000608  1.033871  0.0
H  H23  1  0.62110432  0.49046093  0.57340618  1  0.105953  0.099649  -0.000525  1.034577  0.0
H  H24  1  0.38783404  0.42624434  0.99076630  1  0.106061  0.100189  -0.00015  1.035474  0.0
H  H25  1  0.31455093  0.99060730  0.07458779  1  0.106241  0.100409  -0.000216  1.035377  0.0
H  H26  1  0.80603772  0.07415729  0.50968496  1  0.106141  0.100849  0.000609  1.033888  0.0
H  H27  1  0.37889534  0.50954280  0.42659839  1  0.105958  0.099702  -0.000525  1.034572  0.0
H  H28  1  0.34122043  0.59346213  0.17221749  1  0.102903  0.106867  0.000269  1.037688  0.0
H  H29  1  0.43468837  0.17310904  0.90544722  1  0.103459  0.106989  -0.000346  1.035948  0.0
H  H30  1  0.10697660  0.90585722  0.32719899  1  0.10416  0.108345  -9e-06  1.033744  0.0
H  H31  1  0.51331760  0.32799578  0.59327015  1  0.103662  0.107048  0.000593  1.036197  0.0
H  H32  1  0.65878258  0.40653755  0.82777969  1  0.1029  0.106839  0.000269  1.037688  0.0
H  H33  1  0.56531371  0.82689064  0.09455180  1  0.103441  0.106971  -0.000346  1.035895  0.0
H  H34  1  0.89302330  0.09414338  0.67279819  1  0.104184  0.108359  -9e-06  1.033776  0.0
H  H35  1  0.48668381  0.67200428  0.40673164  1  0.103663  0.107016  0.000593  1.036158  0.0
H  H36  1  0.09856010  0.76926876  0.15515246  1  0.115355  0.077422  0.000945  1.032853  0.001
H  H37  1  0.36789288  0.15594515  0.73033104  1  0.115526  0.07575  -0.000443  1.035075  0.0
H  H38  1  0.02328188  0.73054923  0.34468232  1  0.116165  0.078643  0.000587  1.032879  0.001
H  H39  1  0.25344284  0.34554370  0.76913919  1  0.116105  0.076876  0.000817  1.034931  0.001
H  H40  1  0.90144446  0.23073046  0.84484471  1  0.11535  0.077402  0.000945  1.032892  0.001
H  H41  1  0.63210802  0.84405414  0.26966891  1  0.115528  0.075767  -0.000443  1.035051  0.0
H  H42  1  0.97671949  0.26945006  0.65531671  1  0.116173  0.078674  0.000587  1.03284  0.001
H  H43  1  0.74655903  0.65445636  0.23086168  1  0.116096  0.076858  0.000817  1.034945  0.001
C  C44  1  0.37125946  0.83234801  0.91208886  1  0.047364  0.086775  0.004885  3.935217  0.004
C  C45  1  0.70313029  0.91198157  0.66753767  1  0.047282  0.086335  -0.003531  3.936053  -0.003
C  C46  1  0.11422447  0.66784115  0.58824004  1  0.046343  0.082979  0.004472  3.931539  0.004
C  C47  1  0.28268279  0.58827683  0.83199543  1  0.050963  0.087337  0.005169  3.930306  0.004
C  C48  1  0.62874447  0.16765167  0.08790647  1  0.047302  0.086598  0.004884  3.935283  0.004
C  C49  1  0.29687086  0.08801811  0.33246320  1  0.047314  0.086327  -0.003532  3.93595  -0.003
C  C50  1  0.88577412  0.33216028  0.41175806  1  0.046268  0.082878  0.004473  3.931674  0.004
C  C51  1  0.71731433  0.41172376  0.16800729  1  0.050902  0.087268  0.005169  3.93042  0.004
C  C52  1  0.51223700  0.73693060  0.91270204  1  -0.083392  -0.125173  -0.000396  3.960287  0.0
C  C53  1  0.74851950  0.91247702  0.76278665  1  -0.081138  -0.124123  0.000557  3.962883  0.001
C  C54  1  0.16000119  0.76321020  0.58748910  1  -0.083392  -0.125556  -0.000408  3.954442  0.0
C  C55  1  0.42435187  0.58737423  0.73646548  1  -0.084794  -0.128312  -0.000401  3.962223  0.0
C  C56  1  0.48776382  0.26307000  0.08729330  1  -0.083384  -0.125074  -0.000396  3.960243  0.0
C  C57  1  0.25148187  0.08752227  0.23721237  1  -0.081163  -0.124144  0.000557  3.962796  0.001
C  C58  1  0.83999824  0.23679040  0.41250901  1  -0.083301  -0.125376  -0.000409  3.954248  0.0
C  C59  1  0.57564429  0.41262843  0.26353724  1  -0.084748  -0.128186  -0.000401  3.962061  0.0
C  C60  1  0.50345393  0.64935377  0.00710642  1  -0.066258  -0.02136  0.004029  3.934051  0.003
C  C61  1  0.65243356  0.00728961  0.84999026  1  -0.067561  -0.021381  -0.003112  3.933587  -0.002
C  C62  1  0.15863602  0.85047766  0.49274326  1  -0.065938  -0.02084  0.003732  3.927471  0.003
C  C63  1  0.51010955  0.49293107  0.64894901  1  -0.066327  -0.01873  0.004358  3.932784  0.003
C  C64  1  0.49654811  0.35064514  0.99288983  1  -0.066239  -0.021348  0.004027  3.934132  0.003
C  C65  1  0.34756685  0.99271175  0.15000876  1  -0.067552  -0.021378  -0.003112  3.933597  -0.002
C  C66  1  0.84136151  0.14952217  0.50725577  1  -0.065969  -0.020907  0.003732  3.927482  0.003
C  C67  1  0.48988700  0.50707357  0.35105556  1  -0.066399  -0.019035  0.004359  3.933064  0.003
C  C68  1  0.35395802  0.66015425  0.09734060  1  -0.085723  -0.128354  -0.000312  3.966156  0.0
C  C69  1  0.51404378  0.09790085  0.83904195  1  -0.08546  -0.128305  0.000509  3.965416  0.0
C  C70  1  0.11086923  0.83952585  0.40243747  1  -0.085727  -0.129829  -0.000258  3.962215  0.0
C  C71  1  0.45092103  0.40298033  0.65979975  1  -0.084912  -0.128446  -0.000611  3.966297  0.0
C  C72  1  0.64604666  0.33984375  0.90265658  1  -0.085753  -0.128393  -0.000312  3.966142  0.0
C  C73  1  0.48595688  0.90210090  0.16095800  1  -0.085436  -0.128266  0.000509  3.965294  0.0
C  C74  1  0.88912948  0.16047437  0.59756064  1  -0.085748  -0.129832  -0.000258  3.962275  0.0
C  C75  1  0.54907512  0.59702233  0.34020298  1  -0.08488  -0.128234  -0.000611  3.966215  0.0
C  C76  1  0.21877287  0.75813644  0.08947075  1  0.04705  0.081356  0.005068  3.962323  0.004
C  C77  1  0.47690266  0.08997276  0.74135227  1  0.046817  0.083273  -0.00464  3.966186  -0.004
C  C78  1  0.06604153  0.74170793  0.41054126  1  0.046554  0.080322  0.005427  3.962714  0.004
C  C79  1  0.30784674  0.41110479  0.75785742  1  0.047658  0.08286  0.005693  3.962933  0.005
C  C80  1  0.78123157  0.24186401  0.91052642  1  0.047073  0.081459  0.005066  3.962256  0.004
C  C81  1  0.52309895  0.91002692  0.25864768  1  0.046805  0.083216  -0.00464  3.966198  -0.004
C  C82  1  0.93395873  0.25829183  0.58945684  1  0.046576  0.080309  0.005428  3.962754  0.004
C  C83  1  0.69215095  0.58889458  0.24214438  1  0.047652  0.082795  0.005694  3.962855  0.005
N  N84  1  0.87901200  0.87102876  0.04755643  1  -0.247409  -0.468537  0.063814  2.945297  0.038
N  N85  1  0.25348370  0.04574493  0.62836717  1  -0.24819  -0.463288  0.024672  2.96341  0.041
N  N86  1  0.80173676  0.62812169  0.45253017  1  -0.250493  -0.468342  -0.024131  2.962306  -0.041
N  N87  1  0.92881787  0.45077085  0.87140616  1  -0.251472  -0.47432  0.061901  2.951121  0.036
N  N88  1  0.12098837  0.12897467  0.95244075  1  -0.247382  -0.468495  0.063825  2.945216  0.038
N  N89  1  0.74651330  0.95425689  0.37163555  1  -0.248254  -0.463359  0.024673  2.96326  0.041
N  N90  1  0.19826200  0.37187929  0.54747070  1  -0.250476  -0.468328  -0.024135  2.962379  -0.041
N  N91  1  0.07118020  0.54922768  0.12859656  1  -0.251451  -0.47424  0.061903  2.950977  0.036
N  N92  1  0.88403016  0.78523133  0.00681488  1  0.093777  0.433795  0.027228  4.480289  0.03
N  N93  1  0.17191192  0.00645074  0.71562619  1  0.092542  0.430835  0.001536  4.46497  0.001
N  N94  1  0.68022862  0.71496667  0.49262096  1  0.093276  0.434292  -0.000275  4.459386  0.0
N  N95  1  0.89202941  0.49223137  0.78599659  1  0.096173  0.437415  0.027205  4.480472  0.03
N  N96  1  0.11596813  0.21476964  0.99318692  1  0.093813  0.433852  0.027225  4.480287  0.03
N  N97  1  0.82808944  0.99354855  0.28437284  1  0.092629  0.430991  0.001535  4.465035  0.001
N  N98  1  0.31977026  0.28503309  0.50737991  1  0.093293  0.434338  -0.000275  4.459428  0.0
N  N99  1  0.10797114  0.50776670  0.21400429  1  0.096248  0.43749  0.027201  4.480467  0.03
N  N100  1  0.91419469  0.03101086  0.19844432  1  -0.250506  -0.468248  -0.026656  2.894604  -0.042
N  N101  1  0.44379105  0.19948327  0.46914579  1  -0.24957  -0.467436  0.02862  2.889481  0.043
N  N102  1  0.14839268  0.46820059  0.29819048  1  -0.250678  -0.472429  0.061028  2.874491  0.038
N  N103  1  0.11663325  0.29934111  0.03208825  1  -0.251941  -0.473198  0.059216  2.878261  0.036
N  N104  1  0.08580775  0.96898515  0.80155470  1  -0.250509  -0.468162  -0.026656  2.89437  -0.042
N  N105  1  0.55620774  0.80051564  0.53085693  1  -0.249537  -0.467364  0.028617  2.889471  0.043
N  N106  1  0.85161064  0.53179535  0.70181132  1  -0.250581  -0.472258  0.061039  2.874454  0.038
N  N107  1  0.88336392  0.70066025  0.96791724  1  -0.251871  -0.473086  0.059233  2.878252  0.036
N  N108  1  0.22641002  0.84321266  0.99919615  1  -0.320828  -0.24863  0.031838  3.551903  0.016
N  N109  1  0.56948576  0.99944563  0.65653345  1  -0.322638  -0.249836  -0.030655  3.551401  -0.016
N  N110  1  0.06819852  0.65681506  0.50100637  1  -0.320315  -0.246885  0.032421  3.547399  0.017
N  N111  1  0.22511383  0.50136646  0.84293970  1  -0.323344  -0.250527  0.033276  3.548745  0.017
N  N112  1  0.77359551  0.15678732  0.00080195  1  -0.320803  -0.248657  0.031837  3.551883  0.016
N  N113  1  0.43051526  0.00055244  0.34346650  1  -0.322647  -0.249812  -0.030654  3.551411  -0.016
N  N114  1  0.93179973  0.34318516  0.49899266  1  -0.320301  -0.246851  0.03242  3.547549  0.017
N  N115  1  0.77488699  0.49863199  0.15706209  1  -0.323326  -0.250494  0.033276  3.54869  0.017
