# generated using pymatgen
data_CuH22C22(N4O)4
_symmetry_space_group_name_H-M   'P 1'
_cell_length_a   7.03622401
_cell_length_b   7.62418938
_cell_length_c   12.87064899
_cell_angle_alpha   89.08078707
_cell_angle_beta   106.03947778
_cell_angle_gamma   96.72951178
_symmetry_Int_Tables_number   1
_chemical_formula_structural   CuH22C22(N4O)4
_chemical_formula_sum   'Cu1 H22 C22 N16 O4'
_cell_volume   658.90594750
_cell_formula_units_Z   1
loop_
 _symmetry_equiv_pos_site_id
 _symmetry_equiv_pos_as_xyz
  1  'x, y, z'
loop_
 _atom_site_type_symbol
 _atom_site_label
 _atom_site_symmetry_multiplicity
 _atom_site_fract_x
 _atom_site_fract_y
 _atom_site_fract_z
 _atom_site_occupancy
 _atom_site_hle17_ddec_charge
 _atom_site_hle17_ddec_spin_density
 _atom_site_hle17_ddec_sum_bond_order
 _atom_site_hle17_magmom
 _atom_site_hse06_10hf_ddec_charge
 _atom_site_hse06_10hf_ddec_spin_density
 _atom_site_hse06_10hf_ddec_sum_bond_order
 _atom_site_hse06_10hf_magmom
 _atom_site_hse06_ddec_charge
 _atom_site_hse06_ddec_spin_density
 _atom_site_hse06_ddec_sum_bond_order
 _atom_site_hse06_magmom
 _atom_site_pbe_cm5_charge
 _atom_site_pbe_ddec_charge
 _atom_site_pbe_ddec_spin_density
 _atom_site_pbe_ddec_sum_bond_order
 _atom_site_pbe_magmom
Cu  Cu0  1  0.50000070  0.50000973  0.49999909  1  0.885121  0.693952  1.921713  0.502  0.880107  0.783924  2.312853  0.632  0.963145  0.850665  2.247112  0.718  0.808117  0.829711  0.733675  2.356703  0.572
H  H1  1  0.39464365  0.83041013  0.95050330  1  0.339102  -2.4e-05  0.923652  0.0  0.316417  -7e-06  0.99612  0.0  0.32462  -7e-06  0.989153  0.0  0.296155  0.310606  -6e-06  1.001096  0.0
H  H2  1  0.60536445  0.16958154  0.04949740  1  0.339115  -2.3e-05  0.923564  0.0  0.316419  -7e-06  0.996053  0.0  0.324624  -7e-06  0.989085  0.0  0.29618  0.310611  -6e-06  1.001027  0.0
H  H3  1  0.63155847  0.84871493  0.04514282  1  0.340231  5.9e-05  0.900909  0.0  0.320801  4.6e-05  0.966221  0.0  0.328662  2.9e-05  0.959958  0.0  0.303516  0.315195  6.1e-05  0.970783  0.0
H  H4  1  0.36844176  0.15127261  0.95486293  1  0.340225  6e-05  0.900934  0.0  0.320862  4.6e-05  0.966162  0.0  0.328726  2.9e-05  0.959896  0.0  0.303564  0.315255  6.1e-05  0.970733  0.0
H  H5  1  0.67694338  0.61856880  0.73068561  1  0.101077  0.001367  0.937869  0.002  0.106405  0.001063  1.007401  0.002  0.108467  0.00071  1.004597  0.001  0.124255  0.104623  0.001349  1.009686  0.002
H  H6  1  0.32305482  0.38143736  0.26931519  1  0.101078  0.001367  0.937844  0.002  0.106373  0.001063  1.007409  0.002  0.108435  0.00071  1.004604  0.001  0.124223  0.104587  0.001349  1.009695  0.002
H  H7  1  0.19230503  0.57504724  0.87914755  1  0.109045  0.000344  0.940828  0.001  0.118971  4.6e-05  1.001075  0.0  0.121735  -1.6e-05  0.999073  0.0  0.113545  0.116921  0.000113  1.002604  0.0
H  H8  1  0.80769683  0.42494169  0.12085611  1  0.108999  0.000345  0.940897  0.001  0.118941  4.5e-05  1.001136  0.0  0.121704  -1.7e-05  0.999135  0.0  0.113527  0.116892  0.000113  1.002666  0.0
H  H9  1  0.96655566  0.45414391  0.70115425  1  0.113989  0.000544  0.974207  0.001  0.122221  0.000537  1.035923  0.001  0.124558  0.000376  1.03632  0.0  0.107601  0.12042  0.000675  1.035988  0.001
H  H10  1  0.03344808  0.54585972  0.29884348  1  0.11399  0.000544  0.974237  0.001  0.122217  0.000537  1.035966  0.001  0.124556  0.000376  1.036363  0.0  0.107587  0.120418  0.000675  1.036028  0.001
H  H11  1  0.11427506  0.41881678  0.54761918  1  0.085365  0.001047  0.964944  0.002  0.092551  0.000904  1.033421  0.001  0.093805  0.000598  1.031959  0.001  0.118924  0.091318  0.001146  1.034781  0.002
H  H12  1  0.88572911  0.58120140  0.45237784  1  0.085504  0.001047  0.964747  0.002  0.092608  0.000904  1.033318  0.001  0.09386  0.000598  1.031862  0.001  0.118927  0.091371  0.001146  1.034689  0.002
H  H13  1  0.79815986  0.41211810  0.90015788  1  0.34923  1e-06  0.9136  0.0  0.325302  7e-06  0.984385  0.0  0.334789  4e-06  0.976018  0.0  0.300193  0.31866  1.3e-05  0.990232  0.0
H  H14  1  0.20183718  0.58786832  0.09984041  1  0.349236  1e-06  0.913626  0.0  0.32531  7e-06  0.984408  0.0  0.334798  4e-06  0.976041  0.0  0.30017  0.318664  1.3e-05  0.990261  0.0
H  H15  1  0.99824084  0.28778238  0.94077627  1  0.350576  -2e-06  0.908133  0.0  0.326788  -3e-06  0.978547  0.0  0.335688  -3e-06  0.970752  0.0  0.301436  0.320525  -0.0  0.984039  0.0
H  H16  1  0.00175786  0.71220531  0.05922382  1  0.350454  -1e-06  0.908275  0.0  0.326691  -3e-06  0.978658  0.0  0.335592  -3e-06  0.970863  0.0  0.301422  0.320431  -0.0  0.984149  0.0
H  H17  1  0.31586936  0.12015622  0.66031407  1  0.101254  -7e-05  0.943921  0.0  0.117008  -2.5e-05  1.010571  0.0  0.117027  -3.8e-05  1.011304  0.0  0.10458  0.116827  -8e-06  1.010191  0.0
H  H18  1  0.68413143  0.87984736  0.33968477  1  0.10128  -7e-05  0.943988  0.0  0.11704  -2.5e-05  1.010626  0.0  0.117057  -3.8e-05  1.011355  0.0  0.10457  0.116858  -8e-06  1.010246  0.0
H  H19  1  0.36026316  0.95390827  0.76122897  1  0.090656  -6e-06  0.970627  0.0  0.1059  -1.2e-05  1.038294  0.0  0.106199  -1e-05  1.038791  0.0  0.096439  0.105666  -1.5e-05  1.037964  0.0
H  H20  1  0.63973228  0.04608886  0.23876364  1  0.090674  -5e-06  0.97073  0.0  0.105921  -1.2e-05  1.038391  0.0  0.106222  -1e-05  1.038887  0.0  0.096428  0.105688  -1.5e-05  1.038058  0.0
H  H21  1  0.51415451  0.98541915  0.67013202  1  0.087563  -0.000175  0.969286  0.0  0.100624  -7.7e-05  1.040716  0.0  0.100355  -7.5e-05  1.041546  0.0  0.09946  0.100577  -7.8e-05  1.04037  0.0
H  H22  1  0.48584296  0.01458184  0.32986478  1  0.087633  -0.000175  0.969236  0.0  0.100684  -7.8e-05  1.040655  0.0  0.100416  -7.5e-05  1.041485  0.0  0.099496  0.100639  -7.8e-05  1.040308  0.0
C  C23  1  0.25308212  0.80664071  0.43869333  1  0.504244  -0.011894  3.97005  -0.006  0.481534  0.003505  4.257886  0.008  0.513573  0.001969  4.267446  0.007  0.313697  0.459523  0.004518  4.250653  0.008
C  C24  1  0.74690635  0.19338123  0.56130838  1  0.504432  -0.011887  3.970268  -0.006  0.481681  0.0035  4.258127  0.008  0.513721  0.001967  4.267689  0.007  0.313776  0.459676  0.004515  4.250887  0.008
C  C25  1  0.19847899  0.10069606  0.43262143  1  0.478694  -0.019306  3.990328  -0.015  0.450557  -0.00348  4.296  -0.003  0.478185  -0.003222  4.306456  -0.003  0.290509  0.431769  -0.003856  4.287845  -0.003
C  C26  1  0.80151605  0.89930885  0.56737657  1  0.478471  -0.019286  3.990928  -0.015  0.450293  -0.003479  4.296586  -0.003  0.477919  -0.003218  4.307044  -0.003  0.290424  0.431512  -0.003852  4.288428  -0.003
C  C27  1  0.52158155  0.58123596  0.72851124  1  0.129945  -0.011648  3.648037  -0.008  0.0868  -0.002866  3.907703  -0.002  0.098557  -0.004855  3.923937  -0.003  0.062106  0.079264  -0.00135  3.897281  -0.001
C  C28  1  0.47842221  0.41876758  0.27148960  1  0.129934  -0.01165  3.648176  -0.008  0.086825  -0.002866  3.907864  -0.002  0.098586  -0.004852  3.924096  -0.003  0.062122  0.079288  -0.001349  3.897436  -0.001
C  C29  1  0.45245034  0.60416585  0.81878548  1  -0.11518  0.009707  3.750378  0.011  -0.087398  0.004028  3.98612  0.005  -0.09935  0.003541  4.007721  0.004  -0.006312  -0.079924  0.004398  3.971897  0.005
C  C30  1  0.54754647  0.39582972  0.18121589  1  -0.115348  0.009709  3.750541  0.011  -0.087582  0.004027  3.986424  0.005  -0.099529  0.00354  4.008031  0.004  -0.0064  -0.080112  0.004397  3.972194  0.005
C  C31  1  0.25015965  0.55926189  0.81004845  1  -0.006379  -0.012696  3.673784  -0.008  -0.035907  -0.004765  3.916951  -0.003  -0.029248  -0.005423  3.93256  -0.003  -0.057924  -0.0402  -0.004183  3.906643  -0.002
C  C32  1  0.74984454  0.44073371  0.18995323  1  -0.006214  -0.012704  3.673689  -0.008  -0.035736  -0.004766  3.916855  -0.003  -0.029073  -0.005422  3.932459  -0.003  -0.057883  -0.040032  -0.004183  3.906541  -0.002
C  C33  1  0.12488677  0.49134738  0.71213340  1  -0.09902  0.009994  3.701119  0.01  -0.107973  0.004047  3.944479  0.005  -0.116239  0.003634  3.96548  0.004  -0.07848  -0.102914  0.004355  3.930867  0.005
C  C34  1  0.87511680  0.50865487  0.28786664  1  -0.099057  0.009995  3.701207  0.01  -0.108012  0.004047  3.944559  0.005  -0.116277  0.003633  3.965558  0.004  -0.078484  -0.102953  0.004354  3.930942  0.005
C  C35  1  0.20446643  0.47287563  0.62586285  1  0.132324  -0.010519  3.66229  -0.007  0.102254  -0.002437  3.912018  -0.001  0.111993  -0.004329  3.931249  -0.003  0.054172  0.095984  -0.00102  3.899705  0.0
C  C36  1  0.79553635  0.52713194  0.37413552  1  0.132129  -0.010523  3.662378  -0.007  0.102125  -0.002437  3.91209  -0.001  0.111862  -0.004327  3.93132  -0.003  0.054138  0.095845  -0.00102  3.899784  0.0
C  C37  1  0.59722496  0.67589631  0.92119329  1  0.623969  0.000579  3.85729  0.0  0.568157  0.000589  4.153757  0.001  0.598658  0.000379  4.153007  0.0  0.245585  0.547641  0.000798  4.1536  0.001
C  C38  1  0.40278707  0.32409132  0.07881110  1  0.624019  0.000578  3.857327  0.0  0.568028  0.000589  4.15406  0.001  0.598504  0.000379  4.153362  0.0  0.245478  0.547516  0.000797  4.153885  0.001
C  C39  1  0.99332843  0.97948269  0.85727833  1  0.517159  -2.9e-05  3.970821  0.0  0.484764  -1.3e-05  4.255643  0.0  0.509497  -2.1e-05  4.266872  0.0  0.295557  0.467822  4e-06  4.247965  0.0
C  C40  1  0.00666549  0.02050236  0.14272105  1  0.517155  -3e-05  3.970723  0.0  0.484779  -1.3e-05  4.255555  0.0  0.509511  -2.1e-05  4.266781  0.0  0.295657  0.467839  4e-06  4.247884  0.0
C  C41  1  0.74760145  0.16035702  0.83356765  1  0.721307  7e-06  3.848171  0.0  0.657118  -7e-06  4.143851  0.0  0.692196  -5e-06  4.139801  0.0  0.356997  0.633432  2.1e-05  4.145844  0.0
C  C42  1  0.25239465  0.83963332  0.16643205  1  0.721109  6e-06  3.848225  0.0  0.657059  -6e-06  4.143772  0.0  0.692123  -5e-06  4.139739  0.0  0.357002  0.633382  2.1e-05  4.14575  0.0
C  C43  1  0.42972180  0.05043052  0.71486953  1  -0.058864  -0.000111  3.562639  0.0  -0.162007  -7.8e-05  3.82822  0.0  -0.153589  -8.6e-05  3.831095  0.0  -0.142281  -0.167432  -5.3e-05  3.826203  0.0
C  C44  1  0.57027809  0.94956655  0.28512607  1  -0.059053  -0.000112  3.562801  0.0  -0.162176  -7.7e-05  3.828383  0.0  -0.15375  -8.6e-05  3.831253  0.0  -0.142371  -0.167609  -5.4e-05  3.826366  0.0
N  N45  1  0.32483732  0.67647944  0.43005855  1  -0.593811  0.061575  2.957265  0.074  -0.589504  0.037398  3.279152  0.049  -0.622187  0.029596  3.282086  0.041  -0.417903  -0.568408  0.042678  3.277751  0.053
N  N46  1  0.67516767  0.32353333  0.56994325  1  -0.593897  0.06156  2.957619  0.074  -0.589579  0.037401  3.279521  0.049  -0.622258  0.029598  3.282457  0.041  -0.418  -0.568485  0.042679  3.278119  0.053
N  N47  1  0.15242077  0.93321642  0.44552358  1  -0.434144  0.026978  3.306396  0.034  -0.391666  0.006557  3.5677  0.009  -0.418766  0.003203  3.573178  0.005  -0.301169  -0.37199  0.01054  3.562342  0.014
N  N48  1  0.84757126  0.06679894  0.55447787  1  -0.434283  0.026987  3.306129  0.034  -0.391744  0.006559  3.567395  0.009  -0.418856  0.003204  3.572885  0.005  -0.301128  -0.372063  0.010542  3.562031  0.014
N  N49  1  0.22634733  0.25518946  0.42370500  1  -0.579172  0.024774  2.709656  0.03  -0.58  0.003928  2.994288  0.006  -0.602151  0.001673  2.999556  0.004  -0.369973  -0.564282  0.007169  2.990233  0.01
N  N50  1  0.77365034  0.74483521  0.57629495  1  -0.578932  0.02475  2.710253  0.03  -0.579756  0.003925  2.994919  0.006  -0.6019  0.00167  3.000183  0.004  -0.369964  -0.564035  0.007163  2.990859  0.01
N  N51  1  0.39884272  0.51852267  0.63403615  1  -0.289017  0.081415  3.323192  0.103  -0.234423  0.058698  3.606591  0.081  -0.267688  0.046782  3.631957  0.07  -0.330597  -0.214571  0.065189  3.591186  0.086
N  N52  1  0.60115894  0.48148749  0.36596361  1  -0.288874  0.081406  3.323227  0.103  -0.234252  0.058693  3.606555  0.081  -0.267515  0.046778  3.631921  0.07  -0.330514  -0.214401  0.065186  3.591142  0.086
N  N53  1  0.53088698  0.78417960  0.98015314  1  -0.664704  0.000694  3.098246  0.001  -0.628557  0.00034  3.341293  0.0  -0.651827  0.00026  3.336972  0.0  -0.560409  -0.612594  0.000418  3.344052  0.001
N  N54  1  0.46911446  0.21581721  0.01985201  1  -0.664636  0.000691  3.098361  0.001  -0.628492  0.000339  3.341411  0.0  -0.651753  0.000261  3.337103  0.0  -0.560401  -0.612539  0.000418  3.344171  0.001
N  N55  1  0.15766818  0.94236640  0.88956620  1  -0.606016  1e-06  2.684032  0.0  -0.56968  9e-06  2.921945  0.0  -0.587115  -1.3e-05  2.928401  0.0  -0.366106  -0.557709  3.1e-05  2.917717  0.0
N  N56  1  0.84232809  0.05762525  0.11043353  1  -0.606047  1e-06  2.684103  0.0  -0.569668  9e-06  2.921967  0.0  -0.587113  -1.2e-05  2.928446  0.0  -0.366134  -0.557704  3.1e-05  2.917742  0.0
N  N57  1  0.80907724  0.00742499  0.81774956  1  -0.562666  -5.8e-05  3.173821  0.0  -0.511909  3.7e-05  3.443239  0.0  -0.538951  1.7e-05  3.449956  0.0  -0.336557  -0.493362  5.5e-05  3.438172  0.0
N  N58  1  0.19091834  0.99256136  0.18225084  1  -0.562519  -5.7e-05  3.173704  0.0  -0.511853  3.7e-05  3.443133  0.0  -0.538889  1.7e-05  3.449856  0.0  -0.336609  -0.493289  5.4e-05  3.437992  0.0
N  N59  1  0.85785101  0.29793957  0.89110802  1  -0.70926  2.7e-05  3.105158  0.0  -0.67232  2.8e-05  3.353197  0.0  -0.694608  8e-06  3.344117  0.0  -0.563096  -0.657043  4.9e-05  3.359184  0.0
N  N60  1  0.14215213  0.70204813  0.10889272  1  -0.709084  2.7e-05  3.105383  0.0  -0.672209  2.7e-05  3.353368  0.0  -0.694493  8e-06  3.344293  0.0  -0.563074  -0.656945  4.9e-05  3.359354  0.0
O  O61  1  0.77114325  0.63196762  0.94857085  1  -0.602283  0.000525  1.960644  0.001  -0.539609  0.00014  2.175914  0.0  -0.563728  9.7e-05  2.169307  0.0  -0.295242  -0.522807  0.000238  2.179884  0.0
O  O62  1  0.22885103  0.36802003  0.05143014  1  -0.602392  0.000526  1.960457  0.001  -0.539611  0.000141  2.175776  0.0  -0.56372  9.7e-05  2.169178  0.0  -0.295187  -0.522809  0.000237  2.179738  0.0
O  O63  1  0.55801735  0.18523523  0.78802380  1  -0.297753  -6.4e-05  2.314548  0.0  -0.213254  -9.3e-05  2.552789  0.0  -0.234672  -0.000105  2.554165  0.0  -0.162686  -0.198369  -8.1e-05  2.551268  0.0
O  O64  1  0.44198188  0.81475642  0.21197636  1  -0.29768  -6.4e-05  2.314514  0.0  -0.213256  -9.4e-05  2.552733  0.0  -0.23468  -0.000106  2.554123  0.0  -0.162645  -0.198372  -8.2e-05  2.551203  0.0
