# generated using pymatgen
data_ZnH12C14S2(NO2)2
_symmetry_space_group_name_H-M   'P 1'
_cell_length_a   8.38804691
_cell_length_b   8.53454724
_cell_length_c   13.52513370
_cell_angle_alpha   75.24050694
_cell_angle_beta   71.91695349
_cell_angle_gamma   60.54677890
_symmetry_Int_Tables_number   1
_chemical_formula_structural   ZnH12C14S2(NO2)2
_chemical_formula_sum   'Zn2 H24 C28 S4 N4 O8'
_cell_volume   795.33448166
_cell_formula_units_Z   2
loop_
 _symmetry_equiv_pos_site_id
 _symmetry_equiv_pos_as_xyz
  1  'x, y, z'
loop_
 _atom_site_type_symbol
 _atom_site_label
 _atom_site_symmetry_multiplicity
 _atom_site_fract_x
 _atom_site_fract_y
 _atom_site_fract_z
 _atom_site_occupancy
 _atom_site_hle17_bader_spin_density
 _atom_site_hle17_ddec_charge
 _atom_site_hle17_ddec_spin_density
 _atom_site_hle17_ddec_sum_bond_order
 _atom_site_hle17_magmom
 _atom_site_hse06_10hf_bader_spin_density
 _atom_site_hse06_10hf_ddec_charge
 _atom_site_hse06_10hf_ddec_spin_density
 _atom_site_hse06_10hf_ddec_sum_bond_order
 _atom_site_hse06_10hf_magmom
 _atom_site_hse06_bader_spin_density
 _atom_site_hse06_ddec_charge
 _atom_site_hse06_ddec_spin_density
 _atom_site_hse06_ddec_sum_bond_order
 _atom_site_hse06_magmom
 _atom_site_pbe_bader_spin_density
 _atom_site_pbe_cm5_charge
 _atom_site_pbe_ddec_charge
 _atom_site_pbe_ddec_spin_density
 _atom_site_pbe_ddec_sum_bond_order
 _atom_site_pbe_magmom
Zn  Zn0  1  0.93622400  0.25008507  0.75002054  1  0  0.987503  0  1.885373  0  0  0.794762  0  2.369247  0  0  0.842621  0  2.31386  0  0  0.69077  0.76144  0  2.407136  0
Zn  Zn1  1  0.06377618  0.74991471  0.24998012  1  0  0.987495  0  1.885386  0  0  0.794745  0  2.369265  0  0  0.842596  0  2.313875  0  0  0.690778  0.761422  0  2.407153  0
H  H2  1  0.53431422  0.76741008  0.70277207  1  0  0.126859  0  0.947201  0  0  0.134054  0  1.017323  0  0  0.137014  0  1.015836  0  0  0.102119  0.131995  0  1.018404  0
H  H3  1  0.99510991  0.26755180  0.20293568  1  0  0.126697  0  0.948549  0  0  0.134129  0  1.018177  0  0  0.137095  0  1.016745  0  0  0.102033  0.132107  0  1.019242  0
H  H4  1  0.46568914  0.23258562  0.29723010  1  0  0.126888  0  0.947192  0  0  0.134082  0  1.017308  0  0  0.137041  0  1.015821  0  0  0.102136  0.132026  0  1.01839  0
H  H5  1  0.00489101  0.73244799  0.79706424  1  0  0.126728  0  0.948552  0  0  0.134156  0  1.018167  0  0  0.137119  0  1.016735  0  0  0.102041  0.132133  0  1.019232  0
H  H6  1  0.53304691  0.81738886  0.56701822  1  0  0.137951  0  0.950987  0  0  0.146971  0  1.016185  0  0  0.149996  0  1.014092  0  0  0.106617  0.144814  0  1.017732  0
H  H7  1  0.08227451  0.31735871  0.06714136  1  0  0.13806  0  0.951255  0  0  0.147028  0  1.016337  0  0  0.150075  0  1.014298  0  0  0.106817  0.144888  0  1.017879  0
H  H8  1  0.46695390  0.18260957  0.43298253  1  0  0.137951  0  0.95099  0  0  0.146982  0  1.016168  0  0  0.150008  0  1.014074  0  0  0.106618  0.144824  0  1.017721  0
H  H9  1  0.91772741  0.68263837  0.93285777  1  0  0.138097  0  0.951248  0  0  0.147048  0  1.016339  0  0  0.150093  0  1.014299  0  0  0.106823  0.144908  0  1.017881  0
H  H10  1  0.31286586  0.92813755  0.47982636  1  0  0.125343  0  0.953299  0  0  0.135989  0  1.01006  0  0  0.139312  0  1.009347  0  0  0.112551  0.133553  0  1.010824  0
H  H11  1  0.27890145  0.42781733  0.97994482  1  0  0.12527  0  0.953002  0  0  0.135983  0  1.009792  0  0  0.139306  0  1.009107  0  0  0.112584  0.133545  0  1.010523  0
H  H12  1  0.68713607  0.07186224  0.52017380  1  0  0.12536  0  0.953316  0  0  0.135987  0  1.010087  0  0  0.139308  0  1.00938  0  0  0.112552  0.133552  0  1.010852  0
H  H13  1  0.72109633  0.57218110  0.02005520  1  0  0.125233  0  0.953046  0  0  0.135977  0  1.009804  0  0  0.139301  0  1.009118  0  0  0.112571  0.13354  0  1.010536  0
H  H14  1  0.19599618  0.95163665  0.32805580  1  0  0.066794  0  0.972435  0  0  0.075052  0  1.041621  0  0  0.07773  0  1.038565  0  0  0.106724  0.073041  0  1.043922  0
H  H15  1  0.52402698  0.45148409  0.82813341  1  0  0.066764  0  0.972108  0  0  0.074919  0  1.041374  0  0  0.077609  0  1.038356  0  0  0.106629  0.072916  0  1.04363  0
H  H16  1  0.80400538  0.04836178  0.67194422  1  0  0.066779  0  0.97244  0  0  0.07504  0  1.041623  0  0  0.077718  0  1.038568  0  0  0.106718  0.073029  0  1.043924  0
H  H17  1  0.47597080  0.54851434  0.17186662  1  0  0.066756  0  0.972127  0  0  0.07491  0  1.041395  0  0  0.077599  0  1.038377  0  0  0.106636  0.072908  0  1.043649  0
H  H18  1  0.13573328  0.48009052  0.44184707  1  0  0.088423  0  0.935094  0  0  0.100243  0  0.99367  0  0  0.102405  0  0.991748  0  0  0.121685  0.098593  0  0.995209  0
H  H19  1  0.94252799  0.98040035  0.94195191  1  0  0.088182  0  0.934766  0  0  0.099607  0  0.993923  0  0  0.101849  0  0.991906  0  0  0.12148  0.097903  0  0.995534  0
H  H20  1  0.86426526  0.51991062  0.55815326  1  0  0.088427  0  0.935086  0  0  0.100243  0  0.993665  0  0  0.102407  0  0.991744  0  0  0.121676  0.098594  0  0.995204  0
H  H21  1  0.05747093  0.01960214  0.05804857  1  0  0.088157  0  0.934813  0  0  0.09961  0  0.993927  0  0  0.101851  0  0.99191  0  0  0.121478  0.097905  0  0.995537  0
H  H22  1  0.24180212  0.43653018  0.60188804  1  0  0.13153  0  0.950388  0  0  0.139606  0  1.011879  0  0  0.143767  0  1.009712  0  0  0.109278  0.13659  0  1.013631  0
H  H23  1  0.72003643  0.93659799  0.10205883  1  0  0.132051  0  0.950742  0  0  0.139939  0  1.012397  0  0  0.144123  0  1.01018  0  0  0.109316  0.136926  0  1.014154  0
H  H24  1  0.75820045  0.56346825  0.39811222  1  0  0.131509  0  0.950406  0  0  0.139627  0  1.01186  0  0  0.14379  0  1.009688  0  0  0.109272  0.136611  0  1.013613  0
H  H25  1  0.27996350  0.06340450  0.89794189  1  0  0.132055  0  0.950751  0  0  0.139946  0  1.012407  0  0  0.14413  0  1.01019  0  0  0.109318  0.136934  0  1.014162  0
C  C26  1  0.28587275  0.00214285  0.66632129  1  0  0.688234  0  3.895077  0  0  0.6437  0  4.192368  0  0  0.676753  0  4.186068  0  0  0.194089  0.621256  0  4.195813  0
C  C27  1  0.04559999  0.50205047  0.16635441  1  0  0.688161  0  3.896722  0  0  0.64378  0  4.194061  0  0  0.676919  0  4.187691  0  0  0.193329  0.621342  0  4.197535  0
C  C28  1  0.71412604  0.99785558  0.33367898  1  0  0.688215  0  3.895083  0  0  0.643669  0  4.192392  0  0  0.676721  0  4.186092  0  0  0.194088  0.621232  0  4.195836  0
C  C29  1  0.95439903  0.49795068  0.83364419  1  0  0.688126  0  3.896663  0  0  0.643727  0  4.194018  0  0  0.676863  0  4.187651  0  0  0.193297  0.621288  0  4.197493  0
C  C30  1  0.44512323  0.81321571  0.64612612  1  0  -0.317939  0  3.628517  0  0  -0.345393  0  3.874817  0  0  -0.350604  0  3.880394  0  0  -0.153377  -0.341927  0  3.871041  0
C  C31  1  0.09527599  0.31316264  0.14623780  1  0  -0.318516  0  3.629709  0  0  -0.345891  0  3.875591  0  0  -0.351212  0  3.881242  0  0  -0.153456  -0.342572  0  3.872087  0
C  C32  1  0.55487748  0.18678136  0.35387547  1  0  -0.317945  0  3.62844  0  0  -0.345411  0  3.874757  0  0  -0.350621  0  3.880333  0  0  -0.153393  -0.341961  0  3.871011  0
C  C33  1  0.90472266  0.68683986  0.85376168  1  0  -0.318575  0  3.629711  0  0  -0.345904  0  3.875535  0  0  -0.351217  0  3.881175  0  0  -0.153441  -0.342581  0  3.872024  0
C  C34  1  0.28592263  0.68039627  0.55629605  1  0  0.089294  0  3.783276  0  0  0.10207  0  4.043134  0  0  0.109938  0  4.06406  0  0  0.011029  0.09681  0  4.02892  0
C  C35  1  0.47733906  0.18017850  0.05641605  1  0  0.088233  0  3.783738  0  0  0.10143  0  4.043047  0  0  0.109363  0  4.063862  0  0  0.011099  0.096123  0  4.028907  0
C  C36  1  0.71407692  0.31960486  0.44370452  1  0  0.089358  0  3.783155  0  0  0.102119  0  4.043047  0  0  0.109987  0  4.063972  0  0  0.011065  0.096859  0  4.028832  0
C  C37  1  0.52266049  0.81982264  0.94358452  1  0  0.0883  0  3.78365  0  0  0.101469  0  4.043012  0  0  0.109403  0  4.063828  0  0  0.011116  0.096162  0  4.028873  0
C  C38  1  0.27253406  0.82650167  0.47675929  1  0  -0.166502  0  3.703421  0  0  -0.183715  0  3.949559  0  0  -0.192463  0  3.970386  0  0  -0.089932  -0.17814  0  3.93574  0
C  C39  1  0.42400945  0.32620627  0.97685141  1  0  -0.165376  0  3.703791  0  0  -0.18278  0  3.949736  0  0  -0.191587  0  3.970619  0  0  -0.09008  -0.177157  0  3.935883  0
C  C40  1  0.72746538  0.17349811  0.52324211  1  0  -0.166588  0  3.703399  0  0  -0.183778  0  3.949549  0  0  -0.192526  0  3.970374  0  0  -0.089962  -0.178205  0  3.935735  0
C  C41  1  0.57598797  0.67379352  0.02314950  1  0  -0.165387  0  3.703824  0  0  -0.182811  0  3.94977  0  0  -0.191621  0  3.970655  0  0  -0.090088  -0.177192  0  3.935922  0
C  C42  1  0.20792075  0.83984044  0.39084081  1  0  0.137082  0  3.733499  0  0  0.104399  0  3.988181  0  0  0.113155  0  4.005158  0  0  0.043165  0.098729  0  3.976611  0
C  C43  1  0.56121335  0.33967405  0.89090856  1  0  0.136389  0  3.735428  0  0  0.103643  0  3.990169  0  0  0.112424  0  4.007191  0  0  0.042955  0.097944  0  3.978576  0
C  C44  1  0.79207908  0.16016070  0.60916074  1  0  0.137124  0  3.733494  0  0  0.104444  0  3.98817  0  0  0.1132  0  4.005148  0  0  0.043174  0.098773  0  3.976599  0
C  C45  1  0.43878418  0.66032710  0.10909152  1  0  0.136409  0  3.735453  0  0  0.103668  0  3.990189  0  0  0.112449  0  4.007212  0  0  0.04298  0.097967  0  3.978598  0
C  C46  1  0.17207559  0.57816817  0.45508934  1  0  0.134666  0  3.716061  0  0  0.101122  0  3.972914  0  0  0.10999  0  3.989202  0  0  0.043205  0.095302  0  3.961898  0
C  C47  1  0.79475456  0.07831231  0.95522969  1  0  0.135009  0  3.716397  0  0  0.101731  0  3.972673  0  0  0.110556  0  3.989015  0  0  0.043125  0.095937  0  3.96164  0
C  C48  1  0.82792523  0.42183026  0.54491141  1  0  0.134656  0  3.716217  0  0  0.101113  0  3.973077  0  0  0.109977  0  3.989371  0  0  0.04326  0.095294  0  3.962061  0
C  C49  1  0.20524499  0.92168883  0.04477088  1  0  0.134953  0  3.716479  0  0  0.101662  0  3.97275  0  0  0.110487  0  3.989093  0  0  0.043095  0.095869  0  3.961717  0
C  C50  1  0.23209675  0.55481937  0.54446450  1  0  -0.162326  0  3.695932  0  0  -0.18237  0  3.95044  0  0  -0.190598  0  3.969581  0  0  -0.088862  -0.177167  0  3.937848  0
C  C51  1  0.66878068  0.05484060  0.04462544  1  0  -0.162531  0  3.699042  0  0  -0.182517  0  3.952947  0  0  -0.190772  0  3.972111  0  0  -0.088447  -0.17732  0  3.940378  0
C  C52  1  0.76790683  0.44517905  0.45553600  1  0  -0.162334  0  3.696048  0  0  -0.182415  0  3.950554  0  0  -0.190646  0  3.969699  0  0  -0.088908  -0.177212  0  3.937961  0
C  C53  1  0.33121813  0.94516053  0.95537587  1  0  -0.162539  0  3.699046  0  0  -0.182531  0  3.952972  0  0  -0.190787  0  3.972138  0  0  -0.088438  -0.177333  0  3.940402  0
S  S54  1  0.36959658  0.64022562  0.66719154  1  0  0.068484  0  2.460812  0  0  0.072215  0  2.78788  0  0  0.066065  0  2.789252  0  0  0.048606  0.076816  0  2.786897  0
S  S55  1  0.32279961  0.14000200  0.16728569  1  0  0.068719  0  2.457988  0  0  0.072152  0  2.784966  0  0  0.066053  0  2.786338  0  0  0.048098  0.076809  0  2.784069  0
S  S56  1  0.63040435  0.35977417  0.33280838  1  0  0.068449  0  2.460733  0  0  0.072181  0  2.787811  0  0  0.066032  0  2.789182  0  0  0.048589  0.076789  0  2.786836  0
S  S57  1  0.67719929  0.85999779  0.83271374  1  0  0.068705  0  2.457993  0  0  0.072138  0  2.784962  0  0  0.066036  0  2.786331  0  0  0.04808  0.076796  0  2.784064  0
N  N58  1  0.15893407  0.71860435  0.37867594  1  0  -0.36416  0  3.349925  0  0  -0.28221  0  3.635075  0  0  -0.301948  0  3.649185  0  0  -0.348583  -0.268967  0  3.625327  0
N  N59  1  0.74372779  0.21864149  0.87877056  1  0  -0.363852  0  3.350535  0  0  -0.281489  0  3.635146  0  0  -0.301367  0  3.649392  0  0  -0.348061  -0.268149  0  3.625307  0
N  N60  1  0.84106548  0.28139679  0.62132463  1  0  -0.364146  0  3.349981  0  0  -0.282203  0  3.635144  0  0  -0.301943  0  3.649259  0  0  -0.348592  -0.26896  0  3.625395  0
N  N61  1  0.25626974  0.78135965  0.12122952  1  0  -0.363785  0  3.350549  0  0  -0.28142  0  3.635142  0  0  -0.301296  0  3.649388  0  0  -0.348066  -0.268081  0  3.625303  0
O  O62  1  0.15228909  0.00757798  0.74777581  1  0  -0.663159  0  2.040281  0  0  -0.592546  0  2.316685  0  0  -0.621857  0  2.302338  0  0  -0.343199  -0.571958  0  2.32567  0
O  O63  1  0.09258657  0.50741554  0.24769064  1  0  -0.662873  0  2.042987  0  0  -0.592385  0  2.319251  0  0  -0.621773  0  2.305004  0  0  -0.342339  -0.571779  0  2.328225  0
O  O64  1  0.84770896  0.99242044  0.25222520  1  0  -0.663123  0  2.04033  0  0  -0.592494  0  2.316722  0  0  -0.62181  0  2.302394  0  0  -0.343174  -0.571902  0  2.325694  0
O  O65  1  0.90741368  0.49258833  0.75230654  1  0  -0.662908  0  2.043023  0  0  -0.592428  0  2.319311  0  0  -0.621819  0  2.305068  0  0  -0.342361  -0.571822  0  2.328287  0
O  O66  1  0.29362765  0.13685625  0.60564181  1  0  -0.614152  0  1.891753  0  0  -0.566383  0  2.110238  0  0  -0.589753  0  2.101915  0  0  -0.320254  -0.549876  0  2.115358  0
O  O67  1  0.96359525  0.63682452  0.10577201  1  0  -0.614299  0  1.89024  0  0  -0.566826  0  2.109061  0  0  -0.590157  0  2.100579  0  0  -0.320705  -0.550349  0  2.114244  0
O  O68  1  0.70637289  0.86314218  0.39435796  1  0  -0.614174  0  1.891735  0  0  -0.566397  0  2.11022  0  0  -0.589761  0  2.101894  0  0  -0.320276  -0.54989  0  2.115339  0
O  O69  1  0.03640450  0.36317663  0.89422585  1  0  -0.61424  0  1.890204  0  0  -0.566768  0  2.109043  0  0  -0.590095  0  2.100557  0  0  -0.32067  -0.550295  0  2.114234  0
