# generated using pymatgen
data_AlH16C25N3ClO8
_symmetry_space_group_name_H-M   'P 1'
_cell_length_a   6.58831126
_cell_length_b   28.22467984
_cell_length_c   31.76797066
_cell_angle_alpha   77.95181680
_cell_angle_beta   90.62122804
_cell_angle_gamma   90.00101243
_symmetry_Int_Tables_number   1
_chemical_formula_structural   AlH16C25N3ClO8
_chemical_formula_sum   'Al4 H64 C100 N12 Cl4 O32'
_cell_volume   5776.86922655
_cell_formula_units_Z   4
loop_
 _symmetry_equiv_pos_site_id
 _symmetry_equiv_pos_as_xyz
  1  'x, y, z'
loop_
 _atom_site_type_symbol
 _atom_site_label
 _atom_site_symmetry_multiplicity
 _atom_site_fract_x
 _atom_site_fract_y
 _atom_site_fract_z
 _atom_site_occupancy
 _atom_site_pbe_bader_charge
 _atom_site_pbe_bader_spin_density
 _atom_site_pbe_cm5_charge
 _atom_site_pbe_ddec_charge
 _atom_site_pbe_ddec_spin_density
 _atom_site_pbe_ddec_sum_bond_order
 _atom_site_pbe_magmom
Al  Al0  1  0.09929362  0.49834087  0.49921717  1  2.5007  0  0.393131  1.639345  0  2.579857  0
Al  Al1  1  0.59844932  0.50254702  0.49833894  1  2.499017  0  0.392694  1.638049  0  2.587529  0
Al  Al2  1  0.71299209  0.00236628  0.00038115  1  2.502542  0  0.397591  1.643447  0  2.578977  0
Al  Al3  1  0.21263180  0.99738763  0.00227391  1  2.498387  0  0.394471  1.644103  0  2.586762  0
H  H4  1  0.18962866  0.60445194  0.39662701  1  0.105144  0  0.111906  0.116928  0  1.00239  0
H  H5  1  0.20838829  0.67094744  0.33020256  1  0.088425  0  0.105099  0.102144  0  1.037349  0
H  H6  1  0.55680921  0.67291686  0.32054301  1  0.108783  0  0.105942  0.103882  0  1.031174  0
H  H7  1  0.53948945  0.60812776  0.38829660  1  0.109558  0  0.110415  0.114722  0  1.0035  0
H  H8  1  0.21885658  0.80546093  0.16301031  1  0.110392  0  0.107318  0.110551  0  1.013715  0
H  H9  1  0.24504907  0.87340862  0.09835551  1  0.1083  0  0.111944  0.120418  0  0.987251  0
H  H10  1  0.64596897  0.92113087  0.12286061  1  0.134113  0  0.115977  0.137011  0  0.985734  0
H  H11  1  0.80821330  0.81991681  0.64352003  1  0.153325  0  0.121569  0.128001  0  0.972795  0
H  H12  1  0.82443480  0.87475100  0.69714427  1  0.094551  0  0.121157  0.127834  0  0.972318  0
H  H13  1  0.97768563  0.68049149  0.85776169  1  0.148016  0  0.121756  0.128325  0  0.971403  0
H  H14  1  0.95134326  0.62552172  0.80435366  1  0.107283  0  0.122005  0.128391  0  0.972511  0
H  H15  1  0.25333562  0.84605797  0.86713326  1  0.077198  0  0.108225  0.112869  0  0.993754  0
H  H16  1  0.27237529  0.89889311  0.92149733  1  0.0868  0  0.109564  0.110337  0  1.005218  0
H  H17  1  0.63153934  0.92596517  0.90691934  1  0.110624  0  0.111852  0.114412  0  0.998105  0
H  H18  1  0.61299802  0.87502689  0.85097330  1  0.063732  0  0.108041  0.11351  0  0.994589  0
H  H19  1  0.56153188  0.66520015  0.62046474  1  0.088092  0  0.112103  0.124048  0  0.97681  0
H  H20  1  0.56276276  0.61101544  0.56780852  1  0.118751  0  0.108686  0.110986  0  1.002902  0
H  H21  1  0.15761075  0.61227729  0.66430758  1  0.100933  0  0.11268  0.13381  0  0.98685  0
H  H22  1  0.78863803  0.21334990  0.33480712  1  0.140961  0  0.118803  0.137782  0  0.982198  0
H  H23  1  0.06798794  0.28968602  0.16365038  1  0.131433  0  0.122326  0.142533  0  0.982565  0
H  H24  1  0.06656641  0.33493349  0.37775931  1  0.098945  0  0.111586  0.123735  0  0.989277  0
H  H25  1  0.05385807  0.39230954  0.42806634  1  0.102983  0  0.11252  0.114554  0  1.006413  0
H  H26  1  0.67718054  0.43055135  0.40135656  1  0.092676  0  0.115363  0.121242  0  0.987955  0
H  H27  1  0.68944490  0.37538967  0.34916152  1  0.097532  0  0.112436  0.122257  0  0.994094  0
H  H28  1  0.15661258  0.11665380  0.16037596  1  0.104681  0  0.111634  0.124798  0  0.98123  0
H  H29  1  0.15449181  0.06319842  0.10638261  1  0.121324  0  0.117404  0.125682  0  0.979794  0
H  H30  1  0.74783877  0.11517418  0.06441968  1  0.136554  0  0.117107  0.136823  0  0.989452  0
H  H31  1  0.66461075  0.30322135  0.65542507  1  0.130422  0  0.111554  0.126837  0  1.003938  0
H  H32  1  0.07088818  0.34748789  0.68873577  1  0.10251  0  0.108013  0.111336  0  1.007232  0
H  H33  1  0.06642506  0.41158844  0.62130485  1  0.119743  0  0.112021  0.11978  0  0.992267  0
H  H34  1  0.74864992  0.09396536  0.88059503  1  0.136395  0  0.115256  0.135698  0  1.002967  0
H  H35  1  0.12492663  0.19288574  0.84518036  1  0.119531  0  0.113765  0.127992  0  1.026107  0
H  H36  1  0.75168470  0.31399543  0.24256575  1  0.047731  0  0.090833  0.051744  0  1.024909  0
H  H37  1  0.77539282  0.31686992  0.18604058  1  0.027917  0  0.096145  0.055696  0  0.985764  0
H  H38  1  0.72406251  0.40641900  0.17201895  1  0.018082  0  0.097681  0.092089  0  0.962065  0
H  H39  1  0.51537219  0.37385294  0.19768897  1  0.025466  0  0.091194  0.084626  0  0.986953  0
H  H40  1  0.63506763  0.39031795  0.26939350  1  0.000599  0  0.078822  0.101961  0  1.036235  0
H  H41  1  0.59351194  0.44504671  0.23119994  1  0.059591  0  0.090678  0.120786  0  0.992967  0
H  H42  1  0.84502628  0.42274468  0.24391434  1  0.047236  0  0.093033  0.134234  0  0.999322  0
H  H43  1  0.58440641  0.36415498  0.52622289  1  0.027037  0  0.097447  0.062035  0  0.986068  0
H  H44  1  0.62579478  0.30708292  0.56233648  1  0.070827  0  0.095178  0.053351  0  0.978032  0
H  H45  1  0.96028760  0.37670178  0.52021777  1  0.037501  0  0.097411  0.095826  0  0.998865  0
H  H46  1  0.00153716  0.32176818  0.55776326  1  0.032438  0  0.091454  0.086335  0  0.971417  0
H  H47  1  0.83230089  0.27583728  0.50608615  1  0.021253  0  0.084954  0.108602  0  1.003184  0
H  H48  1  0.04089612  0.31034495  0.48160178  1  0.030387  0  0.086271  0.114785  0  1.012396  0
H  H49  1  0.78922856  0.33127875  0.46886220  1  0.032701  0  0.085369  0.112686  0  1.012327  0
H  H50  1  0.67791782  0.12270446  0.76456557  1  0.053751  0  0.093428  0.048186  0  1.010083  0
H  H51  1  0.84350296  0.09009551  0.80588405  1  0.057151  0  0.095345  0.05762  0  0.974048  0
H  H52  1  0.96528528  0.17909998  0.73781628  1  0.039888  0  0.092685  0.092237  0  0.967085  0
H  H53  1  0.12944345  0.14339052  0.77641748  1  0.041441  0  0.085392  0.078855  0  1.010399  0
H  H54  1  0.06269088  0.07076017  0.74263919  1  0.027834  0  0.085685  0.110395  0  1.001815  0
H  H55  1  0.16783723  0.11997112  0.70522651  1  0.014763  0  0.087222  0.115266  0  1.001733  0
H  H56  1  0.90407005  0.10743230  0.70329734  1  0.025487  0  0.085568  0.110671  0  1.00136  0
H  H57  1  0.87764690  0.15838762  0.94380844  1  0.053813  0  0.105268  0.075981  0  0.964851  0
H  H58  1  0.06775801  0.19902905  0.91806198  1  0.016785  0  0.099197  0.062211  0  0.98247  0
H  H59  1  0.12916590  0.11966550  0.99982495  1  0.055875  0  0.096304  0.09829  0  0.997272  0
H  H60  1  0.32288833  0.15806024  0.97415343  1  0.028433  0  0.088141  0.082186  0  0.979292  0
H  H61  1  0.13622034  0.23115056  0.98882151  1  0.02685  0  0.084066  0.109919  0  1.001418  0
H  H62  1  0.18347712  0.18830777  0.03741991  1  0.055794  0  0.084901  0.121314  0  1.013454  0
H  H63  1  0.93805161  0.19302448  0.01368389  1  0.032557  0  0.079345  0.102365  0  1.023974  0
H  H64  1  0.33779545  0.55626288  0.51319498  1  0.625927  0  0.347677  0.42512  0  0.86749  0
H  H65  1  0.83722841  0.44322407  0.52989462  1  0.620666  0  0.344786  0.419681  0  0.884742  0
H  H66  1  0.47594162  0.93648806  0.00232147  1  0.606753  0  0.357469  0.436949  0  0.842648  0
H  H67  1  0.97752922  0.05721164  0.96978155  1  0.628466  0  0.34622  0.424313  0  0.88247  0
C  C68  1  0.35880541  0.44807589  0.44811032  1  1.565747  0  0.268553  0.630636  0  4.111284  0
C  C69  1  0.35067294  0.43514828  0.56278177  1  1.584694  0  0.264803  0.649887  0  4.103086  0
C  C70  1  0.84947159  0.55293482  0.55113612  1  1.596684  0  0.265568  0.652759  0  4.095833  0
C  C71  1  0.85674197  0.56302135  0.43496036  1  1.601527  0  0.270752  0.636918  0  4.10661  0
C  C72  1  0.05285015  0.62017272  0.37972617  1  -0.060802  0  -0.075547  -0.082787  0  3.959834  0
C  C73  1  0.06304427  0.65677021  0.34309831  1  -0.021782  0  -0.080225  -0.107438  0  3.961033  0
C  C74  1  0.88371663  0.67547000  0.32144050  1  -0.047535  0  -0.000889  0.025027  0  3.989708  0
C  C75  1  0.69415243  0.65800715  0.33772457  1  -0.012392  0  -0.078647  -0.107645  0  3.955151  0
C  C76  1  0.68454992  0.62207934  0.37497374  1  0.020751  0  -0.074917  -0.081291  0  3.954739  0
C  C77  1  0.86378873  0.60257115  0.39578886  1  -0.048111  0  -0.007293  -0.034407  0  3.965088  0
C  C78  1  0.91027722  0.78277767  0.21525532  1  0.97403  0  0.239698  0.251948  0  3.992413  0
C  C79  1  0.89595776  0.71238520  0.28144436  1  0.958376  0  0.24421  0.249081  0  3.980016  0
C  C80  1  0.09453519  0.83109406  0.15383318  1  0.030408  0  -0.078502  -0.095565  0  3.97518  0
C  C81  1  0.10907939  0.86861334  0.11798764  1  -0.057519  0  -0.081096  -0.092494  0  3.971202  0
C  C82  1  0.94511500  0.90039313  0.10638608  1  -0.036764  0  -0.009406  -0.022435  0  3.977551  0
C  C83  1  0.77087855  0.89562545  0.13175368  1  0.024437  0  -0.083208  -0.157678  0  3.944004  0
C  C84  1  0.75918988  0.85867896  0.16832058  1  0.061464  0  0.021706  0.120685  0  4.02204  0
C  C85  1  0.91886773  0.82487874  0.17916546  1  -0.00908  0  -0.003168  -0.029831  0  3.96158  0
C  C86  1  0.88993934  0.65114698  0.71979436  1  1.305708  0  0.244289  0.437153  0  4.093216  0
C  C87  1  0.84693967  0.72400511  0.65935045  1  1.31249  0  0.244485  0.436938  0  4.091831  0
C  C88  1  0.85352653  0.75531468  0.69147132  1  -0.120389  0  -0.004387  -0.06129  0  3.988833  0
C  C89  1  0.88476835  0.73476894  0.73565957  1  0.094024  0  0.002774  0.030032  0  4.007137  0
C  C90  1  0.90452854  0.68407396  0.75045449  1  -0.03401  0  -0.003515  -0.061138  0  3.990245  0
C  C91  1  0.83206547  0.80517840  0.67776293  1  0.039129  0  -0.060137  -0.067844  0  3.925911  0
C  C92  1  0.84158794  0.83562346  0.70752369  1  0.075781  0  -0.059769  -0.06743  0  3.924322  0
C  C93  1  0.87416262  0.81634625  0.75103901  1  -0.110988  0  -0.003995  -0.059536  0  3.984353  0
C  C94  1  0.89666229  0.76567280  0.76578277  1  0.036711  0  0.00386  0.028402  0  4.002786  0
C  C95  1  0.93101466  0.74508382  0.80987958  1  -0.121752  0  -0.003342  -0.058404  0  3.983513  0
C  C96  1  0.95112230  0.69520238  0.82360035  1  0.027231  0  -0.059707  -0.067386  0  3.92394  0
C  C97  1  0.93699116  0.66470781  0.79395802  1  -0.032821  0  -0.060596  -0.067983  0  3.926383  0
C  C98  1  0.88558742  0.84919169  0.78188414  1  1.329587  0  0.242401  0.436273  0  4.101637  0
C  C99  1  0.94545288  0.77654955  0.84177914  1  1.319443  0  0.243413  0.436626  0  4.097571  0
C  C100  1  0.11854643  0.86423595  0.87558114  1  -0.045244  0  -0.081974  -0.148722  0  3.973548  0
C  C101  1  0.12885021  0.89322258  0.90596591  1  0.023876  0  -0.074261  -0.069922  0  3.961354  0
C  C102  1  0.95278366  0.91501075  0.91755051  1  -0.030479  0  -0.011257  -0.041075  0  3.960336  0
C  C103  1  0.76666434  0.90835694  0.89784002  1  -0.005847  0  -0.073005  -0.070173  0  3.951405  0
C  C104  1  0.75634471  0.87996557  0.86694136  1  -0.026375  0  -0.081742  -0.149395  0  3.965527  0
C  C105  1  0.93220513  0.85775068  0.85632111  1  0.340738  0  0.092907  0.201792  0  4.009955  0
C  C106  1  0.69167075  0.64206863  0.61843260  1  0.062958  0  -0.085289  -0.15616  0  3.975286  0
C  C107  1  0.69314527  0.61207543  0.58892203  1  -0.038545  0  -0.075542  -0.061055  0  3.983074  0
C  C108  1  0.86001905  0.58241110  0.58512614  1  0.016998  0  -0.01409  -0.100008  0  3.926144  0
C  C109  1  0.02765826  0.58279240  0.61296928  1  0.057738  0  0.026302  0.150333  0  4.017118  0
C  C110  1  0.02800923  0.61289088  0.64268068  1  0.069265  0  -0.089927  -0.226187  0  3.961874  0
C  C111  1  0.86100642  0.64241610  0.64508649  1  0.277886  0  0.093905  0.217772  0  4.010779  0
C  C112  1  0.31690748  0.21743327  0.16352318  1  1.352241  0  0.246426  0.445428  0  4.0966  0
C  C113  1  0.57591326  0.16410681  0.20894719  1  1.365823  0  0.241186  0.44875  0  4.082927  0
C  C114  1  0.57363906  0.19641855  0.24043147  1  0.015503  0  -0.007294  -0.120595  0  3.928516  0
C  C115  1  0.42722153  0.23440640  0.23535703  1  0.000431  0  0.001808  0.029508  0  3.99748  0
C  C116  1  0.29912474  0.24477205  0.19835120  1  -0.050882  0  -0.005122  -0.039441  0  4.002034  0
C  C117  1  0.70633455  0.19003709  0.27605521  1  0.061576  0  0.031754  0.14719  0  4.00889  0
C  C118  1  0.68688193  0.21893620  0.30693788  1  0.053276  0  -0.071706  -0.143876  0  3.935407  0
C  C119  1  0.54093015  0.25490861  0.30265576  1  -0.048201  0  -0.00395  -0.045638  0  3.996595  0
C  C120  1  0.40849805  0.26406192  0.26642779  1  0.009623  0  0.002626  0.034473  0  4.021522  0
C  C121  1  0.26354862  0.30226626  0.26112336  1  0.018605  0  -0.012392  -0.172663  0  3.939069  0
C  C122  1  0.13902745  0.31113155  0.22400740  1  0.574726  0  0.110239  0.263106  0  4.037497  0
C  C123  1  0.15904469  0.28195841  0.19315882  1  0.014426  0  -0.071915  -0.187845  0  3.925404  0
C  C124  1  0.53317134  0.28445438  0.33614977  1  1.356248  0  0.245175  0.440633  0  4.100635  0
C  C125  1  0.24562993  0.33181527  0.29444528  1  1.329634  0  0.247231  0.456351  0  4.066349  0
C  C126  1  0.19941087  0.35617984  0.38273791  1  0.02903  0  -0.081076  -0.150777  0  3.965446  0
C  C127  1  0.19232856  0.38794916  0.41083832  1  -0.045951  0  -0.073752  -0.072907  0  3.960541  0
C  C128  1  0.36444612  0.41469811  0.41749180  1  -0.000758  0  -0.013847  -0.051814  0  3.981425  0
C  C129  1  0.54433338  0.40969441  0.39560870  1  -0.042669  0  -0.07447  -0.074048  0  3.964697  0
C  C130  1  0.55105203  0.37889300  0.36673403  1  -0.004366  0  -0.081841  -0.154142  0  3.973299  0
C  C131  1  0.37846792  0.35226342  0.36052297  1  0.287137  0  0.092821  0.197837  0  4.001246  0
C  C132  1  0.28472698  0.11623905  0.13903048  1  -0.039196  0  -0.077209  -0.132846  0  3.967763  0
C  C133  1  0.28356857  0.08647160  0.10925089  1  0.014192  0  -0.073534  -0.077386  0  3.946542  0
C  C134  1  0.45158479  0.08590901  0.08268318  1  -0.033265  0  -0.00684  -0.022836  0  3.968139  0
C  C135  1  0.61808475  0.11598475  0.08521710  1  0.005873  0  -0.080492  -0.149084  0  3.937037  0
C  C136  1  0.61566985  0.14696998  0.11410501  1  0.085778  0  0.019696  0.077607  0  4.037307  0
C  C137  1  0.45007545  0.14646036  0.14156676  1  0.372929  0  0.088908  0.137279  0  4.003387  0
C  C138  1  0.53462525  0.36401766  0.61162038  1  0.553918  0  0.094189  0.251446  0  4.019277  0
C  C139  1  0.53382272  0.32734285  0.64863633  1  -0.036993  0  -0.088953  -0.223534  0  3.944212  0
C  C140  1  0.36834318  0.32129676  0.67657264  1  -0.022146  0  -0.001411  0.043579  0  4.016984  0
C  C141  1  0.19975958  0.35235903  0.66711996  1  -0.039923  0  -0.085149  -0.122348  0  3.966481  0
C  C142  1  0.19810632  0.38809702  0.62980015  1  -0.028454  0  -0.075015  -0.060071  0  3.972801  0
C  C143  1  0.36379655  0.39502627  0.60161942  1  -0.026945  0  -0.015293  -0.142824  0  3.91823  0
C  C144  1  0.40253349  0.21571625  0.78440847  1  0.992688  0  0.24639  0.262631  0  3.972255  0
C  C145  1  0.37026007  0.28154123  0.71466096  1  0.963648  0  0.243436  0.25074  0  3.983566  0
C  C146  1  0.60527528  0.15172820  0.83523676  1  0.542148  0  0.08673  0.219178  0  4.045536  0
C  C147  1  0.61038265  0.11518975  0.87216703  1  -0.021875  0  -0.08729  -0.190741  0  3.970419  0
C  C148  1  0.44299969  0.10511072  0.89948507  1  -0.030059  0  -0.016494  -0.124181  0  3.948382  0
C  C149  1  0.26684041  0.13445479  0.89007775  1  0.555382  0  0.091092  0.242279  0  4.015468  0
C  C150  1  0.26314796  0.17166573  0.85345171  1  0.043128  0  -0.088842  -0.216951  0  3.967614  0
C  C151  1  0.42724688  0.18003880  0.82504678  1  -0.082652  0  -0.006233  -0.059756  0  3.988848  0
C  C152  1  0.46049160  0.06391326  0.93725947  1  1.566618  0  0.267991  0.655174  0  4.092713  0
C  C153  1  0.45231091  0.05332098  0.05118902  1  1.594308  0  0.270602  0.632545  0  4.106733  0
C  C154  1  0.95323976  0.93916197  0.06661542  1  1.586056  0  0.270429  0.638346  0  4.103327  0
C  C155  1  0.96352004  0.94517552  0.95094676  1  1.563444  0  0.26606  0.63767  0  4.10743  0
C  C156  1  0.79605937  0.33736570  0.21178248  1  0.390134  0  -0.064039  0.039583  0  3.873236  0
C  C157  1  0.67406340  0.38393057  0.20273445  1  0.013086  0  -0.163385  -0.1245  0  3.984496  0
C  C158  1  0.68793778  0.41226173  0.23872478  1  -0.055671  0  -0.24621  -0.353842  0  3.947503  0
C  C159  1  0.68962685  0.34359371  0.55064913  1  0.372472  0  -0.064275  0.044038  0  3.886186  0
C  C160  1  0.89865328  0.34017159  0.53194551  1  -0.002864  0  -0.167134  -0.130706  0  3.963705  0
C  C161  1  0.88970600  0.31291060  0.49514017  1  -0.070882  0  -0.242947  -0.350026  0  3.969877  0
C  C162  1  0.81436678  0.12556984  0.78428886  1  0.369416  0  -0.067674  0.038311  0  3.898415  0
C  C163  1  0.99505287  0.14200403  0.75591446  1  -0.027012  0  -0.169691  -0.125319  0  3.96868  0
C  C164  1  0.03443208  0.10814120  0.72508820  1  -0.046391  0  -0.241642  -0.349664  0  3.976039  0
C  C165  1  0.04183957  0.16278490  0.93835900  1  0.415229  0  -0.062155  0.037804  0  3.870669  0
C  C166  1  0.15890643  0.15622103  0.98085472  1  -0.019269  0  -0.174135  -0.145811  0  3.977839  0
C  C167  1  0.10122672  0.19428418  0.00649849  1  -0.104067  0  -0.246111  -0.352577  0  3.980079  0
N  N168  1  0.72938005  0.72077509  0.25555042  1  -0.541871  0  -0.152818  -0.140487  0  3.195907  0
N  N169  1  0.73663782  0.75673734  0.22164457  1  -0.542936  0  -0.156945  -0.148668  0  3.229476  0
N  N170  1  0.08619987  0.76892234  0.23668675  1  -0.550345  0  -0.151377  -0.136045  0  3.203406  0
N  N171  1  0.07894187  0.73289255  0.27042564  1  -0.557463  0  -0.150752  -0.141836  0  3.204739  0
N  N172  1  0.86545433  0.67349696  0.67574946  1  -1.187707  0  -0.228555  -0.224772  0  3.563191  0
N  N173  1  0.92078020  0.82683369  0.82547163  1  -1.176369  0  -0.230822  -0.229166  0  3.579692  0
N  N174  1  0.44690388  0.17726092  0.17236405  1  -1.187682  0  -0.234184  -0.224767  0  3.627861  0
N  N175  1  0.38566282  0.32119470  0.32979392  1  -1.147436  0  -0.227949  -0.227559  0  3.575576  0
N  N176  1  0.23911341  0.28339724  0.74679925  1  -0.579238  0  -0.154669  -0.149514  0  3.204958  0
N  N177  1  0.25828858  0.25033074  0.78259322  1  -0.543482  0  -0.153002  -0.14236  0  3.210294  0
N  N178  1  0.50308269  0.20854971  0.74922775  1  -0.545529  0  -0.142122  -0.127092  0  3.227305  0
N  N179  1  0.48930516  0.24257708  0.71394369  1  -0.558118  0  -0.159274  -0.15942  0  3.20325  0
Cl  Cl180  1  0.23596790  0.54533324  0.61397347  1  -0.182556  0  0.025007  -0.042274  0  1.546924  0
Cl  Cl181  1  0.90171347  0.14866678  0.28475332  1  -0.148777  0  0.020042  -0.034303  0  1.495752  0
Cl  Cl182  1  0.81656516  0.18574950  0.11568007  1  -0.185674  0  0.013836  -0.048869  0  1.60833  0
Cl  Cl183  1  0.55002508  0.85699339  0.20094999  1  -0.182527  0  0.007025  -0.06964  0  1.542523  0
O  O184  1  0.51451499  0.44921188  0.54335384  1  -1.262332  0  -0.235687  -0.605561  0  2.418307  0
O  O185  1  0.19069765  0.45325818  0.46616088  1  -1.260213  0  -0.231385  -0.5845  0  2.347882  0
O  O186  1  0.02225169  0.54084575  0.44689432  1  -1.262363  0  -0.229845  -0.576603  0  2.351957  0
O  O187  1  0.17496731  0.45278597  0.55165282  1  -1.262734  0  -0.239595  -0.607987  0  2.368964  0
O  O188  1  0.01418038  0.54517126  0.53327021  1  -1.253246  0  -0.239703  -0.60632  0  2.394584  0
O  O189  1  0.52458690  0.46863571  0.45465661  1  -1.256254  0  -0.230205  -0.576232  0  2.350329  0
O  O190  1  0.34528148  0.53084455  0.49688087  1  -1.429385  0  -0.449118  -0.986594  0  2.204186  0
O  O191  1  0.67339293  0.53912617  0.54186557  1  -1.2564  0  -0.23811  -0.593774  0  2.334778  0
O  O192  1  0.68733644  0.55435834  0.45394655  1  -1.26704  0  -0.232754  -0.585686  0  2.342202  0
O  O193  1  0.84622221  0.47001770  0.50509464  1  -1.424602  0  -0.450315  -0.985912  0  2.197429  0
O  O194  1  0.89867927  0.60690252  0.73139311  1  -1.060483  0  -0.266519  -0.417376  0  2.0693  0
O  O195  1  0.82808865  0.74042667  0.62056525  1  -1.071032  0  -0.267988  -0.42227  0  2.070851  0
O  O196  1  0.86688842  0.89333986  0.77082835  1  -1.058071  0  -0.27193  -0.426276  0  2.061624  0
O  O197  1  0.97622021  0.76057205  0.88031497  1  -1.090064  0  -0.270246  -0.424227  0  2.063518  0
O  O198  1  0.22307727  0.22847544  0.12920768  1  -1.101794  0  -0.271811  -0.429783  0  2.123522  0
O  O199  1  0.67895986  0.12723357  0.21326787  1  -1.078774  0  -0.266234  -0.418311  0  2.136628  0
O  O200  1  0.64902760  0.27738535  0.36747009  1  -1.100551  0  -0.274882  -0.431638  0  2.074181  0
O  O201  1  0.12015708  0.36415278  0.29310612  1  -1.07983  0  -0.251116  -0.409051  0  2.138175  0
O  O202  1  0.28537508  0.03282495  0.04550000  1  -1.252097  0  -0.228521  -0.577494  0  2.353351  0
O  O203  1  0.63753054  0.04648925  0.94758902  1  -1.263012  0  -0.240097  -0.595123  0  2.324269  0
O  O204  1  0.79648345  0.95450707  0.96745833  1  -1.259063  0  -0.240151  -0.606407  0  2.348501  0
O  O205  1  0.61793485  0.04899656  0.03201098  1  -1.258286  0  -0.233053  -0.583195  0  2.334426  0
O  O206  1  0.78945610  0.96188239  0.05433970  1  -1.258084  0  -0.22946  -0.577086  0  2.35199  0
O  O207  1  0.29901312  0.04874160  0.95688048  1  -1.261111  0  -0.231696  -0.602096  0  2.442034  0
O  O208  1  0.46733604  0.96976162  0.00553177  1  -1.40886  0  -0.44954  -0.997892  0  2.225883  0
O  O209  1  0.12226357  0.94633283  0.04723173  1  -1.260319  0  -0.233132  -0.590462  0  2.34681  0
O  O210  1  0.13916204  0.95888977  0.96055816  1  -1.250682  0  -0.238907  -0.594306  0  2.33805  0
O  O211  1  0.96600080  0.03053343  0.99466206  1  -1.431773  0  -0.450588  -0.995366  0  2.196047  0
O  O212  1  0.00896728  0.34916045  0.21598519  1  -1.064999  0  -0.179235  -0.200572  0  2.528839  0
O  O213  1  0.70604986  0.36765817  0.58664930  1  -1.076589  0  -0.204359  -0.246665  0  2.511704  0
O  O214  1  0.77447498  0.16139070  0.80998924  1  -1.064538  0  -0.199811  -0.238543  0  2.524093  0
O  O215  1  0.09508294  0.12586332  0.91474077  1  -1.074543  0  -0.195994  -0.230134  0  2.525701  0
