# generated using pymatgen
data_ZnH17C24(N3O)2
_symmetry_space_group_name_H-M   'P 1'
_cell_length_a   9.44222095
_cell_length_b   10.73618029
_cell_length_c   12.45259804
_cell_angle_alpha   112.50180210
_cell_angle_beta   95.47212156
_cell_angle_gamma   110.72337694
_symmetry_Int_Tables_number   1
_chemical_formula_structural   ZnH17C24(N3O)2
_chemical_formula_sum   'Zn2 H34 C48 N12 O4'
_cell_volume   1051.17262425
_cell_formula_units_Z   2
loop_
 _symmetry_equiv_pos_site_id
 _symmetry_equiv_pos_as_xyz
  1  'x, y, z'
loop_
 _atom_site_type_symbol
 _atom_site_label
 _atom_site_symmetry_multiplicity
 _atom_site_fract_x
 _atom_site_fract_y
 _atom_site_fract_z
 _atom_site_occupancy
 _atom_site_pbe_bader_spin_density
 _atom_site_pbe_cm5_charge
 _atom_site_pbe_ddec_charge
 _atom_site_pbe_ddec_spin_density
 _atom_site_pbe_ddec_sum_bond_order
 _atom_site_pbe_magmom
Zn  Zn0  1  0.62786787  0.70225015  0.63331301  1  0  0.696055  0.612955  0  2.557077  0
Zn  Zn1  1  0.37213534  0.29775196  0.36668790  1  0  0.696089  0.613019  0  2.556959  0
H  H2  1  0.05383214  0.61402592  0.45210008  1  0  0.102737  0.128523  0  1.025244  0
H  H3  1  0.94616843  0.38597508  0.54790027  1  0  0.102736  0.128505  0  1.025296  0
H  H4  1  0.34117838  0.79928579  0.62024546  1  0  0.111002  0.097158  0  1.036891  0
H  H5  1  0.65882219  0.20071521  0.37975570  1  0  0.111021  0.097188  0  1.036868  0
H  H6  1  0.56612768  0.18583825  0.90568892  1  0  0.11928  0.115113  0  1.052655  0
H  H7  1  0.43387240  0.81416165  0.09431184  1  0  0.119295  0.115147  0  1.05262  0
H  H8  1  0.66765259  0.23242878  0.71632173  1  0  0.114438  0.148114  0  0.992452  0
H  H9  1  0.33234372  0.76757223  0.28367911  1  0  0.11444  0.148137  0  0.992457  0
H  H10  1  0.78830549  0.16201805  0.54004199  1  0  0.102558  0.108655  0  1.051117  0
H  H11  1  0.21169664  0.83798407  0.45996125  1  0  0.102566  0.108676  0  1.051134  0
H  H12  1  0.85616221  0.05506768  0.34503533  1  0  0.102938  0.100654  0  1.018793  0
H  H13  1  0.14384249  0.94493779  0.65496920  1  0  0.102932  0.100598  0  1.018815  0
H  H14  1  0.82487451  0.79028461  0.26122723  1  0  0.101376  0.106574  0  1.042883  0
H  H15  1  0.17512494  0.20971862  0.73877378  1  0  0.101353  0.106522  0  1.042925  0
H  H16  1  0.72895985  0.64547228  0.37751704  1  0  0.114813  0.087449  0  0.996147  0
H  H17  1  0.27103548  0.35452649  0.62248140  1  0  0.11484  0.087474  0  0.996245  0
H  H18  1  0.82077143  0.72277802  0.93384197  1  0  0.098944  0.10358  0  1.033727  0
H  H19  1  0.17922922  0.27722075  0.06615605  1  0  0.098954  0.103555  0  1.033748  0
H  H20  1  0.05238334  0.72031718  0.04144832  1  0  0.094661  0.09205  0  1.029465  0
H  H21  1  0.94761176  0.27967156  0.95854360  1  0  0.094643  0.092026  0  1.029454  0
H  H22  1  0.24592260  0.57617501  0.83681201  1  0  0.097156  0.09309  0  1.05391  0
H  H23  1  0.75407378  0.42382377  0.16318811  1  0  0.097155  0.093076  0  1.053918  0
H  H24  1  0.01964032  0.57228635  0.15820349  1  0  0.097588  0.096371  0  1.013958  0
H  H25  1  0.98035528  0.42770351  0.84178883  1  0  0.097595  0.096365  0  1.013903  0
H  H26  1  0.56333352  0.92628583  0.87179573  1  0  0.31055  0.262642  0  1.025755  0
H  H27  1  0.43666656  0.07371406  0.12820422  1  0  0.310565  0.262659  0  1.025737  0
H  H28  1  0.07329141  0.99669782  0.14576968  1  0  0.110406  0.076682  0  1.023553  0
H  H29  1  0.92671179  0.00330430  0.85423204  1  0  0.110421  0.07671  0  1.023506  0
H  H30  1  0.80051306  0.93544575  0.03752264  1  0  0.100268  0.104526  0  1.062621  0
H  H31  1  0.19949021  0.06455415  0.96247836  1  0  0.100248  0.104494  0  1.062643  0
H  H32  1  0.70027087  0.13286189  0.10456716  1  0  0.107411  0.109571  0  1.017222  0
H  H33  1  0.29973184  0.86713912  0.89543256  1  0  0.107401  0.109538  0  1.017228  0
H  H34  1  0.87171717  0.37868068  0.28049494  1  0  0.107117  0.116984  0  1.014361  0
H  H35  1  0.12828447  0.62132032  0.71950549  1  0  0.107115  0.116992  0  1.014359  0
C  C36  1  0.17074989  0.45877209  0.40220814  1  0  0.073592  0.082955  0  4.086495  0
C  C37  1  0.82925282  0.54122891  0.59779318  1  0  0.073597  0.08298  0  4.086507  0
C  C38  1  0.15589112  0.59173538  0.46493118  1  0  -0.127011  -0.26893  0  4.042986  0
C  C39  1  0.84411002  0.40826452  0.53507046  1  0  -0.126989  -0.268882  0  4.043027  0
C  C40  1  0.30015592  0.68565765  0.55129592  1  0  -0.007162  -0.027251  0  4.038364  0
C  C41  1  0.69984571  0.31434336  0.44870612  1  0  -0.007194  -0.027304  0  4.038392  0
C  C42  1  0.60103417  0.11927558  0.83211780  1  0  0.02086  0.001271  0  3.930791  0
C  C43  1  0.39896428  0.88072542  0.16788239  1  0  0.020894  0.001288  0  3.930775  0
C  C44  1  0.65295609  0.13956216  0.73645222  1  0  -0.108945  -0.247015  0  3.964784  0
C  C45  1  0.34704079  0.86043773  0.26354830  1  0  -0.108949  -0.247103  0  3.964811  0
C  C46  1  0.67757217  0.01190228  0.67126432  1  0  0.091826  0.098068  0  4.052901  0
C  C47  1  0.32242571  0.98809984  0.32873700  1  0  0.091801  0.098064  0  4.052855  0
C  C48  1  0.72430794  0.95992713  0.55949804  1  0  0.121387  0.19069  0  4.008957  0
C  C49  1  0.27569419  0.04007500  0.44050360  1  0  0.121473  0.190829  0  4.008951  0
C  C50  1  0.77770746  0.04847600  0.50088636  1  0  -0.086315  -0.166821  0  3.946123  0
C  C51  1  0.22229581  0.95152390  0.49911544  1  0  -0.086293  -0.166846  0  3.946063  0
C  C52  1  0.81502959  0.98849753  0.39278311  1  0  -0.070425  -0.022295  0  3.969959  0
C  C53  1  0.18497191  0.01150794  0.60722038  1  0  -0.070501  -0.022343  0  3.970046  0
C  C54  1  0.79826576  0.84186833  0.34596568  1  0  -0.087928  -0.135353  0  3.968095  0
C  C55  1  0.20173581  0.15813491  0.65403869  1  0  -0.087875  -0.135188  0  3.968045  0
C  C56  1  0.74584295  0.76114879  0.41060574  1  0  0.05165  0.106301  0  3.942828  0
C  C57  1  0.25415337  0.23885221  0.58939430  1  0  0.051628  0.106208  0  3.942878  0
C  C58  1  0.53727608  0.68392711  0.87190736  1  0  0.207706  0.583544  0  4.233658  0
C  C59  1  0.46272293  0.31607278  0.12809252  1  0  0.207689  0.58348  0  4.233743  0
C  C60  1  0.51847867  0.58876079  0.93756574  1  0  -0.011585  -0.118692  0  3.916216  0
C  C61  1  0.48151772  0.41123798  0.06243357  1  0  -0.011516  -0.118502  0  3.91626  0
C  C62  1  0.65152017  0.58239833  0.99263532  1  0  -0.007526  0.051178  0  3.990238  0
C  C63  1  0.34847835  0.41760044  0.00736174  1  0  -0.007522  0.051111  0  3.990343  0
C  C64  1  0.80644146  0.66207410  0.98788531  1  0  -0.09303  -0.129632  0  3.968636  0
C  C65  1  0.19355882  0.33791910  0.01211087  1  0  -0.093027  -0.129611  0  3.968577  0
C  C66  1  0.93527989  0.65954593  0.04677837  1  0  -0.098713  -0.091718  0  4.034036  0
C  C67  1  0.06471727  0.34044505  0.95321604  1  0  -0.098731  -0.091692  0  4.033862  0
C  C68  1  0.36764723  0.50694087  0.94300354  1  0  -0.009493  0.045742  0  4.001421  0
C  C69  1  0.63234866  0.49305679  0.05699457  1  0  -0.009468  0.045635  0  4.00162  0
C  C70  1  0.23063530  0.50760157  0.88421240  1  0  -0.094984  -0.140294  0  3.998315  0
C  C71  1  0.76936002  0.49239720  0.11578603  1  0  -0.095062  -0.140328  0  3.998413  0
C  C72  1  0.91673176  0.57453891  0.11264646  1  0  -0.095976  -0.086531  0  4.032621  0
C  C73  1  0.08326732  0.42545875  0.88735188  1  0  -0.095996  -0.086572  0  4.032598  0
C  C74  1  0.02429531  0.07864989  0.17156434  1  0  0.042493  0.089742  0  3.981457  0
C  C75  1  0.97570476  0.92135001  0.82843803  1  0  0.042454  0.089666  0  3.981352  0
C  C76  1  0.87360455  0.04486049  0.11127968  1  0  -0.096211  -0.151687  0  3.995261  0
C  C77  1  0.12639659  0.95513940  0.88872196  1  0  -0.096177  -0.151617  0  3.995142  0
C  C78  1  0.81722638  0.15426503  0.14929349  1  0  -0.073011  -0.031395  0  3.977035  0
C  C79  1  0.18277632  0.84573598  0.85070783  1  0  -0.072965  -0.031316  0  3.977015  0
C  C80  1  0.91244965  0.29170237  0.24601126  1  0  -0.084296  -0.167308  0  3.947785  0
C  C81  1  0.08755355  0.70829975  0.75399046  1  0  -0.084342  -0.167386  0  3.947801  0
C  C82  1  0.06325069  0.31787104  0.30165761  1  0  0.120717  0.192721  0  4.020295  0
C  C83  1  0.93675202  0.68212997  0.69834290  1  0  0.120739  0.192739  0  4.020437  0
N  N84  1  0.39420697  0.61355049  0.54050431  1  0  -0.250552  -0.141117  0  3.531548  0
N  N85  1  0.60579516  0.38645163  0.45949733  1  0  -0.250583  -0.141146  0  3.531675  0
N  N86  1  0.31505538  0.47500319  0.44991176  1  0  -0.247694  -0.177149  0  3.478329  0
N  N87  1  0.68494782  0.52499893  0.55008915  1  0  -0.247689  -0.177143  0  3.478414  0
N  N88  1  0.59732671  0.98763035  0.82169111  1  0  -0.266931  -0.073756  0  3.692212  0
N  N89  1  0.40267436  0.01237177  0.17831126  1  0  -0.26696  -0.073766  0  3.692164  0
N  N90  1  0.64310062  0.92176983  0.72537795  1  0  -0.241346  -0.198624  0  3.464405  0
N  N91  1  0.35690045  0.07823229  0.27462361  1  0  -0.241368  -0.198637  0  3.464388  0
N  N92  1  0.71050292  0.81836556  0.51493483  1  0  -0.307101  -0.264753  0  3.453315  0
N  N93  1  0.28949403  0.18163211  0.48506497  1  0  -0.307153  -0.264814  0  3.453351  0
N  N94  1  0.11737783  0.21150462  0.26392187  1  0  -0.315452  -0.271239  0  3.470724  0
N  N95  1  0.88262381  0.78849639  0.73607856  1  0  -0.315442  -0.271225  0  3.470749  0
O  O96  1  0.56658305  0.63421348  0.77099087  1  0  -0.316052  -0.532017  0  2.324228  0
O  O97  1  0.43341647  0.36578752  0.22900860  1  0  -0.31605  -0.531994  0  2.324213  0
O  O98  1  0.52277662  0.80516721  0.92443294  1  0  -0.321801  -0.559309  0  2.175324  0
O  O99  1  0.47722396  0.19483380  0.07556742  1  0  -0.321784  -0.559284  0  2.175357  0
