# generated using pymatgen
data_ZnH8C20(N3O7)2
_symmetry_space_group_name_H-M   'P 1'
_cell_length_a   13.96165349
_cell_length_b   15.33110324
_cell_length_c   17.17916037
_cell_angle_alpha   91.58737233
_cell_angle_beta   83.57988825
_cell_angle_gamma   89.18576469
_symmetry_Int_Tables_number   1
_chemical_formula_structural   ZnH8C20(N3O7)2
_chemical_formula_sum   'Zn2 H16 C40 N12 O28'
_cell_volume   3652.13996862
_cell_formula_units_Z   2
loop_
 _symmetry_equiv_pos_site_id
 _symmetry_equiv_pos_as_xyz
  1  'x, y, z'
loop_
 _atom_site_type_symbol
 _atom_site_label
 _atom_site_symmetry_multiplicity
 _atom_site_fract_x
 _atom_site_fract_y
 _atom_site_fract_z
 _atom_site_occupancy
 _atom_site_pbe_bader_charge
 _atom_site_pbe_bader_spin_density
 _atom_site_pbe_cm5_charge
 _atom_site_pbe_ddec_charge
 _atom_site_pbe_ddec_spin_density
 _atom_site_pbe_ddec_sum_bond_order
 _atom_site_pbe_magmom
Zn  Zn0  1  0.60140952  0.49723581  0.49793491  1  1.285008  0  0.678908  0.820297  0  2.431162  0
Zn  Zn1  1  0.39870318  0.49017709  0.49869949  1  1.284985  0  0.679629  0.822012  0  2.421134  0
H  H2  1  0.31974521  0.52074973  0.75603043  1  0.117609  0  0.115593  0.121353  0  0.976859  0
H  H3  1  0.66881405  0.55955717  0.25264393  1  0.092513  0  0.113122  0.120048  0  0.989897  0
H  H4  1  0.67283616  0.58653368  0.11006084  1  0.117072  0  0.116159  0.122406  0  0.968995  0
H  H5  1  0.31700341  0.54707696  0.90000270  1  0.087622  0  0.115546  0.119559  0  0.974018  0
H  H6  1  0.07499808  0.42082092  0.39705554  1  0.119086  0  0.129595  0.143869  0  0.954112  0
H  H7  1  0.92521627  0.42493255  0.59553767  1  0.125759  0  0.130743  0.145673  0  0.951628  0
H  H8  1  0.38709002  0.44975466  0.25274672  1  0.120676  0  0.11743  0.132118  0  0.99126  0
H  H9  1  0.61935171  0.58845247  0.72460224  1  0.157163  0  0.120389  0.136762  0  0.983383  0
H  H10  1  0.25343722  0.40964069  0.40099805  1  0.148836  0  0.137294  0.112498  0  0.963997  0
H  H11  1  0.74655869  0.42134886  0.59346912  1  0.150706  0  0.137063  0.113038  0  0.970636  0
H  H12  1  0.23911441  0.57509872  0.59807417  1  0.205478  0  0.137334  0.120745  0  1.009168  0
H  H13  1  0.75999021  0.58575537  0.40405197  1  0.158191  0  0.139546  0.12339  0  0.988454  0
H  H14  1  0.39193175  0.58839672  0.01235898  1  0.097378  0  0.111877  0.112823  0  0.983531  0
H  H15  1  0.60961888  0.54469496  0.98380930  1  0.089188  0  0.112782  0.11517  0  0.984878  0
H  H16  1  0.62548726  0.93792567  0.44929658  1  0.136112  0  0.130514  0.150181  0  0.952934  0
H  H17  1  0.38767053  0.05045257  0.45340047  1  0.123456  0  0.130651  0.150837  0  0.952244  0
C  C18  1  0.48938468  0.66491344  0.49505240  1  1.697575  0  0.213187  0.589778  0  4.230283  0
C  C19  1  0.50935516  0.32504168  0.50827428  1  1.678739  0  0.216066  0.595374  0  4.222072  0
C  C20  1  0.52135090  0.49168442  0.34828883  1  1.547987  0  0.223426  0.604143  0  4.146734  0
C  C21  1  0.47807888  0.52050711  0.64747193  1  1.544011  0  0.220409  0.595796  0  4.161062  0
C  C22  1  0.52738003  0.50385883  0.26204913  1  0.038376  0  -0.012107  -0.02229  0  3.964513  0
C  C23  1  0.47089110  0.54779711  0.73179501  1  -0.005994  0  -0.010523  -0.017062  0  3.962631  0
C  C24  1  0.44981939  0.47983111  0.22177906  1  0.005975  0  -0.068302  -0.125364  0  3.944222  0
C  C25  1  0.55270365  0.57940461  0.76259352  1  0.058626  0  -0.066639  -0.123425  0  3.934078  0
C  C26  1  0.45447485  0.49238760  0.14181074  1  0.155671  0  0.081095  0.025666  0  3.895282  0
C  C27  1  0.54801486  0.60079338  0.84187446  1  0.167343  0  0.081461  0.023403  0  3.892879  0
C  C28  1  0.53321650  0.53280071  0.09924462  1  0.03568  0  0.010086  0.086564  0  4.000193  0
C  C29  1  0.46548967  0.58461715  0.89457848  1  -0.00028  0  0.011874  0.090613  0  3.990017  0
C  C30  1  0.61080702  0.55519896  0.14129215  1  -0.074146  0  -0.074012  -0.116118  0  3.935469  0
C  C31  1  0.38249505  0.55860502  0.86101579  1  0.013462  0  -0.072215  -0.112342  0  3.928121  0
C  C32  1  0.60859967  0.54082255  0.22100264  1  0.045922  0  -0.069106  -0.068607  0  3.950691  0
C  C33  1  0.38431989  0.54179476  0.78088643  1  -0.060735  0  -0.06573  -0.064093  0  3.938037  0
C  C34  1  0.53812659  0.55293388  0.01642831  1  0.029487  0  -0.081051  -0.112401  0  3.971635  0
C  C35  1  0.46315049  0.57940030  0.97937679  1  -0.061171  0  -0.079623  -0.109035  0  3.975055  0
C  C36  1  0.56552662  0.90235246  0.47861078  1  0.085136  0  -0.066638  -0.164897  0  3.922047  0
C  C37  1  0.43860702  0.08686059  0.48469331  1  0.070746  0  -0.068215  -0.168935  0  3.917194  0
C  C38  1  0.56059646  0.81291756  0.46745720  1  0.162358  0  0.104424  0.104105  0  3.900058  0
C  C39  1  0.44440232  0.17648641  0.47808732  1  0.165316  0  0.104692  0.106152  0  3.900154  0
C  C40  1  0.48479117  0.76352699  0.50217959  1  0.111432  0  0.012685  -0.085934  0  3.876386  0
C  C41  1  0.50993626  0.22675245  0.51489764  1  0.115176  0  0.01403  -0.087651  0  3.876189  0
C  C42  1  0.41163594  0.80877136  0.54959998  1  0.274762  0  0.105084  0.049476  0  3.861628  0
C  C43  1  0.57026490  0.18247795  0.56075414  1  0.212538  0  0.106385  0.054744  0  3.855699  0
C  C44  1  0.41755768  0.89870866  0.56554366  1  0.261407  0  0.091574  -0.017794  0  3.844533  0
C  C45  1  0.56285042  0.09232489  0.57162774  1  0.300188  0  0.092492  -0.016984  0  3.837007  0
C  C46  1  0.49446016  0.94638579  0.52930144  1  0.065087  0  0.021496  0.072521  0  3.997925  0
C  C47  1  0.49776329  0.04346819  0.53214272  1  0.064577  0  0.02099  0.072459  0  3.994517  0
C  C48  1  0.10888502  0.45671989  0.44192449  1  0.007723  0  -0.063421  -0.154887  0  3.908382  0
C  C49  1  0.89117972  0.46214083  0.55271399  1  0.033912  0  -0.062029  -0.153456  0  3.897606  0
C  C50  1  0.20780569  0.44983637  0.44396593  1  0.532478  0  0.08019  0.13152  0  3.86903  0
C  C51  1  0.79199068  0.45949917  0.55177397  1  0.476923  0  0.084267  0.142593  0  3.852502  0
C  C52  1  0.20093090  0.54219246  0.55402074  1  0.521929  0  0.08167  0.084264  0  3.854936  0
C  C53  1  0.79843083  0.55126431  0.44604955  1  0.617335  0  0.082246  0.083973  0  3.857324  0
C  C54  1  0.10185052  0.55223554  0.55455566  1  0.272887  0  0.092899  -0.008349  0  3.876891  0
C  C55  1  0.89784221  0.55712580  0.44456473  1  0.194765  0  0.092186  -0.01129  0  3.877169  0
C  C56  1  0.05330926  0.51038458  0.49750538  1  0.041471  0  0.033666  0.079553  0  3.989515  0
C  C57  1  0.94683094  0.51290890  0.49883581  1  0.026326  0  0.034705  0.079809  0  3.986169  0
N  N58  1  0.25262219  0.49218721  0.49891267  1  -1.234028  0  -0.3121  -0.180938  0  3.498429  0
N  N59  1  0.74690770  0.50348341  0.49923117  1  -1.232043  0  -0.312956  -0.184637  0  3.504296  0
N  N60  1  0.05039524  0.61012887  0.61595315  1  0.399487  0  0.065489  0.520533  0  4.210773  0
N  N61  1  0.94902024  0.61293150  0.38543555  1  0.398953  0  0.064852  0.518874  0  4.213446  0
N  N62  1  0.63309242  0.64395021  0.86839443  1  0.382465  0  0.054047  0.515747  0  4.226052  0
N  N63  1  0.37451472  0.45537301  0.10262634  1  0.386052  0  0.054518  0.515884  0  4.228614  0
N  N64  1  0.63886364  0.76921348  0.41443921  1  0.411596  0  0.064752  0.513626  0  4.22515  0
N  N65  1  0.38024325  0.21850592  0.42643407  1  0.434791  0  0.06306  0.512301  0  4.227944  0
N  N66  1  0.32868486  0.75667848  0.58383303  1  0.452602  0  0.060639  0.505148  0  4.278195  0
N  N67  1  0.64376095  0.23589826  0.59602170  1  0.455085  0  0.058694  0.50393  0  4.293966  0
N  N68  1  0.34695098  0.94354750  0.62423442  1  0.408016  0  0.064637  0.518993  0  4.208866  0
N  N69  1  0.61708683  0.04920896  0.62939987  1  0.391254  0  0.066305  0.519693  0  4.203298  0
O  O70  1  0.57061177  0.63288682  0.50615517  1  -1.148633  0  -0.305516  -0.52959  0  2.309648  0
O  O71  1  0.42589179  0.35953184  0.51878685  1  -1.153273  0  -0.304804  -0.525179  0  2.314614  0
O  O72  1  0.41389114  0.62593497  0.48133737  1  -1.154054  0  -0.302548  -0.520572  0  2.304659  0
O  O73  1  0.58972255  0.36116233  0.49362801  1  -1.152059  0  -0.302892  -0.519807  0  2.307343  0
O  O74  1  0.59728364  0.50547906  0.38137434  1  -1.15405  0  -0.313394  -0.541467  0  2.34342  0
O  O75  1  0.40071577  0.51918434  0.61451934  1  -1.159567  0  -0.310934  -0.540626  0  2.356001  0
O  O76  1  0.44011761  0.46971411  0.38313827  1  -1.163965  0  -0.315393  -0.546894  0  2.349777  0
O  O77  1  0.56209766  0.50000478  0.61444768  1  -1.156751  0  -0.315659  -0.542667  0  2.350133  0
O  O78  1  0.97252064  0.64238708  0.60167863  1  -0.417176  0  -0.114702  -0.308661  0  1.890134  0
O  O79  1  0.08876534  0.62198440  0.67663922  1  -0.42094  0  -0.11055  -0.301596  0  1.863489  0
O  O80  1  0.02995591  0.63817122  0.39814237  1  -0.424596  0  -0.11391  -0.305998  0  1.891179  0
O  O81  1  0.90739712  0.63044486  0.32787213  1  -0.417209  0  -0.114821  -0.308592  0  1.86935  0
O  O82  1  0.71373353  0.61639208  0.83956224  1  -0.449744  0  -0.14937  -0.347302  0  1.850974  0
O  O83  1  0.61823129  0.70628772  0.91583026  1  -0.444837  0  -0.137642  -0.333824  0  1.872453  0
O  O84  1  0.39563089  0.40620103  0.04473539  1  -0.437139  0  -0.133402  -0.328803  0  1.877971  0
O  O85  1  0.29135174  0.47419747  0.13233007  1  -0.456356  0  -0.150323  -0.349211  0  1.849968  0
O  O86  1  0.72220901  0.78252409  0.42894190  1  -0.424255  0  -0.116814  -0.305833  0  1.857589  0
O  O87  1  0.61438636  0.72485823  0.35912224  1  -0.413174  0  -0.107583  -0.297078  0  1.894093  0
O  O88  1  0.41968915  0.25843490  0.37055523  1  -0.416808  0  -0.108368  -0.292278  0  1.88616  0
O  O89  1  0.29274174  0.20783265  0.44234583  1  -0.442277  0  -0.122432  -0.315104  0  1.850951  0
O  O90  1  0.25901765  0.75318076  0.54596920  1  -0.391354  0  -0.101409  -0.283227  0  1.904758  0
O  O91  1  0.33959668  0.71842232  0.64445271  1  -0.416853  0  -0.099196  -0.282478  0  1.912029  0
O  O92  1  0.72616343  0.23063334  0.56187706  1  -0.417945  0  -0.114763  -0.303059  0  1.894799  0
O  O93  1  0.61470151  0.28402693  0.65248644  1  -0.400865  0  -0.099983  -0.278041  0  1.891654  0
O  O94  1  0.36952917  0.01608781  0.64956998  1  -0.438106  0  -0.114594  -0.306702  0  1.906225  0
O  O95  1  0.27114495  0.90590285  0.64491348  1  -0.412831  0  -0.105617  -0.290693  0  1.906133  0
O  O96  1  0.60706947  0.96952002  0.63646415  1  -0.418266  0  -0.108208  -0.298703  0  1.914329  0
O  O97  1  0.66710182  0.09553643  0.66805877  1  -0.398979  0  -0.104957  -0.289541  0  1.906957  0
