# generated using pymatgen
data_ZnH22C39NO4
_symmetry_space_group_name_H-M   'P 1'
_cell_length_a   15.32343214
_cell_length_b   15.37197036
_cell_length_c   23.61219058
_cell_angle_alpha   109.02418979
_cell_angle_beta   93.41511383
_cell_angle_gamma   90.00354640
_symmetry_Int_Tables_number   1
_chemical_formula_structural   ZnH22C39NO4
_chemical_formula_sum   'Zn4 H88 C156 N4 O16'
_cell_volume   5247.64303894
_cell_formula_units_Z   4
loop_
 _symmetry_equiv_pos_site_id
 _symmetry_equiv_pos_as_xyz
  1  'x, y, z'
loop_
 _atom_site_type_symbol
 _atom_site_label
 _atom_site_symmetry_multiplicity
 _atom_site_fract_x
 _atom_site_fract_y
 _atom_site_fract_z
 _atom_site_occupancy
 _atom_site_pbe_bader_charge
 _atom_site_pbe_bader_spin_density
 _atom_site_pbe_cm5_charge
 _atom_site_pbe_ddec_charge
 _atom_site_pbe_ddec_spin_density
 _atom_site_pbe_ddec_sum_bond_order
 _atom_site_pbe_magmom
Zn  Zn0  1  0.00415202  0.53134980  0.56379066  1  1.293782  0  0.675717  0.8164  0  2.417472  0
Zn  Zn1  1  0.49580482  0.96751868  0.43614256  1  1.289719  0  0.676235  0.818119  0  2.416572  0
Zn  Zn2  1  0.99584625  0.46865664  0.43621629  1  1.288428  0  0.675756  0.816608  0  2.417168  0
Zn  Zn3  1  0.50418966  0.03248919  0.56387345  1  1.293278  0  0.676288  0.818272  0  2.416806  0
H  H4  1  0.54779837  0.26455256  0.58959730  1  0.094043  0  0.099313  0.110089  0  1.035228  0
H  H5  1  0.00161463  0.11085007  0.49294457  1  0.066248  0  0.097459  0.097777  0  1.02051  0
H  H6  1  0.72988551  0.03333230  0.48523994  1  0.065545  0  0.096983  0.100134  0  1.047504  0
H  H7  1  0.53562128  0.18142857  0.39345018  1  0.103106  0  0.099035  0.110464  0  1.027902  0
H  H8  1  0.88611360  0.99246502  0.48646845  1  0.086818  0  0.097194  0.097623  0  1.020049  0
H  H9  1  0.76309395  0.41935061  0.40702696  1  0.090483  0  0.094913  0.099658  0  1.050769  0
H  H10  1  0.64260324  0.38666486  0.32751357  1  0.033636  0  0.091088  0.084628  0  1.010869  0
H  H11  1  0.52880500  0.26684729  0.32048404  1  0.041379  0  0.094729  0.090063  0  1.002757  0
H  H12  1  0.78125965  0.49633349  0.60316164  1  0.110872  0  0.098774  0.111943  0  1.0329  0
H  H13  1  0.14550276  0.47856548  0.63404783  1  0.165791  0  0.129306  0.108249  0  0.997704  0
H  H14  1  0.95934551  0.26860487  0.49802723  1  0.035035  0  0.097764  0.100626  0  1.045565  0
H  H15  1  0.67195194  0.52855950  0.68041574  1  0.053048  0  0.094132  0.088958  0  1.003517  0
H  H16  1  0.21378957  0.53511050  0.73918173  1  0.071539  0  0.11941  0.12893  0  0.975997  0
H  H17  1  0.55448967  0.41198773  0.67321905  1  0.02817  0  0.093812  0.089299  0  1.003083  0
H  H18  1  0.99677432  0.71957346  0.78698329  1  0.103953  0  0.118506  0.128307  0  0.978147  0
H  H19  1  0.93940761  0.65704758  0.67924695  1  0.130869  0  0.133017  0.109837  0  0.963892  0
H  H20  1  0.18936700  0.86930681  0.89363500  1  0.080208  0  0.100598  0.102998  0  1.011358  0
H  H21  1  0.32516338  0.59825064  0.86173530  1  0.053646  0  0.099044  0.099727  0  1.016111  0
H  H22  1  0.46775208  0.53846504  0.88914358  1  0.068984  0  0.102183  0.099504  0  0.991968  0
H  H23  1  0.52763594  0.59003547  0.99529342  1  0.034669  0  0.101247  0.098999  0  0.999463  0
H  H24  1  0.21970477  0.03678498  0.94720557  1  0.054145  0  0.102821  0.099862  0  0.9934  0
H  H25  1  0.05404605  0.62823462  0.92501903  1  0.097092  0  0.099194  0.101545  0  1.015024  0
H  H26  1  0.95215071  0.67501262  0.41027780  1  0.100261  0  0.099315  0.109563  0  1.036098  0
H  H27  1  0.49844054  0.61767690  0.50706474  1  0.065076  0  0.097411  0.097827  0  1.02026  0
H  H28  1  0.77025929  0.54813183  0.51465336  1  0.054085  0  0.096906  0.099898  0  1.047794  0
H  H29  1  0.96443583  0.78847413  0.60654222  1  0.081296  0  0.09921  0.11067  0  1.027308  0
H  H30  1  0.61407098  0.50581476  0.51341005  1  0.057475  0  0.097283  0.097867  0  1.019501  0
H  H31  1  0.73661348  0.01245809  0.59285238  1  0.056437  0  0.094875  0.100093  0  1.050592  0
H  H32  1  0.85707587  0.05957776  0.67236779  1  0.052722  0  0.091441  0.08517  0  1.010053  0
H  H33  1  0.97105131  0.94705860  0.67946542  1  0.041777  0  0.094878  0.090518  0  1.001857  0
H  H34  1  0.71859704  0.89318270  0.39688197  1  0.098125  0  0.099104  0.112476  0  1.033006  0
H  H35  1  0.35461207  0.84460974  0.36569436  1  0.150061  0  0.129145  0.108056  0  0.998638  0
H  H36  1  0.54059639  0.77043335  0.50209147  1  0.04718  0  0.097824  0.101481  0  1.04479  0
H  H37  1  0.82802909  0.84834969  0.31968936  1  0.054363  0  0.094319  0.088946  0  1.004219  0
H  H38  1  0.28627959  0.79620711  0.26062267  1  0.087041  0  0.119192  0.128703  0  0.976358  0
H  H39  1  0.94541351  0.73887840  0.32675786  1  0.026977  0  0.093889  0.089237  0  1.002971  0
H  H40  1  0.50319706  0.93310748  0.21296139  1  0.095661  0  0.118348  0.128554  0  0.977376  0
H  H41  1  0.56055873  0.97828541  0.32068176  1  0.13838  0  0.132825  0.109145  0  0.963835  0
H  H42  1  0.31037658  0.97557064  0.10653020  1  0.087572  0  0.100409  0.103277  0  1.01051  0
H  H43  1  0.17466012  0.73657940  0.13800106  1  0.060664  0  0.098898  0.099628  0  1.016904  0
H  H44  1  0.03196411  0.64949158  0.11057220  1  0.066332  0  0.10222  0.099757  0  0.992687  0
H  H45  1  0.97221380  0.59481790  0.00439280  1  0.030137  0  0.100937  0.098482  0  1.000044  0
H  H46  1  0.27993982  0.08972842  0.05323817  1  0.073942  0  0.102815  0.09945  0  0.992202  0
H  H47  1  0.44594567  0.70303648  0.07470958  1  0.052136  0  0.099203  0.101366  0  1.015582  0
H  H48  1  0.45221870  0.73545709  0.41040387  1  0.093823  0  0.099278  0.10992  0  1.035208  0
H  H49  1  0.99838246  0.88914913  0.50705994  1  0.066241  0  0.097484  0.09788  0  1.020443  0
H  H50  1  0.27011351  0.96667090  0.51476790  1  0.065626  0  0.097026  0.100186  0  1.047436  0
H  H51  1  0.46436280  0.81856244  0.60654886  1  0.103769  0  0.09909  0.110695  0  1.02793  0
H  H52  1  0.11388215  0.00753961  0.51354152  1  0.086798  0  0.097183  0.097623  0  1.019973  0
H  H53  1  0.23688918  0.58065318  0.59296973  1  0.094379  0  0.094834  0.099576  0  1.05087  0
H  H54  1  0.35736564  0.61333644  0.67248894  1  0.03388  0  0.091164  0.084684  0  1.011246  0
H  H55  1  0.47117649  0.73314873  0.67952212  1  0.041614  0  0.094754  0.090119  0  1.002796  0
H  H56  1  0.21875282  0.50366774  0.39682759  1  0.110921  0  0.098761  0.111944  0  1.032873  0
H  H57  1  0.85449405  0.52143203  0.36593837  1  0.152434  0  0.129261  0.108151  0  0.99797  0
H  H58  1  0.04065728  0.73139233  0.50196418  1  0.034957  0  0.097765  0.100579  0  1.045644  0
H  H59  1  0.32807088  0.47145217  0.31957984  1  0.052936  0  0.094108  0.088883  0  1.003717  0
H  H60  1  0.78620334  0.46485550  0.26080457  1  0.071786  0  0.119459  0.129099  0  0.975919  0
H  H61  1  0.44552470  0.58802748  0.32678426  1  0.028053  0  0.093895  0.089383  0  1.002957  0
H  H62  1  0.00322058  0.28039633  0.21300959  1  0.103509  0  0.118436  0.128079  0  0.978264  0
H  H63  1  0.06058996  0.34294970  0.32074524  1  0.130523  0  0.133058  0.109914  0  0.963861  0
H  H64  1  0.81062874  0.13069386  0.10636959  1  0.080122  0  0.100614  0.103022  0  1.011299  0
H  H65  1  0.67483830  0.40174936  0.13827138  1  0.053645  0  0.098982  0.099635  0  1.016145  0
H  H66  1  0.53225292  0.46153093  0.11086112  1  0.068943  0  0.102171  0.099442  0  0.991989  0
H  H67  1  0.47236312  0.40996610  0.00471485  1  0.0347  0  0.101283  0.099015  0  0.999507  0
H  H68  1  0.78028442  0.96321806  0.05280074  1  0.054025  0  0.102853  0.100046  0  0.993376  0
H  H69  1  0.94595301  0.37176172  0.07498258  1  0.097029  0  0.099203  0.101553  0  1.015087  0
H  H70  1  0.04785151  0.32500801  0.58970952  1  0.099811  0  0.099387  0.109717  0  1.035883  0
H  H71  1  0.50156308  0.38233190  0.49295150  1  0.06489  0  0.097387  0.097742  0  1.020261  0
H  H72  1  0.22974476  0.45187114  0.48534247  1  0.054212  0  0.096923  0.099891  0  1.047738  0
H  H73  1  0.03556733  0.21150400  0.39344728  1  0.081696  0  0.099251  0.110849  0  1.027193  0
H  H74  1  0.38593396  0.49418988  0.48660199  1  0.057771  0  0.097271  0.097865  0  1.019458  0
H  H75  1  0.26339741  0.98753488  0.40714860  1  0.056649  0  0.094881  0.100004  0  1.050594  0
H  H76  1  0.14293782  0.94040825  0.32763517  1  0.054228  0  0.091348  0.085089  0  1.010131  0
H  H77  1  0.02895408  0.05291253  0.32053087  1  0.041969  0  0.094883  0.090606  0  1.001687  0
H  H78  1  0.28140010  0.10683696  0.60311339  1  0.098127  0  0.099219  0.112577  0  1.033107  0
H  H79  1  0.64538634  0.15538729  0.63430865  1  0.150019  0  0.129135  0.108025  0  0.998524  0
H  H80  1  0.45940588  0.22957336  0.49791989  1  0.047062  0  0.097902  0.101544  0  1.044832  0
H  H81  1  0.17196338  0.15167768  0.68030961  1  0.054631  0  0.094286  0.088965  0  1.004213  0
H  H82  1  0.71372279  0.20378803  0.73938051  1  0.086667  0  0.119193  0.128724  0  0.976323  0
H  H83  1  0.05459045  0.26115383  0.67323077  1  0.027309  0  0.093817  0.089104  0  1.003188  0
H  H84  1  0.49679996  0.06689841  0.78704778  1  0.09562  0  0.118385  0.128569  0  0.977545  0
H  H85  1  0.43943831  0.02171868  0.67932627  1  0.138477  0  0.13293  0.109264  0  0.96391  0
H  H86  1  0.68961263  0.02443101  0.89347540  1  0.087719  0  0.100397  0.103284  0  1.010623  0
H  H87  1  0.82534602  0.26342357  0.86200238  1  0.060765  0  0.098916  0.099606  0  1.016891  0
H  H88  1  0.96804086  0.35050632  0.88943306  1  0.066262  0  0.102226  0.099752  0  0.992729  0
H  H89  1  0.02778662  0.40517758  0.99561072  1  0.030178  0  0.100921  0.098483  0  1.000034  0
H  H90  1  0.72004613  0.91027454  0.94677014  1  0.074482  0  0.102806  0.099434  0  0.992242  0
H  H91  1  0.55405214  0.29696160  0.92529794  1  0.051964  0  0.099213  0.101351  0  1.015623  0
C  C92  1  0.65370870  0.25104930  0.44069679  1  -0.053916  0  -0.006746  0.037115  0  3.887696  0
C  C93  1  0.75665643  0.17423232  0.49193694  1  -0.070273  0  -0.00843  0.03336  0  3.925486  0
C  C94  1  0.66304222  0.21034459  0.49227291  1  0.002936  0  0.007571  -0.071405  0  3.809251  0
C  C95  1  0.78491758  0.33509582  0.49891960  1  0.035742  0  0.008788  -0.068092  0  3.794163  0
C  C96  1  0.82118784  0.24033336  0.49533572  1  -0.061736  0  -0.006856  0.037096  0  3.920539  0
C  C97  1  0.72693685  0.36227617  0.55293941  1  -0.07715  0  -0.00571  0.037457  0  3.880127  0
C  C98  1  0.66127273  0.29589111  0.54924581  1  -0.019977  0  -0.007605  0.032533  0  3.881348  0
C  C99  1  0.59960397  0.31439955  0.59264691  1  -0.056029  0  -0.101609  -0.138646  0  4.016273  0
C  C100  1  0.71841664  0.31820290  0.44446058  1  -0.059855  0  -0.005668  0.037951  0  3.878696  0
C  C101  1  0.93267940  0.12822046  0.49269265  1  -0.07489  0  -0.096549  -0.082767  0  4.021009  0
C  C102  1  0.78000455  0.08523169  0.48859295  1  -0.053186  0  -0.100091  -0.134419  0  3.996042  0
C  C103  1  0.58601220  0.23253906  0.39594962  1  -0.023383  0  -0.100064  -0.135155  0  4.010288  0
C  C104  1  0.86831519  0.06225320  0.48910318  1  -0.000608  0  -0.096523  -0.083587  0  4.023671  0
C  C105  1  0.71401374  0.36665881  0.40370483  1  -0.017031  0  -0.100885  -0.129298  0  4.006937  0
C  C106  1  0.64605357  0.34782517  0.35888767  1  -0.06143  0  -0.105068  -0.097475  0  4.071819  0
C  C107  1  0.86321412  0.39846058  0.50104131  1  1.584638  0  0.224871  0.592998  0  4.119997  0
C  C108  1  0.60101360  0.13047979  0.48853274  1  1.580632  0  0.225491  0.595934  0  4.124109  0
C  C109  1  0.58249355  0.28089368  0.35492323  1  -0.037225  0  -0.104398  -0.097145  0  4.073023  0
C  C110  1  0.73063465  0.44538033  0.60031936  1  0.012416  0  -0.099835  -0.13219  0  4.003457  0
C  C111  1  0.11561861  0.53216304  0.66965335  1  0.483611  0  0.063146  0.110878  0  3.904941  0
C  C112  1  0.90903448  0.21739029  0.49559583  1  0.038179  0  -0.096964  -0.128184  0  3.987927  0
C  C113  1  0.66900355  0.46299489  0.64388852  1  -0.074387  0  -0.104675  -0.097657  0  4.078122  0
C  C114  1  0.15267131  0.56347988  0.72789390  1  -0.008447  0  -0.067808  -0.166673  0  3.903057  0
C  C115  1  0.60363706  0.39797853  0.63996141  1  -0.059179  0  -0.105713  -0.099477  0  4.078026  0
C  C116  1  0.03171846  0.66637993  0.75444324  1  -0.047913  0  -0.072575  -0.176074  0  3.918139  0
C  C117  1  0.99937258  0.63162194  0.69505103  1  0.546303  0  0.063091  0.103756  0  3.925527  0
C  C118  1  0.14772696  0.66683603  0.83161142  1  -0.23155  0  -0.038947  -0.128343  0  4.08889  0
C  C119  1  0.18099099  0.69409055  0.88248584  1  -0.100711  0  -0.014799  -0.050712  0  4.034712  0
C  C120  1  0.21777366  0.72510862  0.94379801  1  0.11536  0  0.025188  0.083046  0  3.933566  0
C  C121  1  0.30696544  0.68321570  0.95262242  1  -0.03118  0  -0.0034  0.022831  0  3.907221  0
C  C122  1  0.15891008  0.70024643  0.98738358  1  -0.020994  0  -0.002756  0.02453  0  3.903678  0
C  C123  1  0.11078542  0.63269063  0.77183769  1  0.093127  0  0.023072  0.183922  0  4.107843  0
C  C124  1  0.21573445  0.89319987  0.94016061  1  0.053603  0  -0.09309  -0.125647  0  4.003817  0
C  C125  1  0.35215434  0.62082851  0.90812638  1  0.037095  0  -0.093639  -0.126187  0  4.006711  0
C  C126  1  0.43198762  0.58750113  0.92376922  1  -0.094226  0  -0.096005  -0.088895  0  4.042613  0
C  C127  1  0.46574953  0.61659817  0.98331304  1  -0.01326  0  -0.096253  -0.089483  0  4.045228  0
C  C128  1  0.23290053  0.98695240  0.97041677  1  -0.143182  0  -0.09515  -0.088131  0  4.043491  0
C  C129  1  0.07976164  0.65164616  0.97171239  1  -0.111623  0  -0.094827  -0.128191  0  4.005495  0
C  C130  1  0.23282146  0.83019260  0.97014975  1  -0.017311  0  -0.003719  0.021984  0  3.909228  0
C  C131  1  0.84628618  0.81060222  0.55926862  1  -0.038759  0  -0.006456  0.037344  0  3.886888  0
C  C132  1  0.74336853  0.68233344  0.50805046  1  -0.067731  0  -0.008235  0.033129  0  3.92407  0
C  C133  1  0.83697484  0.71822360  0.50772208  1  0.017072  0  0.007451  -0.070241  0  3.80531  0
C  C134  1  0.71497427  0.83614995  0.50104179  1  0.01273  0  0.009063  -0.067123  0  3.794426  0
C  C135  1  0.67876187  0.74496969  0.50468412  1  -0.004846  0  -0.007743  0.036941  0  3.919938  0
C  C136  1  0.77294525  0.80929587  0.44701291  1  -0.037904  0  -0.005993  0.037337  0  3.878808  0
C  C137  1  0.83869305  0.74670509  0.45071612  1  -0.030625  0  -0.007381  0.03132  0  3.880639  0
C  C138  1  0.90033271  0.72180471  0.40728867  1  -0.05371  0  -0.101641  -0.137921  0  4.016869  0
C  C139  1  0.78149890  0.87387381  0.55545885  1  -0.025109  0  -0.005373  0.038309  0  3.877676  0
C  C140  1  0.56736724  0.63535913  0.50730181  1  -0.057442  0  -0.095575  -0.081271  0  4.022497  0
C  C141  1  0.72009100  0.59661241  0.51132400  1  0.027956  0  -0.099923  -0.134034  0  3.995711  0
C  C142  1  0.91396567  0.83701497  0.60403844  1  -0.02342  0  -0.10011  -0.135343  0  4.009361  0
C  C143  1  0.63180539  0.57301147  0.51081300  1  -0.020011  0  -0.096827  -0.083925  0  4.023296  0
C  C144  1  0.78578147  0.96317221  0.59617503  1  0.003218  0  -0.100798  -0.129606  0  4.007179  0
C  C145  1  0.85368678  0.98930096  0.64102455  1  -0.060614  0  -0.105863  -0.098631  0  4.073774  0
C  C146  1  0.63664962  0.89731564  0.49893042  1  1.585656  0  0.224426  0.591923  0  4.12464  0
C  C147  1  0.89908142  0.64215430  0.51147297  1  1.580081  0  0.225768  0.595305  0  4.122742  0
C  C148  1  0.91736010  0.92648524  0.64503961  1  -0.072013  0  -0.104246  -0.097183  0  4.072297  0
C  C149  1  0.76923049  0.84506887  0.39968405  1  -0.072839  0  -0.100037  -0.132552  0  4.003257  0
C  C150  1  0.38445658  0.86277000  0.33015250  1  0.442946  0  0.063485  0.110708  0  3.907808  0
C  C151  1  0.59093889  0.72165579  0.50444077  1  -0.056165  0  -0.097475  -0.130964  0  3.990283  0
C  C152  1  0.83090443  0.81921421  0.35614799  1  -0.002443  0  -0.104756  -0.097912  0  4.078565  0
C  C153  1  0.34734858  0.83595523  0.27194076  1  0.066308  0  -0.068245  -0.166641  0  3.904205  0
C  C154  1  0.89625875  0.75809379  0.36001920  1  -0.072644  0  -0.106022  -0.099  0  4.077645  0
C  C155  1  0.46823813  0.91241189  0.24545501  1  0.062781  0  -0.073187  -0.178519  0  3.916145  0
C  C156  1  0.50058733  0.93704127  0.30485447  1  0.449222  0  0.063639  0.106171  0  3.923633  0
C  C157  1  0.35221916  0.83538111  0.16825180  1  -0.155666  0  -0.039292  -0.12941  0  4.088355  0
C  C158  1  0.31897423  0.81153348  0.11736530  1  -0.21786  0  -0.014184  -0.049493  0  4.034117  0
C  C159  1  0.28223965  0.78115884  0.05603816  1  0.148221  0  0.025033  0.081736  0  3.93397  0
C  C160  1  0.19303707  0.73041516  0.04713424  1  -0.041167  0  -0.003329  0.023442  0  3.906895  0
C  C161  1  0.34114887  0.71281848  0.01236489  1  -0.050221  0  -0.002746  0.025002  0  3.903952  0
C  C162  1  0.38919655  0.86124344  0.22801608  1  0.034186  0  0.02405  0.186332  0  4.105861  0
C  C163  1  0.28399086  0.95302489  0.06001012  1  -0.017815  0  -0.092938  -0.126975  0  4.004733  0
C  C164  1  0.14771972  0.71267206  0.09160300  1  0.037845  0  -0.093516  -0.126497  0  4.008119  0
C  C165  1  0.06781224  0.66381730  0.07596440  1  -0.091934  0  -0.095903  -0.088322  0  4.042625  0
C  C166  1  0.03414203  0.63329064  0.01639988  1  0.02014  0  -0.096134  -0.089957  0  4.044259  0
C  C167  1  0.26670672  0.01667618  0.02992851  1  -0.013061  0  -0.09439  -0.08579  0  4.040789  0
C  C168  1  0.42025868  0.67981347  0.02801232  1  0.001014  0  -0.094981  -0.128547  0  4.008377  0
C  C169  1  0.26709333  0.86000036  0.02985222  1  -0.105954  0  -0.004056  0.021906  0  3.911833  0
C  C170  1  0.34628374  0.74894876  0.55930243  1  -0.054319  0  -0.006656  0.037174  0  3.887566  0
C  C171  1  0.24334122  0.82576777  0.50806362  1  -0.070573  0  -0.008438  0.033367  0  3.925409  0
C  C172  1  0.33695806  0.78965789  0.50773143  1  0.006515  0  0.007457  -0.071808  0  3.809502  0
C  C173  1  0.21508131  0.66489532  0.50106571  1  0.035467  0  0.008687  -0.068382  0  3.794085  0
C  C174  1  0.17881102  0.75966012  0.50465057  1  -0.061241  0  -0.006845  0.03727  0  3.92032  0
C  C175  1  0.27307681  0.63773272  0.44705268  1  -0.077021  0  -0.005717  0.037445  0  3.880427  0
C  C176  1  0.33873515  0.70411896  0.45075370  1  -0.020119  0  -0.007516  0.032738  0  3.881445  0
C  C177  1  0.40040709  0.68561602  0.40735399  1  -0.054927  0  -0.10157  -0.138398  0  4.016413  0
C  C178  1  0.28157782  0.68178544  0.55552952  1  -0.059212  0  -0.005708  0.038135  0  3.878138  0
C  C179  1  0.06732026  0.87177922  0.50731026  1  -0.074811  0  -0.096668  -0.083084  0  4.021245  0
C  C180  1  0.21999313  0.91477098  0.51141228  1  -0.05343  0  -0.100117  -0.134441  0  3.996024  0
C  C181  1  0.41397522  0.76745034  0.60405056  1  -0.022794  0  -0.100261  -0.135598  0  4.010551  0
C  C182  1  0.13168251  0.93774965  0.51090362  1  -0.000311  0  -0.096457  -0.083456  0  4.023593  0
C  C183  1  0.28597679  0.63333345  0.59628993  1  -0.021151  0  -0.100858  -0.129285  0  4.0069  0
C  C184  1  0.35393043  0.65216995  0.64111136  1  -0.063097  0  -0.105011  -0.097395  0  4.072207  0
C  C185  1  0.13678583  0.60152513  0.49892193  1  1.583494  0  0.225353  0.593413  0  4.118436  0
C  C186  1  0.39899340  0.86951915  0.51147771  1  1.577147  0  0.22581  0.596456  0  4.12383  0
C  C187  1  0.41749455  0.71909622  0.64507953  1  -0.03697  0  -0.104359  -0.097138  0  4.072908  0
C  C188  1  0.26937700  0.55463220  0.39967434  1  0.01314  0  -0.099821  -0.132176  0  4.003702  0
C  C189  1  0.88437973  0.46782781  0.33033790  1  0.497444  0  0.063261  0.110981  0  3.904658  0
C  C190  1  0.09096703  0.78260576  0.50439581  1  0.037939  0  -0.096912  -0.128125  0  3.987967  0
C  C191  1  0.33101268  0.53701982  0.35610805  1  -0.074579  0  -0.104702  -0.097742  0  4.078751  0
C  C192  1  0.84732149  0.43649371  0.27209520  1  -0.00851  0  -0.067997  -0.167062  0  3.90318  0
C  C193  1  0.39637588  0.60204111  0.36004012  1  -0.060532  0  -0.10578  -0.099531  0  4.078371  0
C  C194  1  0.96828086  0.33359814  0.24555036  1  -0.047913  0  -0.072483  -0.175676  0  3.918061  0
C  C195  1  0.00062378  0.36837317  0.30494382  1  0.547334  0  0.062895  0.103394  0  3.925528  0
C  C196  1  0.85227176  0.33314183  0.16838542  1  -0.231662  0  -0.039104  -0.128645  0  4.089369  0
C  C197  1  0.81900404  0.30590787  0.11751234  1  -0.100622  0  -0.01462  -0.050362  0  4.03475  0
C  C198  1  0.78222273  0.27488894  0.05620208  1  0.114863  0  0.02519  0.083071  0  3.933579  0
C  C199  1  0.69303358  0.31678425  0.04738146  1  -0.031133  0  -0.003457  0.022657  0  3.907584  0
C  C200  1  0.84109034  0.29974707  0.01261725  1  -0.021112  0  -0.002759  0.024587  0  3.903546  0
C  C201  1  0.88921267  0.36728413  0.22815673  1  0.092739  0  0.023053  0.183907  0  4.108462  0
C  C202  1  0.78426059  0.10680209  0.05984253  1  0.049772  0  -0.093112  -0.125603  0  4.003769  0
C  C203  1  0.64784806  0.37916765  0.09187920  1  0.036675  0  -0.093535  -0.125979  0  4.006819  0
C  C204  1  0.56801798  0.41249830  0.07623620  1  -0.093598  0  -0.096092  -0.088974  0  4.042497  0
C  C205  1  0.53425147  0.38340078  0.01669121  1  -0.013578  0  -0.096188  -0.089433  0  4.045078  0
C  C206  1  0.76708866  0.01305022  0.02958910  1  -0.139359  0  -0.095129  -0.088456  0  4.043535  0
C  C207  1  0.92023739  0.34835211  0.02828979  1  -0.111857  0  -0.094876  -0.128268  0  4.005711  0
C  C208  1  0.76717824  0.16980191  0.02984864  1  -0.017194  0  -0.003729  0.021859  0  3.909397  0
C  C209  1  0.15372196  0.18938874  0.44072203  1  -0.038805  0  -0.006364  0.037444  0  3.886746  0
C  C210  1  0.25663153  0.31766643  0.49193742  1  -0.066047  0  -0.008302  0.033007  0  3.924173  0
C  C211  1  0.16302399  0.28177296  0.49226661  1  0.016673  0  0.007344  -0.070511  0  3.805652  0
C  C212  1  0.28502522  0.16385709  0.49896023  1  0.012831  0  0.009109  -0.066952  0  3.79459  0
C  C213  1  0.32124083  0.25503528  0.49531165  1  -0.004203  0  -0.007645  0.036999  0  3.919936  0
C  C214  1  0.22705401  0.19071789  0.55298412  1  -0.03887  0  -0.005934  0.037416  0  3.878539  0
C  C215  1  0.16130359  0.25330333  0.54927414  1  -0.029898  0  -0.0074  0.031186  0  3.880968  0
C  C216  1  0.09966181  0.27820931  0.59269894  1  -0.053654  0  -0.101875  -0.138214  0  4.017038  0
C  C217  1  0.21850664  0.12612299  0.44453977  1  -0.025223  0  -0.005434  0.038092  0  3.877563  0
C  C218  1  0.43263696  0.36464478  0.49270396  1  -0.056763  0  -0.095524  -0.081127  0  4.022535  0
C  C219  1  0.27991237  0.40339120  0.48867110  1  0.026328  0  -0.099865  -0.133793  0  3.995667  0
C  C220  1  0.08603945  0.16296607  0.39595468  1  -0.023279  0  -0.100291  -0.135702  0  4.009482  0
C  C221  1  0.36819947  0.42699120  0.48919153  1  -0.020812  0  -0.096872  -0.084065  0  4.023339  0
C  C222  1  0.21422490  0.03681881  0.40382676  1  0.002707  0  -0.100757  -0.129301  0  4.007438  0
C  C223  1  0.14632822  0.01068625  0.35898030  1  -0.061496  0  -0.105845  -0.098692  0  4.073921  0
C  C224  1  0.36334925  0.10270106  0.50108617  1  1.584536  0  0.224662  0.592147  0  4.124141  0
C  C225  1  0.10091799  0.35783990  0.48850780  1  1.580629  0  0.225819  0.595432  0  4.122772  0
C  C226  1  0.08264324  0.07349076  0.35495743  1  -0.072897  0  -0.104128  -0.097122  0  4.071781  0
C  C227  1  0.23077257  0.15495392  0.60031721  1  -0.072512  0  -0.10022  -0.132648  0  4.00294  0
C  C228  1  0.61554317  0.13722715  0.66985270  1  0.443191  0  0.063482  0.110827  0  3.907432  0
C  C229  1  0.40906462  0.27834563  0.49555973  1  -0.056455  0  -0.097572  -0.131037  0  3.990562  0
C  C230  1  0.16909390  0.18081479  0.64385192  1  -0.002701  0  -0.104659  -0.097944  0  4.078633  0
C  C231  1  0.65265245  0.16404275  0.72806320  1  0.066725  0  -0.068182  -0.166606  0  3.904071  0
C  C232  1  0.10374473  0.24193219  0.63997213  1  -0.072854  0  -0.10579  -0.098634  0  4.078108  0
C  C233  1  0.53175618  0.08759926  0.75455530  1  0.063175  0  -0.073253  -0.178431  0  3.916274  0
C  C234  1  0.49940838  0.06296373  0.69515379  1  0.450817  0  0.063622  0.106103  0  3.923859  0
C  C235  1  0.64778682  0.16462586  0.83174736  1  -0.152607  0  -0.039287  -0.129323  0  4.088333  0
C  C236  1  0.68102844  0.18847823  0.88263726  1  -0.221444  0  -0.014201  -0.04955  0  4.033795  0
C  C237  1  0.71776062  0.21884293  0.94396476  1  0.148386  0  0.025003  0.081776  0  3.93392  0
C  C238  1  0.80696663  0.26957823  0.95286786  1  -0.040234  0  -0.003339  0.023354  0  3.907095  0
C  C239  1  0.65885339  0.28718270  0.98763883  1  -0.049676  0  -0.002718  0.025068  0  3.904241  0
C  C240  1  0.61080434  0.13876281  0.77198998  1  0.033559  0  0.024013  0.186087  0  4.106102  0
C  C241  1  0.71600224  0.04697603  0.93999266  1  0.019631  0  -0.092983  -0.127122  0  4.005011  0
C  C242  1  0.85228398  0.28732344  0.90840122  1  0.037351  0  -0.093503  -0.126383  0  4.008131  0
C  C243  1  0.93218805  0.33618506  0.92404051  1  -0.091803  0  -0.095968  -0.088445  0  4.04276  0
C  C244  1  0.96585701  0.36670907  0.98360513  1  0.019868  0  -0.096016  -0.089833  0  4.044471  0
C  C245  1  0.73328374  0.98332728  0.97007614  1  -0.051027  0  -0.094343  -0.085568  0  4.040774  0
C  C246  1  0.57974557  0.32018754  0.97199262  1  0.000907  0  -0.095059  -0.128567  0  4.008656  0
C  C247  1  0.73290507  0.13999680  0.97015022  1  -0.105594  0  -0.004051  0.022011  0  3.911836  0
N  N248  1  0.04058685  0.56594647  0.65339353  1  -1.257448  0  -0.320104  -0.199344  0  3.505473  0
N  N249  1  0.45947144  0.91284300  0.34646483  1  -1.243471  0  -0.320057  -0.200802  0  3.505946  0
N  N250  1  0.95941466  0.43405127  0.34659981  1  -1.257984  0  -0.319972  -0.199083  0  3.505039  0
N  N251  1  0.54052563  0.08715789  0.65354138  1  -1.24464  0  -0.320146  -0.20089  0  3.506104  0
O  O252  1  0.89702558  0.44649143  0.55226914  1  -1.171064  0  -0.309912  -0.536797  0  2.356366  0
O  O253  1  0.58317484  0.12081829  0.53802421  1  -1.188286  0  -0.307407  -0.559008  0  2.422768  0
O  O254  1  0.89269900  0.39334686  0.45106089  1  -1.172224  0  -0.308215  -0.541731  0  2.377585  0
O  O255  1  0.57658672  0.07534018  0.43697968  1  -1.162603  0  -0.305797  -0.530543  0  2.33603  0
O  O256  1  0.60280766  0.89409276  0.44772946  1  -1.169919  0  -0.310242  -0.537442  0  2.358816  0
O  O257  1  0.91699435  0.58299125  0.46198783  1  -1.19369  0  -0.306884  -0.558376  0  2.42374  0
O  O258  1  0.60716920  0.94215068  0.54893810  1  -1.172621  0  -0.308228  -0.541696  0  2.379891  0
O  O259  1  0.92347544  0.63856839  0.56302465  1  -1.160753  0  -0.30633  -0.530716  0  2.33353  0
O  O260  1  0.10296227  0.55351802  0.44770487  1  -1.171653  0  -0.31016  -0.537048  0  2.356576  0
O  O261  1  0.41683235  0.87917796  0.46199392  1  -1.187767  0  -0.307372  -0.558885  0  2.423167  0
O  O262  1  0.10731853  0.60662194  0.54891574  1  -1.170834  0  -0.308496  -0.541899  0  2.375801  0
O  O263  1  0.42341570  0.92466578  0.56303992  1  -1.162831  0  -0.30612  -0.531043  0  2.335578  0
O  O264  1  0.39719518  0.10592770  0.55229437  1  -1.169336  0  -0.310606  -0.53778  0  2.358526  0
O  O265  1  0.08298523  0.41698513  0.53799717  1  -1.194346  0  -0.306955  -0.558403  0  2.423812  0
O  O266  1  0.39282393  0.05786430  0.45108507  1  -1.17212  0  -0.308193  -0.541768  0  2.379686  0
O  O267  1  0.07653746  0.36143958  0.43695961  1  -1.160597  0  -0.306433  -0.530817  0  2.333464  0
