# generated using pymatgen
data_AlH3C17O7F6
_symmetry_space_group_name_H-M   'P 1'
_cell_length_a   6.64539819
_cell_length_b   23.62229862
_cell_length_c   26.19192098
_cell_angle_alpha   78.48254278
_cell_angle_beta   90.38951428
_cell_angle_gamma   90.49235977
_symmetry_Int_Tables_number   1
_chemical_formula_structural   AlH3C17O7F6
_chemical_formula_sum   'Al4 H12 C68 O28 F24'
_cell_volume   4028.60235525
_cell_formula_units_Z   4
loop_
 _symmetry_equiv_pos_site_id
 _symmetry_equiv_pos_as_xyz
  1  'x, y, z'
loop_
 _atom_site_type_symbol
 _atom_site_label
 _atom_site_symmetry_multiplicity
 _atom_site_fract_x
 _atom_site_fract_y
 _atom_site_fract_z
 _atom_site_occupancy
 _atom_site_pbe_bader_charge
 _atom_site_pbe_bader_spin_density
 _atom_site_pbe_cm5_charge
 _atom_site_pbe_ddec_charge
 _atom_site_pbe_ddec_spin_density
 _atom_site_pbe_ddec_sum_bond_order
 _atom_site_pbe_magmom
Al  Al0  1  0.73220140  0.25395554  0.74889163  1  2.500914  0  0.401838  1.635343  0  2.582075  0
Al  Al1  1  0.25604070  0.75007751  0.25108065  1  2.496994  0  0.401015  1.63706  0  2.588796  0
Al  Al2  1  0.23181593  0.24884123  0.75022032  1  2.499694  0  0.403161  1.637597  0  2.577141  0
Al  Al3  1  0.75672028  0.75235847  0.24997279  1  2.499105  0  0.403282  1.636198  0  2.575089  0
H  H4  1  0.00301604  0.39411375  0.03410745  1  0.125712  0  0.12004  0.149155  0  0.964453  0
H  H5  1  0.00804722  0.60641200  0.96736539  1  0.111452  0  0.12187  0.151049  0  0.962922  0
H  H6  1  0.50753404  0.10570409  0.46521515  1  0.127363  0  0.120747  0.149513  0  0.964485  0
H  H7  1  0.49476300  0.89422906  0.53605615  1  0.127863  0  0.121076  0.150116  0  0.964047  0
H  H8  1  0.68567477  0.78653359  0.08749709  1  0.615772  0  0.334578  0.37209  0  0.880745  0
H  H9  1  0.58140205  0.36430009  0.80658849  1  0.644645  0  0.333151  0.383226  0  0.881395  0
H  H10  1  0.91644024  0.86096483  0.30713847  1  0.646742  0  0.331462  0.38173  0  0.887066  0
H  H11  1  0.08184043  0.14095825  0.69179345  1  0.642198  0  0.329448  0.380366  0  0.891048  0
H  H12  1  0.46958874  0.32457289  0.72277810  1  0.615234  0  0.355619  0.436898  0  0.849751  0
H  H13  1  0.50717898  0.68328552  0.23492612  1  0.636327  0  0.35846  0.443403  0  0.835858  0
H  H14  1  0.96632910  0.17742079  0.77495081  1  0.641465  0  0.353767  0.435721  0  0.851662  0
H  H15  1  0.01652927  0.82416414  0.22155917  1  0.642616  0  0.35395  0.436235  0  0.849261  0
C  C16  1  0.48715761  0.17396018  0.82494767  1  1.667457  0  0.288053  0.728569  0  4.13573  0
C  C17  1  0.50543314  0.82950165  0.17459551  1  1.696358  0  0.277798  0.712203  0  4.165754  0
C  C18  1  0.98869343  0.32854445  0.67399916  1  1.688694  0  0.287688  0.729981  0  4.137981  0
C  C19  1  0.99915342  0.67559980  0.32664426  1  1.688607  0  0.282967  0.71465  0  4.156922  0
C  C20  1  0.48412643  0.19197471  0.68359888  1  1.615715  0  0.277009  0.668575  0  4.079435  0
C  C21  1  0.50572595  0.80932099  0.31656992  1  1.608495  0  0.280672  0.673032  0  4.070089  0
C  C22  1  0.98843988  0.31050845  0.81552772  1  1.609763  0  0.275403  0.667154  0  4.083584  0
C  C23  1  0.00754996  0.69004672  0.18630878  1  1.605887  0  0.27587  0.672243  0  4.0831  0
C  C24  1  0.15118756  0.60878426  0.14986334  1  0.596625  0  0.104411  0.170724  0  4.058027  0
C  C25  1  0.86209962  0.34113738  0.89622480  1  0.594712  0  0.098245  0.161281  0  4.092219  0
C  C26  1  0.63716861  0.83962949  0.39764420  1  0.548223  0  0.098072  0.16062  0  4.091352  0
C  C27  1  0.35858680  0.16059583  0.60251064  1  0.58826  0  0.097922  0.161351  0  4.091952  0
C  C28  1  0.15024445  0.57225186  0.11406548  1  0.528752  0  0.106115  0.158653  0  4.062501  0
C  C29  1  0.86631171  0.37868757  0.93106516  1  0.551417  0  0.101243  0.151902  0  4.057618  0
C  C30  1  0.63488535  0.87689868  0.43275135  1  0.49923  0  0.101737  0.153631  0  4.054452  0
C  C31  1  0.36347136  0.12296820  0.56775423  1  0.503709  0  0.101423  0.152498  0  4.057324  0
C  C32  1  0.00614960  0.57693914  0.07432742  1  0.137053  0  -0.013001  -0.108866  0  4.042007  0
C  C33  1  0.01013053  0.42292707  0.92758778  1  0.095296  0  -0.013238  -0.107445  0  4.037272  0
C  C34  1  0.49270334  0.92090091  0.42914817  1  0.138561  0  -0.013896  -0.108999  0  4.03984  0
C  C35  1  0.50678803  0.07918953  0.57201988  1  0.163243  0  -0.012789  -0.106382  0  4.042282  0
C  C36  1  0.86301225  0.62069157  0.07241835  1  0.458113  0  0.110009  0.231991  0  4.022451  0
C  C37  1  0.15420612  0.42613605  0.88800620  1  0.510093  0  0.107566  0.229752  0  4.028087  0
C  C38  1  0.34725599  0.92390748  0.38948975  1  0.445821  0  0.10685  0.229354  0  4.032995  0
C  C39  1  0.65044142  0.07679477  0.61201849  1  0.523092  0  0.107933  0.229854  0  4.030774  0
C  C40  1  0.85964938  0.65793232  0.10737220  1  0.096442  0  -0.013805  -0.141449  0  3.967619  0
C  C41  1  0.15307872  0.38980895  0.85230894  1  0.032493  0  -0.010644  -0.134112  0  3.949735  0
C  C42  1  0.34607298  0.88782990  0.35365047  1  0.082607  0  -0.00994  -0.133575  0  3.954967  0
C  C43  1  0.64892170  0.11323168  0.64758247  1  0.083882  0  -0.009606  -0.132847  0  3.946921  0
C  C44  1  0.00724798  0.65203013  0.14697596  1  0.082071  0  -0.004242  -0.117525  0  3.936792  0
C  C45  1  0.00020991  0.34753306  0.85558235  1  0.056543  0  -0.011294  -0.136978  0  3.969089  0
C  C46  1  0.49822248  0.84606043  0.35680882  1  0.113483  0  -0.009356  -0.136822  0  3.970509  0
C  C47  1  0.49547323  0.15474266  0.64377723  1  0.012499  0  -0.011392  -0.137442  0  3.970979  0
C  C48  1  0.00296341  0.47802286  0.05312787  1  0.453993  0  0.09971  0.240613  0  4.052839  0
C  C49  1  0.00964361  0.52248329  0.94822049  1  0.430271  0  0.09942  0.238768  0  4.053503  0
C  C50  1  0.49953669  0.02096272  0.44796996  1  0.413848  0  0.099861  0.239208  0  4.055647  0
C  C51  1  0.50310856  0.97899005  0.55333032  1  0.440179  0  0.099141  0.237736  0  4.05374  0
C  C52  1  0.00535671  0.44047299  0.01873749  1  0.007795  0  -0.089916  -0.225944  0  3.972201  0
C  C53  1  0.00785762  0.56005541  0.98266068  1  0.012276  0  -0.087037  -0.221642  0  3.966192  0
C  C54  1  0.50386226  0.05955323  0.48144859  1  0.007537  0  -0.090117  -0.225643  0  3.973506  0
C  C55  1  0.49872853  0.94038573  0.51984276  1  0.019624  0  -0.087553  -0.222197  0  3.967908  0
C  C56  1  0.01045596  0.46228513  0.96485721  1  0.106704  0  -0.009636  0.017509  0  4.023841  0
C  C57  1  0.00620688  0.53821232  0.03652815  1  0.107431  0  -0.010481  0.016073  0  4.027455  0
C  C58  1  0.50625168  0.03900367  0.53551874  1  0.03353  0  -0.011256  0.016159  0  4.029619  0
C  C59  1  0.49589528  0.96094009  0.46577498  1  0.189824  0  -0.009899  0.017428  0  4.025442  0
C  C60  1  0.16556985  0.49409426  0.53314552  1  0.557488  0  0.105304  0.143682  0  4.069775  0
C  C61  1  0.82972066  0.50989416  0.46776700  1  0.568838  0  0.10471  0.142268  0  4.067944  0
C  C62  1  0.66379534  0.00809694  0.96518205  1  0.578917  0  0.106414  0.144809  0  4.068111  0
C  C63  1  0.33269875  0.99185769  0.03136505  1  0.588947  0  0.105626  0.14466  0  4.066663  0
C  C64  1  0.99933508  0.45636264  0.54508658  1  0.18939  0  -0.004001  -0.047017  0  4.152139  0
C  C65  1  0.99572025  0.54775184  0.45587972  1  0.18322  0  -0.003104  -0.042193  0  4.150923  0
C  C66  1  0.49814617  0.04550922  0.95351191  1  0.183803  0  -0.002073  -0.041895  0  4.146386  0
C  C67  1  0.49835689  0.95443662  0.04304068  1  0.133496  0  -0.004552  -0.046183  0  4.156052  0
C  C68  1  0.83156045  0.46534884  0.51122558  1  0.574077  0  0.104528  0.14303  0  4.070698  0
C  C69  1  0.16359579  0.53869963  0.48972161  1  0.577219  0  0.104972  0.143224  0  4.069227  0
C  C70  1  0.33274231  0.03623251  0.98773499  1  0.597951  0  0.106351  0.144734  0  4.064107  0
C  C71  1  0.66355638  0.96367513  0.00875416  1  0.565387  0  0.104409  0.141777  0  4.072623  0
C  C72  1  0.99919737  0.41167226  0.58947077  1  -0.390113  0  -0.010437  0.022053  0  4.085659  0
C  C73  1  0.99503095  0.59262277  0.41161054  1  -0.416374  0  -0.01545  0.008851  0  4.093211  0
C  C74  1  0.49685274  0.09026942  0.90917539  1  -0.221069  0  -0.010987  0.01656  0  4.083359  0
C  C75  1  0.49982485  0.91005990  0.08772686  1  -0.448587  0  -0.013783  0.014705  0  4.087591  0
C  C76  1  0.99654144  0.63112754  0.37309158  1  0.254199  0  -0.010056  -0.150524  0  3.886437  0
C  C77  1  0.99560229  0.37330170  0.62806427  1  0.232894  0  -0.013439  -0.161942  0  3.895374  0
C  C78  1  0.50088638  0.87250660  0.12702817  1  0.256077  0  -0.018278  -0.169679  0  3.903547  0
C  C79  1  0.49347703  0.12883029  0.87072176  1  0.071497  0  -0.009204  -0.15264  0  3.884474  0
C  C80  1  0.70337085  0.70448318  0.10073721  1  1.538902  0  0.235356  0.604214  0  4.125093  0
C  C81  1  0.31345191  0.39340533  0.81102841  1  1.594453  0  0.23983  0.621435  0  4.113533  0
C  C82  1  0.18443434  0.89145576  0.31219184  1  1.586561  0  0.239018  0.617883  0  4.117449  0
C  C83  1  0.81157247  0.11081336  0.68868487  1  1.566547  0  0.239897  0.621423  0  4.111723  0
O  O84  1  0.31081674  0.19958881  0.70183037  1  -1.242474  0  -0.229199  -0.593673  0  2.336851  0
O  O85  1  0.67609705  0.80256765  0.29663255  1  -1.239014  0  -0.223554  -0.581635  0  2.333693  0
O  O86  1  0.81413342  0.30231320  0.79743131  1  -1.249573  0  -0.22863  -0.593198  0  2.346104  0
O  O87  1  0.17802450  0.70614362  0.20024448  1  -1.242149  0  -0.226331  -0.586633  0  2.377701  0
O  O88  1  0.65495385  0.19440245  0.80644885  1  -1.239321  0  -0.220062  -0.576084  0  2.297563  0
O  O89  1  0.33720611  0.81395307  0.19566638  1  -1.227112  0  -0.219029  -0.569155  0  2.299836  0
O  O90  1  0.15629347  0.30783210  0.69236963  1  -1.238699  0  -0.222545  -0.581206  0  2.29857  0
O  O91  1  0.82992526  0.69647341  0.30994774  1  -1.233993  0  -0.220451  -0.567195  0  2.289579  0
O  O92  1  0.65017546  0.21096423  0.69719123  1  -1.239717  0  -0.2184  -0.565933  0  2.388207  0
O  O93  1  0.33890904  0.78975845  0.30409664  1  -1.249153  0  -0.212902  -0.558221  0  2.376712  0
O  O94  1  0.15369498  0.29238104  0.80167222  1  -1.239377  0  -0.217797  -0.566105  0  2.382304  0
O  O95  1  0.83685612  0.70225972  0.20294627  1  -1.246994  0  -0.230185  -0.595842  0  2.341648  0
O  O96  1  0.81536822  0.31360009  0.69259710  1  -1.24267  0  -0.223931  -0.579077  0  2.285133  0
O  O97  1  0.16995429  0.68930717  0.30614018  1  -1.232247  0  -0.219407  -0.566503  0  2.285812  0
O  O98  1  0.31360669  0.18934043  0.80675087  1  -1.230473  0  -0.223064  -0.578526  0  2.283808  0
O  O99  1  0.67954691  0.81139542  0.19063475  1  -1.230368  0  -0.231724  -0.5935  0  2.29607  0
O  O100  1  0.47941150  0.28714430  0.74625532  1  -1.413141  0  -0.448279  -0.994904  0  2.188483  0
O  O101  1  0.50703907  0.71700482  0.25092511  1  -1.431058  0  -0.445513  -0.989871  0  2.181608  0
O  O102  1  0.97784630  0.21559047  0.75272893  1  -1.439708  0  -0.448034  -0.995932  0  2.194386  0
O  O103  1  0.00834976  0.78760813  0.24639901  1  -1.440265  0  -0.44775  -0.994649  0  2.18626  0
O  O104  1  0.52248968  0.69602492  0.10342001  1  -1.11998  0  -0.279281  -0.470266  0  2.090658  0
O  O105  1  0.79178559  0.75747274  0.08950948  1  -1.093255  0  -0.328735  -0.467344  0  2.220038  0
O  O106  1  0.28512622  0.41101422  0.76458399  1  -1.111438  0  -0.287198  -0.476943  0  2.048355  0
O  O107  1  0.48789815  0.37270888  0.83318047  1  -1.130214  0  -0.326874  -0.48245  0  2.311224  0
O  O108  1  0.21191229  0.91009801  0.26591327  1  -1.121257  0  -0.286615  -0.474016  0  2.050323  0
O  O109  1  0.01069238  0.86961246  0.33392037  1  -1.133359  0  -0.326996  -0.482954  0  2.317722  0
O  O110  1  0.78595545  0.09403114  0.73531633  1  -1.11079  0  -0.287698  -0.478603  0  2.051646  0
O  O111  1  0.98498813  0.13138370  0.66592713  1  -1.128046  0  -0.327608  -0.483534  0  2.318221  0
F  F112  1  0.29146136  0.59940841  0.18803776  1  -0.619572  0  -0.083096  -0.102668  0  1.373037  0
F  F113  1  0.72637375  0.29754121  0.90394533  1  -0.624849  0  -0.084419  -0.099681  0  1.383735  0
F  F114  1  0.77153010  0.79629044  0.40518674  1  -0.600878  0  -0.082422  -0.098133  0  1.383962  0
F  F115  1  0.22370101  0.20382983  0.59412379  1  -0.618423  0  -0.084159  -0.099509  0  1.383015  0
F  F116  1  0.29585227  0.53222061  0.11799943  1  -0.619839  0  -0.08401  -0.10383  0  1.376273  0
F  F117  1  0.72431446  0.37186459  0.96857856  1  -0.633523  0  -0.085152  -0.105521  0  1.363292  0
F  F118  1  0.77718730  0.87015160  0.47056977  1  -0.629368  0  -0.086161  -0.10673  0  1.359962  0
F  F119  1  0.22261736  0.12922999  0.52959366  1  -0.628657  0  -0.085052  -0.105356  0  1.361097  0
F  F120  1  0.72235077  0.62729986  0.03386485  1  -0.617241  0  -0.089711  -0.122922  0  1.349593  0
F  F121  1  0.30381271  0.46603692  0.88518567  1  -0.622808  0  -0.090925  -0.121031  0  1.353753  0
F  F122  1  0.19871939  0.96345843  0.38670399  1  -0.624077  0  -0.091766  -0.122275  0  1.352389  0
F  F123  1  0.80012471  0.03753129  0.61539446  1  -0.618667  0  -0.091115  -0.121375  0  1.353159  0
F  F124  1  0.99277678  0.45508707  0.10499982  1  -0.627395  0  -0.10386  -0.141896  0  1.333082  0
F  F125  1  0.00579952  0.54533155  0.89631058  1  -0.627143  0  -0.101271  -0.139113  0  1.333627  0
F  F126  1  0.50427173  0.04260885  0.39584860  1  -0.630621  0  -0.101535  -0.139143  0  1.334368  0
F  F127  1  0.49826980  0.95734600  0.60545900  1  -0.632443  0  -0.102245  -0.139939  0  1.333565  0
F  F128  1  0.32423362  0.57410522  0.47990341  1  -0.61183  0  -0.077919  -0.093452  0  1.381033  0
F  F129  1  0.67096417  0.42987824  0.52106472  1  -0.612525  0  -0.079878  -0.095818  0  1.380784  0
F  F130  1  0.82360120  0.92852693  0.01839632  1  -0.611894  0  -0.080152  -0.096391  0  1.380702  0
F  F131  1  0.17268498  0.07126460  0.97818128  1  -0.606165  0  -0.078217  -0.09464  0  1.379282  0
F  F132  1  0.32797662  0.48714312  0.56460441  1  -0.605681  0  -0.077433  -0.092283  0  1.380606  0
F  F133  1  0.66745325  0.51664733  0.43621834  1  -0.609796  0  -0.079039  -0.094364  0  1.379154  0
F  F134  1  0.82390349  0.01527350  0.93340149  1  -0.608551  0  -0.076609  -0.091426  0  1.380342  0
F  F135  1  0.17288848  0.98481729  0.06324803  1  -0.60623  0  -0.076598  -0.091133  0  1.378394  0
