# generated using pymatgen
data_ZnH3C10S2N3O10
_symmetry_space_group_name_H-M   'P 1'
_cell_length_a   8.93226976
_cell_length_b   9.90448496
_cell_length_c   10.87444557
_cell_angle_alpha   74.45911190
_cell_angle_beta   88.94727377
_cell_angle_gamma   78.69296457
_symmetry_Int_Tables_number   1
_chemical_formula_structural   ZnH3C10S2N3O10
_chemical_formula_sum   'Zn2 H6 C20 S4 N6 O20'
_cell_volume   908.29924568
_cell_formula_units_Z   2
loop_
 _symmetry_equiv_pos_site_id
 _symmetry_equiv_pos_as_xyz
  1  'x, y, z'
loop_
 _atom_site_type_symbol
 _atom_site_label
 _atom_site_symmetry_multiplicity
 _atom_site_fract_x
 _atom_site_fract_y
 _atom_site_fract_z
 _atom_site_occupancy
 _atom_site_pbe_bader_charge
 _atom_site_pbe_bader_spin_density
 _atom_site_pbe_cm5_charge
 _atom_site_pbe_ddec_charge
 _atom_site_pbe_ddec_spin_density
 _atom_site_pbe_ddec_sum_bond_order
 _atom_site_pbe_magmom
Zn  Zn0  1  0.46901777  0.66671599  0.45790670  1  1.332075  0  0.704488  0.908349  0  2.224333  0
Zn  Zn1  1  0.53608636  0.33676280  0.54109270  1  1.332993  0  0.706961  0.907189  0  2.261503  0
H  H2  1  0.39648956  0.30471570  0.94594721  1  0.16426  0  0.125706  0.142482  0  0.986397  0
H  H3  1  0.60130630  0.69299405  0.05607761  1  0.166663  0  0.126816  0.144245  0  0.980554  0
H  H4  1  0.81931295  0.36840992  0.80397566  1  0.650802  0  0.355727  0.412912  0  0.823476  0
H  H5  1  0.17293034  0.62809113  0.19424864  1  0.636504  0  0.360298  0.417282  0  0.816409  0
H  H6  1  0.23203122  0.69024059  0.63483076  1  0.676038  0  0.328117  0.392179  0  0.906026  0
H  H7  1  0.82908239  0.30566934  0.36598771  1  0.667994  0  0.333532  0.403641  0  0.888693  0
C  C8  1  0.51807842  0.51294169  0.26294095  1  1.585024  0  0.221536  0.598265  0  4.178874  0
C  C9  1  0.48291289  0.48238579  0.73971526  1  1.59836  0  0.22634  0.608494  0  4.154085  0
C  C10  1  0.78235179  0.50874987  0.53064190  1  1.649587  0  0.215992  0.601951  0  4.247341  0
C  C11  1  0.21912606  0.50278332  0.47161712  1  1.6508  0  0.217504  0.610697  0  4.231357  0
C  C12  1  0.95186006  0.49339435  0.54989773  1  -0.011671  0  0.005125  -0.161369  0  3.817986  0
C  C13  1  0.04951199  0.51604747  0.45520455  1  -0.159055  0  0.001992  -0.172732  0  3.827055  0
C  C14  1  0.44648190  0.39554374  0.09747976  1  0.131108  0  0.026879  0.066616  0  4.017023  0
C  C15  1  0.55006958  0.60305438  0.90423707  1  0.075782  0  0.02578  0.065248  0  4.021606  0
C  C16  1  0.44058882  0.38976293  0.97036823  1  0.025806  0  -0.047184  -0.088919  0  3.844648  0
C  C17  1  0.55644016  0.60845819  0.03145788  1  0.066715  0  -0.047091  -0.08755  0  3.844075  0
C  C18  1  0.49120671  0.49298407  0.87387741  1  0.006539  0  0.00819  -0.040512  0  3.901846  0
C  C19  1  0.50595866  0.50529170  0.12804147  1  -0.017044  0  0.007092  -0.040938  0  3.901754  0
C  C20  1  0.44785928  0.05237222  0.60136713  1  0.614282  0  0.169896  0.191364  0  3.981719  0
C  C21  1  0.55286587  0.95499957  0.40194883  1  0.620783  0  0.170932  0.193724  0  3.980403  0
C  C22  1  0.38869020  0.94401154  0.56801627  1  0.521003  0  0.154621  0.031285  0  3.819486  0
C  C23  1  0.61324609  0.06259765  0.43589285  1  0.542805  0  0.159853  0.041793  0  3.797914  0
C  C24  1  0.38730087  0.29057881  0.19180409  1  0.886919  0  0.189295  0.267168  0  3.989905  0
C  C25  1  0.60919785  0.70755354  0.80945101  1  0.849863  0  0.189666  0.262712  0  3.987236  0
C  C26  1  0.40461637  0.09181902  0.71587904  1  0.898284  0  0.193812  0.192187  0  3.953393  0
C  C27  1  0.59334937  0.91790516  0.28596721  1  0.905681  0  0.190368  0.185402  0  3.954157  0
S  S28  1  0.02153629  0.41702436  0.71316059  1  3.072268  0  0.556118  1.17796  0  5.943765  0
S  S29  1  0.97562973  0.57898715  0.29286223  1  3.081664  0  0.560556  1.179702  0  5.927399  0
S  S30  1  0.21963355  0.89798598  0.65396827  1  3.21716  0  0.555649  1.113832  0  6.062231  0
S  S31  1  0.78480759  0.10494203  0.35114369  1  3.221753  0  0.559909  1.117056  0  6.046587  0
N  N32  1  0.44468448  0.89245205  0.47115633  1  -1.151234  0  -0.256335  -0.199474  0  3.36578  0
N  N33  1  0.55683275  0.11413469  0.53253336  1  -1.157509  0  -0.260487  -0.197323  0  3.377916  0
N  N34  1  0.33425132  0.20378189  0.26391194  1  -1.137484  0  -0.305465  -0.351691  0  2.744182  0
N  N35  1  0.66093130  0.79375263  0.73545431  1  -1.124444  0  -0.30285  -0.345711  0  2.750364  0
N  N36  1  0.38218530  0.11575387  0.81467886  1  -0.977385  0  -0.228641  -0.210811  0  2.678064  0
N  N37  1  0.61208793  0.89716091  0.18558786  1  -0.967846  0  -0.226501  -0.205812  0  2.668571  0
O  O38  1  0.50187975  0.63647851  0.28020453  1  -1.141701  0  -0.297409  -0.523829  0  2.360241  0
O  O39  1  0.52141769  0.35877156  0.72359855  1  -1.136049  0  -0.286808  -0.508775  0  2.344216  0
O  O40  1  0.54335503  0.39373767  0.34816274  1  -1.170379  0  -0.310804  -0.576993  0  2.461351  0
O  O41  1  0.43835808  0.59916702  0.65258364  1  -1.194576  0  -0.314157  -0.603586  0  2.450415  0
O  O42  1  0.70139306  0.63269134  0.49089749  1  -1.139996  0  -0.290287  -0.50759  0  2.337219  0
O  O43  1  0.29916110  0.38109677  0.52276255  1  -1.148781  0  -0.291135  -0.515676  0  2.341314  0
O  O44  1  0.74150044  0.38927960  0.55970417  1  -1.151247  0  -0.301433  -0.531489  0  2.417878  0
O  O45  1  0.26096762  0.62142095  0.42904729  1  -1.149903  0  -0.303267  -0.531676  0  2.369282  0
O  O46  1  0.06497129  0.26520769  0.73684282  1  -1.2121  0  -0.273648  -0.479686  0  2.192678  0
O  O47  1  0.12257313  0.50247108  0.74064495  1  -1.286322  0  -0.290811  -0.498277  0  2.163696  0
O  O48  1  0.86861446  0.45167637  0.78881943  1  -1.201598  0  -0.344533  -0.520887  0  2.176739  0
O  O49  1  0.87958947  0.48268523  0.27699507  1  -1.295483  0  -0.289628  -0.511548  0  2.179743  0
O  O50  1  0.92179163  0.73030077  0.25759906  1  -1.226557  0  -0.26875  -0.473246  0  2.191619  0
O  O51  1  0.12605755  0.54309785  0.21542692  1  -1.182002  0  -0.339775  -0.515614  0  2.183188  0
O  O52  1  0.26549835  0.83386147  0.78586553  1  -1.277382  0  -0.289663  -0.499863  0  2.178835  0
O  O53  1  0.10881001  0.02768067  0.61267291  1  -1.24103  0  -0.266746  -0.437148  0  2.166266  0
O  O54  1  0.17211189  0.78712634  0.59169045  1  -1.238171  0  -0.329729  -0.475058  0  2.318441  0
O  O55  1  0.88657231  0.96887904  0.38861939  1  -1.243632  0  -0.267505  -0.441882  0  2.15325  0
O  O56  1  0.74292754  0.17716509  0.21978140  1  -1.276584  0  -0.290414  -0.498967  0  2.173043  0
O  O57  1  0.84066055  0.20580765  0.42095737  1  -1.232351  0  -0.327689  -0.479102  0  2.328979  0
