# generated using pymatgen
data_Er2CuH18C22(NO9)2
_symmetry_space_group_name_H-M   'P 1'
_cell_length_a   6.60376456
_cell_length_b   7.96715473
_cell_length_c   13.06709164
_cell_angle_alpha   100.96917854
_cell_angle_beta   92.29832625
_cell_angle_gamma   102.40594880
_symmetry_Int_Tables_number   1
_chemical_formula_structural   Er2CuH18C22(NO9)2
_chemical_formula_sum   'Er2 Cu1 H18 C22 N2 O18'
_cell_volume   656.82552770
_cell_formula_units_Z   1
loop_
 _symmetry_equiv_pos_site_id
 _symmetry_equiv_pos_as_xyz
  1  'x, y, z'
loop_
 _atom_site_type_symbol
 _atom_site_label
 _atom_site_symmetry_multiplicity
 _atom_site_fract_x
 _atom_site_fract_y
 _atom_site_fract_z
 _atom_site_occupancy
 _atom_site_hle17_ddec_charge
 _atom_site_hle17_ddec_spin_density
 _atom_site_hle17_ddec_sum_bond_order
 _atom_site_hle17_magmom
 _atom_site_hse06_10hf_ddec_charge
 _atom_site_hse06_10hf_ddec_spin_density
 _atom_site_hse06_10hf_ddec_sum_bond_order
 _atom_site_hse06_10hf_magmom
 _atom_site_hse06_ddec_charge
 _atom_site_hse06_ddec_spin_density
 _atom_site_hse06_ddec_sum_bond_order
 _atom_site_hse06_magmom
 _atom_site_pbe_cm5_charge
 _atom_site_pbe_ddec_charge
 _atom_site_pbe_ddec_spin_density
 _atom_site_pbe_ddec_sum_bond_order
 _atom_site_pbe_magmom
Er  Er0  1  0.43959965  0.57093992  0.14742012  1  2.25143  0.000819  1.680313  0.001  2.11337  0.000799  2.153743  0.001  2.242202  0.000479  1.963978  0.001  1.537962  2.076048  0.001148  2.185916  0.002
Er  Er1  1  0.56039584  0.42906134  0.85257910  1  2.251395  0.000818  1.680409  0.001  2.113305  0.000802  2.15389  0.001  2.242167  0.000481  1.964079  0.001  1.537941  2.075986  0.001148  2.186061  0.002
Cu  Cu2  1  0.00000105  0.99999648  0.49999860  1  0.849565  0.702293  1.870592  0.523  0.81066  0.779202  2.27882  0.628  0.898698  0.839863  2.207391  0.706  0.767474  0.755597  0.735826  2.328873  0.575
H  H3  1  0.84388472  0.70316378  0.07541647  1  0.456045  -0.0  0.831229  0.0  0.425501  1e-06  0.893644  0.0  0.437314  1e-06  0.876424  0.0  0.30817  0.417236  1e-06  0.905868  0.0
H  H4  1  0.15611162  0.29683478  0.92458471  1  0.456052  -1e-06  0.831222  0.0  0.425506  1e-06  0.893649  0.0  0.437319  0.0  0.876423  0.0  0.308148  0.417255  1e-06  0.905858  0.0
H  H5  1  0.90295746  0.77273191  0.20003689  1  0.448812  5.8e-05  0.840032  0.0  0.418623  4.4e-05  0.90162  0.0  0.431285  4.1e-05  0.883066  0.0  0.300377  0.409997  5.1e-05  0.914298  0.0
H  H6  1  0.09704038  0.22726671  0.79996280  1  0.448808  5.8e-05  0.840035  0.0  0.418618  4.4e-05  0.901625  0.0  0.431278  4e-05  0.883077  0.0  0.300361  0.409996  5.1e-05  0.914298  0.0
H  H7  1  0.32777957  0.25306833  0.33014408  1  0.123136  0.000104  0.930393  0.0  0.131663  -8.3e-05  0.989836  0.0  0.135173  -8.7e-05  0.986879  0.0  0.121309  0.129056  -6.9e-05  0.992078  0.0
H  H8  1  0.67223207  0.74694197  0.66986418  1  0.12306  0.000104  0.930313  0.0  0.131636  -8.3e-05  0.989711  0.0  0.13514  -8.8e-05  0.986765  0.0  0.121246  0.129028  -6.9e-05  0.991944  0.0
H  H9  1  0.62641746  0.47088805  0.43598304  1  0.125179  0.000746  0.954864  0.001  0.133427  0.000664  1.014161  0.001  0.137838  0.000487  1.011562  0.0  0.117792  0.130283  0.000813  1.016057  0.001
H  H10  1  0.37360003  0.52911576  0.56402297  1  0.125169  0.000747  0.95498  0.001  0.133405  0.000664  1.014283  0.001  0.137809  0.000488  1.011687  0.0  0.11779  0.130264  0.000813  1.016179  0.001
H  H11  1  0.91662279  0.35952480  0.51385551  1  0.102638  0.000993  0.922843  0.002  0.11188  0.000829  0.980655  0.002  0.114657  0.00061  0.977739  0.001  0.130903  0.109674  0.001002  0.982963  0.002
H  H12  1  0.08339272  0.64046602  0.48614423  1  0.10267  0.000993  0.922779  0.002  0.111904  0.000829  0.980603  0.002  0.11468  0.00061  0.977685  0.001  0.130914  0.109696  0.001003  0.982917  0.002
H  H13  1  0.78700162  0.12274584  0.98479858  1  0.117177  -6e-06  0.934312  0.0  0.128797  -2e-06  0.996027  0.0  0.132176  -4e-06  0.993673  0.0  0.103773  0.126473  -1e-06  0.997439  0.0
H  H14  1  0.21299386  0.87725541  0.01520064  1  0.117137  -4e-06  0.934329  0.0  0.128788  -2e-06  0.995993  0.0  0.132168  -4e-06  0.993636  0.0  0.103779  0.126463  -1e-06  0.997409  0.0
H  H15  1  0.62427695  0.01059989  0.06784881  1  0.120408  -0.0  0.926301  0.0  0.134409  1e-06  0.987907  0.0  0.136738  -3e-06  0.987118  0.0  0.113378  0.132791  0.0  0.988435  0.0
H  H16  1  0.37571549  0.98940136  0.93214960  1  0.120423  2e-06  0.926278  0.0  0.134423  1e-06  0.987875  0.0  0.136752  -2e-06  0.987086  0.0  0.113376  0.132805  0.0  0.988403  0.0
H  H17  1  0.85924697  0.17088467  0.22547569  1  0.115177  -2.3e-05  0.927279  0.0  0.127918  -1.1e-05  0.986518  0.0  0.129889  -9e-06  0.986428  0.0  0.104141  0.126729  -1.3e-05  0.986119  0.0
H  H18  1  0.14074343  0.82912057  0.77452090  1  0.115208  -2.3e-05  0.927251  0.0  0.127948  -1e-05  0.986484  0.0  0.12992  -9e-06  0.986398  0.0  0.104161  0.126764  -1.3e-05  0.986086  0.0
H  H19  1  0.98775017  0.04784979  0.13339913  1  0.113938  1.5e-05  0.924799  0.0  0.131297  1.2e-05  0.978744  0.0  0.133478  1.1e-05  0.977727  0.0  0.10852  0.129847  1e-05  0.97918  0.0
H  H20  1  0.01224145  0.95215406  0.86660036  1  0.113912  1.4e-05  0.92484  0.0  0.131305  1.2e-05  0.978756  0.0  0.133488  1.1e-05  0.977738  0.0  0.108515  0.129851  1e-05  0.979187  0.0
C  C21  1  0.62806971  0.98034192  0.38586888  1  0.057184  -0.007134  3.709383  -0.004  0.052786  -0.001751  3.95515  -0.001  0.055947  -0.003127  3.976137  -0.002  0.111077  0.05069  -0.000779  3.94135  0.0
C  C22  1  0.37193537  0.01965543  0.61413076  1  0.057112  -0.007141  3.709706  -0.004  0.052702  -0.001751  3.955461  -0.001  0.055866  -0.003126  3.976447  -0.002  0.111077  0.050601  -0.000779  3.941662  0.0
C  C23  1  0.45868990  0.02978910  0.34148451  1  -0.088474  0.004331  3.651494  0.004  -0.075786  0.001519  3.892471  0.002  -0.084533  0.001582  3.911641  0.002  0.009632  -0.070515  0.00153  3.879943  0.001
C  C24  1  0.54131658  0.97021345  0.65851734  1  -0.08861  0.004328  3.651694  0.004  -0.075869  0.001521  3.892673  0.002  -0.084619  0.001581  3.911845  0.002  0.00955  -0.070599  0.00153  3.880142  0.001
C  C25  1  0.45713757  0.20907119  0.36251511  1  0.025142  -0.01163  3.613179  -0.007  -0.006082  -0.004447  3.870599  -0.002  0.001265  -0.005018  3.881296  -0.003  -0.043242  -0.010954  -0.004007  3.863479  -0.002
C  C26  1  0.54287383  0.79093265  0.63748850  1  0.025196  -0.011607  3.612959  -0.007  -0.006043  -0.004452  3.870359  -0.002  0.001306  -0.00501  3.881048  -0.003  -0.043215  -0.010903  -0.004006  3.863233  -0.002
C  C27  1  0.62195916  0.33112596  0.42265548  1  -0.065315  0.009066  3.634857  0.01  -0.0812  0.003839  3.888614  0.005  -0.085217  0.003529  3.90146  0.004  -0.059783  -0.078701  0.004126  3.879868  0.005
C  C28  1  0.37805763  0.66887527  0.57734865  1  -0.065259  0.009056  3.63479  0.01  -0.081163  0.003842  3.888612  0.005  -0.085169  0.003524  3.901445  0.004  -0.059682  -0.078668  0.004126  3.879867  0.005
C  C29  1  0.78452996  0.27236593  0.46427156  1  0.149276  -0.00994  3.641068  -0.007  0.117314  -0.002589  3.89964  -0.002  0.12769  -0.004187  3.914726  -0.003  0.06471  0.110693  -0.001391  3.889624  -0.001
C  C30  1  0.21548271  0.72763145  0.53572819  1  0.149428  -0.009943  3.641244  -0.007  0.117461  -0.00259  3.899829  -0.002  0.12784  -0.004182  3.914911  -0.003  0.064725  0.110835  -0.001391  3.889815  -0.001
C  C31  1  0.65407167  0.79567299  0.38082878  1  0.652004  -0.005275  3.877101  -0.005  0.605302  -0.000215  4.174827  0.0  0.642024  -0.000671  4.170348  0.0  0.228923  0.580283  0.000143  4.179184  0.0
C  C32  1  0.34593002  0.20432305  0.61916987  1  0.652191  -0.005275  3.876912  -0.005  0.605483  -0.000218  4.17465  0.0  0.642208  -0.000668  4.170162  0.0  0.228985  0.580466  0.000142  4.17901  0.0
C  C33  1  0.27814539  0.90559816  0.27143873  1  0.709299  0.000801  3.880494  0.001  0.659386  0.000637  4.180746  0.001  0.695409  0.00044  4.17287  0.001  0.230181  0.635021  0.00085  4.187427  0.001
C  C34  1  0.72185792  0.09440960  0.72856449  1  0.709494  0.000802  3.880287  0.001  0.65946  0.000636  4.180711  0.001  0.695484  0.000442  4.172836  0.001  0.230214  0.6351  0.000849  4.187388  0.001
C  C35  1  0.62224353  0.28050044  0.08585773  1  0.751602  -1.3e-05  3.793167  0.0  0.710982  -2e-06  4.083358  0.0  0.745201  -5e-06  4.081636  0.0  0.222219  0.687653  -1e-06  4.089436  0.0
C  C36  1  0.37775279  0.71949819  0.91414117  1  0.751898  -4e-06  3.792826  0.0  0.711156  -3e-06  4.083181  0.0  0.745375  -3e-06  4.081456  0.0  0.222227  0.687825  -1e-06  4.089266  0.0
C  C37  1  0.73530997  0.13345136  0.06396469  1  -0.240243  1.7e-05  3.633064  0.0  -0.280559  -1e-05  3.880515  0.0  -0.284982  1.5e-05  3.884315  0.0  -0.156498  -0.27687  4e-06  3.876196  0.0
C  C38  1  0.26468178  0.86654727  0.93603337  1  -0.240303  5e-06  3.633006  0.0  -0.280569  -6e-06  3.880438  0.0  -0.284993  1.3e-05  3.884237  0.0  -0.156517  -0.276883  4e-06  3.876126  0.0
C  C39  1  0.91514862  0.16133897  0.14725222  1  -0.225499  9e-06  3.657671  0.0  -0.261835  -4e-06  3.90434  0.0  -0.265401  9e-06  3.909531  0.0  -0.157451  -0.258617  8e-06  3.899117  0.0
C  C40  1  0.08484234  0.83866221  0.85274845  1  -0.225573  1.6e-05  3.657698  0.0  -0.261946  -6e-06  3.904445  0.0  -0.265516  1e-05  3.909636  0.0  -0.157504  -0.258723  8e-06  3.899219  0.0
C  C41  1  0.08310659  0.32260812  0.14722243  1  0.70066  -1.1e-05  3.846884  0.0  0.656747  -1e-06  4.146597  0.0  0.688029  -1e-06  4.148423  0.0  0.198164  0.634603  -0.0  4.150735  0.0
C  C42  1  0.91688702  0.67739183  0.85277583  1  0.700718  -1.4e-05  3.846791  0.0  0.656756  -1e-06  4.146595  0.0  0.688039  -1e-06  4.148424  0.0  0.198162  0.63461  -0.0  4.150736  0.0
N  N43  1  0.78429950  0.10128391  0.44619077  1  -0.313844  0.073124  3.400132  0.095  -0.273557  0.049362  3.705565  0.068  -0.303144  0.040733  3.727078  0.06  -0.356107  -0.255543  0.054241  3.692809  0.071
N  N44  1  0.21570980  0.89871212  0.55380953  1  -0.314019  0.073125  3.400629  0.095  -0.273694  0.049359  3.706039  0.068  -0.303286  0.040727  3.727559  0.06  -0.356154  -0.255669  0.054239  3.693273  0.071
O  O45  1  0.78655175  0.71461350  0.14488196  1  -0.941792  2.2e-05  1.832202  0.0  -0.892726  4e-06  2.027993  0.0  -0.923743  2e-06  1.98544  0.0  -0.643696  -0.878726  1.8e-05  2.05253  0.0
O  O46  1  0.21344777  0.28537984  0.85511862  1  -0.941779  2.3e-05  1.832179  0.0  -0.892707  4e-06  2.027943  0.0  -0.92372  2e-06  1.985396  0.0  -0.643664  -0.878724  1.8e-05  2.052432  0.0
O  O47  1  0.80021798  0.77729435  0.44228017  1  -0.5581  0.081889  2.059987  0.114  -0.52986  0.056219  2.33856  0.085  -0.570396  0.04325  2.329551  0.07  -0.304744  -0.502601  0.064804  2.344509  0.093
O  O48  1  0.19977963  0.22269776  0.55771716  1  -0.558133  0.081897  2.059837  0.114  -0.529931  0.056224  2.338479  0.085  -0.570468  0.043252  2.329462  0.07  -0.304781  -0.502675  0.064808  2.34443  0.093
O  O49  1  0.53384259  0.66732337  0.32127363  1  -0.681174  0.009945  2.083638  0.014  -0.63176  0.005867  2.335994  0.008  -0.670256  0.002928  2.324465  0.005  -0.382065  -0.612209  0.009072  2.341008  0.012
O  O50  1  0.46615525  0.33267525  0.67872606  1  -0.68123  0.009945  2.083669  0.014  -0.631821  0.00587  2.336058  0.008  -0.670318  0.002927  2.324519  0.005  -0.38208  -0.612271  0.009073  2.341076  0.012
O  O51  1  0.09742322  0.90762093  0.29734363  1  -0.608476  0.000183  1.951436  0.002  -0.567444  -0.000686  2.186697  0.0  -0.594798  -0.001062  2.175307  0.0  -0.289883  -0.547847  -0.00018  2.193538  0.001
O  O52  1  0.90257736  0.09238821  0.70265666  1  -0.608504  0.000182  1.951329  0.002  -0.567433  -0.000684  2.186647  0.0  -0.594784  -0.001067  2.175258  0.0  -0.289831  -0.547848  -0.00018  2.193509  0.001
O  O53  1  0.32022661  0.81539116  0.18607434  1  -0.774445  0.000842  2.048715  0.001  -0.72339  0.000501  2.311418  0.001  -0.762905  0.000293  2.294059  0.0  -0.42806  -0.704445  0.000757  2.319856  0.001
O  O54  1  0.67976995  0.18461394  0.81392845  1  -0.774488  0.000842  2.048772  0.001  -0.72338  0.000498  2.311505  0.001  -0.762902  0.000298  2.294148  0.0  -0.428066  -0.704433  0.000757  2.319942  0.001
O  O55  1  0.57415032  0.35704607  0.01283805  1  -0.844891  1.5e-05  2.143333  0.0  -0.787106  1.1e-05  2.412821  0.0  -0.83404  1e-06  2.400484  0.0  -0.44786  -0.767728  1.9e-05  2.419486  0.0
O  O56  1  0.42584820  0.64295520  0.98716122  1  -0.844972  1.4e-05  2.143208  0.0  -0.787174  1.1e-05  2.412808  0.0  -0.834109  -0.0  2.400472  0.0  -0.447872  -0.767795  1.9e-05  2.419475  0.0
O  O57  1  0.57517987  0.33193238  0.17763697  1  -0.687422  -0.000124  1.978669  0.0  -0.638589  -0.000106  2.215279  0.0  -0.673936  -0.000137  2.207227  0.0  -0.366184  -0.620145  -7.7e-05  2.218706  0.0
O  O58  1  0.42480259  0.66805963  0.82236088  1  -0.687513  -0.000124  1.978537  0.0  -0.638649  -0.000106  2.21524  0.0  -0.674  -0.000137  2.207188  0.0  -0.366108  -0.620207  -7.7e-05  2.21867  0.0
O  O59  1  0.17144304  0.41947221  0.23298314  1  -0.681816  -1.1e-05  1.926156  0.0  -0.639128  -2e-05  2.15937  0.0  -0.671508  -3.9e-05  2.149182  0.0  -0.379481  -0.622662  -2.3e-05  2.165324  0.0
O  O60  1  0.82855176  0.58052639  0.76701650  1  -0.68185  -9e-06  1.926229  0.0  -0.63914  -2.2e-05  2.15947  0.0  -0.671524  -3.6e-05  2.14928  0.0  -0.379491  -0.622672  -2.3e-05  2.165425  0.0
O  O61  1  0.14384351  0.36025264  0.05993655  1  -0.732418  3.5e-05  1.984563  0.0  -0.675713  1.5e-05  2.222008  0.0  -0.71081  2e-06  2.212112  0.0  -0.379936  -0.65732  2.9e-05  2.228338  0.0
O  O62  1  0.85615466  0.63974733  0.94006179  1  -0.732403  3.4e-05  1.984463  0.0  -0.675667  1.5e-05  2.221928  0.0  -0.710771  1e-06  2.212034  0.0  -0.379922  -0.657269  2.9e-05  2.228252  0.0
