# generated using pymatgen
data_SmH13C20S(N2O3)2
_symmetry_space_group_name_H-M   'P 1'
_cell_length_a   6.89880827
_cell_length_b   9.98008260
_cell_length_c   15.13330653
_cell_angle_alpha   84.70634886
_cell_angle_beta   79.36728370
_cell_angle_gamma   79.96193531
_symmetry_Int_Tables_number   1
_chemical_formula_structural   SmH13C20S(N2O3)2
_chemical_formula_sum   'Sm2 H26 C40 S2 N8 O12'
_cell_volume   1006.42629425
_cell_formula_units_Z   2
loop_
 _symmetry_equiv_pos_site_id
 _symmetry_equiv_pos_as_xyz
  1  'x, y, z'
loop_
 _atom_site_type_symbol
 _atom_site_label
 _atom_site_symmetry_multiplicity
 _atom_site_fract_x
 _atom_site_fract_y
 _atom_site_fract_z
 _atom_site_occupancy
 _atom_site_hle17_bader_spin_density
 _atom_site_hle17_ddec_charge
 _atom_site_hle17_ddec_spin_density
 _atom_site_hle17_ddec_sum_bond_order
 _atom_site_hle17_magmom
 _atom_site_hse06_10hf_bader_spin_density
 _atom_site_hse06_10hf_ddec_charge
 _atom_site_hse06_10hf_ddec_spin_density
 _atom_site_hse06_10hf_ddec_sum_bond_order
 _atom_site_hse06_10hf_magmom
 _atom_site_hse06_bader_spin_density
 _atom_site_hse06_ddec_charge
 _atom_site_hse06_ddec_spin_density
 _atom_site_hse06_ddec_sum_bond_order
 _atom_site_hse06_magmom
 _atom_site_pbe_bader_spin_density
 _atom_site_pbe_cm5_charge
 _atom_site_pbe_ddec_charge
 _atom_site_pbe_ddec_spin_density
 _atom_site_pbe_ddec_sum_bond_order
 _atom_site_pbe_magmom
Sm  Sm0  1  0.43466140  0.04791301  0.11532308  1  0  2.267252  0  1.721238  0  0  2.104436  0  2.198392  0  0  2.150161  0  2.15167  0  0  1.485593  2.070182  0  2.234142  0
Sm  Sm1  1  0.56533602  0.95208989  0.88467543  1  0  2.267226  0  1.721301  0  0  2.104393  0  2.198468  0  0  2.150122  0  2.151741  0  0  1.485582  2.070134  0  2.234228  0
H  H2  1  0.18317774  0.60387707  0.71151183  1  0  0.110686  0  0.941118  0  0  0.120246  0  0.998904  0  0  0.12385  0  0.997182  0  0  0.108124  0.117545  0  1.000315  0
H  H3  1  0.81681677  0.39612581  0.28848827  1  0  0.110657  0  0.941112  0  0  0.120201  0  0.998929  0  0  0.123804  0  0.997207  0  0  0.108114  0.1175  0  1.000339  0
H  H4  1  0.27126146  0.36320711  0.77211439  1  0  0.093404  0  0.97011  0  0  0.102015  0  1.035106  0  0  0.105377  0  1.032992  0  0  0.103018  0.099394  0  1.037063  0
H  H5  1  0.72873748  0.63679584  0.22788597  1  0  0.093358  0  0.970162  0  0  0.102012  0  1.035118  0  0  0.105376  0  1.033001  0  0  0.103017  0.099391  0  1.037075  0
H  H6  1  0.27164670  0.50554386  0.03103902  1  0  0.095289  0  0.96408  0  0  0.107296  0  1.022856  0  0  0.110151  0  1.021705  0  0  0.105548  0.105235  0  1.023798  0
H  H7  1  0.72836110  0.49445925  0.96896252  1  0  0.095319  0  0.964074  0  0  0.107307  0  1.022867  0  0  0.11016  0  1.021721  0  0  0.105533  0.105249  0  1.023806  0
H  H8  1  0.19360422  0.74608001  0.97127098  1  0  0.120983  0  0.946077  0  0  0.129956  0  1.004868  0  0  0.134305  0  1.001567  0  0  0.116465  0.126481  0  1.007694  0
H  H9  1  0.80639910  0.25392298  0.02872766  1  0  0.120973  0  0.946068  0  0  0.129943  0  1.00487  0  0  0.134293  0  1.001566  0  0  0.116461  0.126463  0  1.007705  0
H  H10  1  0.42075237  0.76006574  0.25349455  1  0  0.071736  0  0.979125  0  0  0.076657  0  1.051465  0  0  0.079758  0  1.04819  0  0  0.116108  0.07456  0  1.053564  0
H  H11  1  0.57925045  0.23993310  0.74649912  1  0  0.071646  0  0.979137  0  0  0.076594  0  1.051448  0  0  0.079674  0  1.048194  0  0  0.116062  0.074498  0  1.053546  0
H  H12  1  0.37167822  0.66397117  0.41379228  1  0  0.104671  0  0.942295  0  0  0.119949  0  0.992633  0  0  0.122586  0  0.992398  0  0  0.111504  0.118207  0  0.992612  0
H  H13  1  0.62832369  0.33602562  0.58620294  1  0  0.10465  0  0.942194  0  0  0.119945  0  0.992526  0  0  0.122582  0  0.992292  0  0  0.111471  0.118202  0  0.992505  0
H  H14  1  0.27404428  0.82587246  0.53787654  1  0  0.115041  0  0.930702  0  0  0.127989  0  0.986626  0  0  0.131267  0  0.984173  0  0  0.114366  0.12557  0  0.988416  0
H  H15  1  0.72595261  0.17412122  0.46212131  1  0  0.115029  0  0.93069  0  0  0.127966  0  0.986624  0  0  0.131244  0  0.984172  0  0  0.114356  0.125543  0  0.988422  0
H  H16  1  0.09997187  0.24647849  0.69872113  1  0  0.081422  0  0.928632  0  0  0.09569  0  0.9835  0  0  0.097518  0  0.981527  0  0  0.135268  0.094032  0  0.98549  0
H  H17  1  0.90002797  0.75351523  0.30127712  1  0  0.081461  0  0.928468  0  0  0.095702  0  0.983382  0  0  0.097531  0  0.981409  0  0  0.135252  0.094044  0  0.985375  0
H  H18  1  0.15505383  0.51005440  0.41159507  1  0  0.105837  0  0.969251  0  0  0.109646  0  1.041412  0  0  0.113808  0  1.037229  0  0  0.10591  0.1066  0  1.044333  0
H  H19  1  0.84494264  0.48994139  0.58840863  1  0  0.105861  0  0.969216  0  0  0.109642  0  1.041411  0  0  0.113804  0  1.037229  0  0  0.105912  0.1066  0  1.044331  0
H  H20  1  0.22705738  0.57614893  0.24495349  1  0  0.096428  0  0.946102  0  0  0.109575  0  1.000627  0  0  0.112199  0  1.000786  0  0  0.106912  0.107701  0  1.000605  0
H  H21  1  0.77293012  0.42385287  0.75505060  1  0  0.096414  0  0.946185  0  0  0.109536  0  1.00073  0  0  0.11216  0  1.00089  0  0  0.106907  0.107663  0  1.000707  0
H  H22  1  0.33246319  0.38981942  0.13728704  1  0  0.071704  0  0.983697  0  0  0.077109  0  1.055204  0  0  0.080172  0  1.052092  0  0  0.114889  0.074801  0  1.057598  0
H  H23  1  0.66751958  0.61018331  0.86271477  1  0  0.071769  0  0.983778  0  0  0.077147  0  1.055307  0  0  0.080212  0  1.052195  0  0  0.114908  0.074841  0  1.057698  0
H  H24  1  0.17123815  0.00751302  0.64083384  1  0  0.315321  0  0.930823  0  0  0.295683  0  0.991586  0  0  0.304221  0  0.984683  0  0  0.310939  0.289651  0  0.996438  0
H  H25  1  0.82876359  0.99248485  0.35916595  1  0  0.315337  0  0.930766  0  0  0.295577  0  0.99165  0  0  0.30411  0  0.98476  0  0  0.310936  0.289555  0  0.996504  0
H  H26  1  0.18118291  0.99147877  0.00378830  1  0  0.419679  0  0.865709  0  0  0.405269  0  0.901992  0  0  0.413859  0  0.889349  0  0  0.297569  0.399091  0  0.911143  0
H  H27  1  0.81881510  0.00852213  0.99621228  1  0  0.419691  0  0.865695  0  0  0.40528  0  0.901982  0  0  0.413869  0  0.889339  0  0  0.297563  0.399101  0  0.911133  0
C  C28  1  0.18218191  0.68765228  0.83808037  1  0  -0.115016  0  3.733175  0  0  -0.091524  0  3.983072  0  0  -0.097287  0  4.004358  0  0  -0.008706  -0.087425  0  3.96859  0
C  C29  1  0.81782226  0.31234768  0.16192038  1  0  -0.115045  0  3.733321  0  0  -0.091585  0  3.983265  0  0  -0.097348  0  4.004549  0  0  -0.008702  -0.087485  0  3.968784  0
C  C30  1  0.20301729  0.58149514  0.78136830  1  0  -0.068523  0  3.761575  0  0  -0.092853  0  4.012418  0  0  -0.093422  0  4.03326  0  0  -0.083993  -0.092496  0  3.998518  0
C  C31  1  0.79698068  0.41850574  0.21863096  1  0  -0.068569  0  3.761602  0  0  -0.092884  0  4.012474  0  0  -0.093454  0  4.033318  0  0  -0.084061  -0.092528  0  3.998574  0
C  C32  1  0.25171702  0.44766312  0.81529732  1  0  -0.074419  0  3.738353  0  0  -0.096171  0  3.986534  0  0  -0.097817  0  4.00736  0  0  -0.084266  -0.09487  0  3.972675  0
C  C33  1  0.74828896  0.55234093  0.18470101  1  0  -0.07433  0  3.738334  0  0  -0.096115  0  3.986506  0  0  -0.097762  0  4.007335  0  0  -0.084226  -0.094813  0  3.972646  0
C  C34  1  0.27829595  0.41931326  0.90509836  1  0  -0.062004  0  3.727934  0  0  -0.039591  0  3.956419  0  0  -0.045586  0  3.978697  0  0  -0.012385  -0.035562  0  3.941304  0
C  C35  1  0.72170912  0.58068875  0.09490086  1  0  -0.06191  0  3.72798  0  0  -0.039521  0  3.956464  0  0  -0.045513  0  3.978743  0  0  -0.012348  -0.035489  0  3.941346  0
C  C36  1  0.25261295  0.52761798  0.96115072  1  0  -0.055915  0  3.715933  0  0  -0.079321  0  3.966973  0  0  -0.080982  0  3.988285  0  0  -0.075614  -0.078207  0  3.952475  0
C  C37  1  0.74738920  0.47238399  0.03884941  1  0  -0.05599  0  3.715925  0  0  -0.07937  0  3.96696  0  0  -0.081035  0  3.988271  0  0  -0.075601  -0.078256  0  3.952459  0
C  C38  1  0.20578521  0.66193152  0.92825787  1  0  -0.060061  0  3.711732  0  0  -0.085961  0  3.967543  0  0  -0.085971  0  3.985743  0  0  -0.071838  -0.085559  0  3.955205  0
C  C39  1  0.79421720  0.33806943  0.07174231  1  0  -0.059964  0  3.711686  0  0  -0.085856  0  3.967499  0  0  -0.085863  0  3.985694  0  0  -0.071797  -0.085454  0  3.955168  0
C  C40  1  0.33912902  0.27451543  0.94004252  1  0  0.702772  0  3.8604  0  0  0.658562  0  4.147148  0  0  0.693554  0  4.136269  0  0  0.232517  0.634572  0  4.154038  0
C  C41  1  0.66087574  0.72548757  0.05995467  1  0  0.702446  0  3.860734  0  0  0.658289  0  4.147419  0  0  0.693279  0  4.136542  0  0  0.232369  0.634296  0  4.154303  0
C  C42  1  0.37767942  0.82701479  0.30929303  1  0  0.126576  0  3.739812  0  0  0.094377  0  4.007583  0  0  0.101408  0  4.022784  0  0  0.050063  0.0899  0  3.996466  0
C  C43  1  0.62232168  0.17298506  0.69070205  1  0  0.126617  0  3.740019  0  0  0.09441  0  4.007775  0  0  0.101459  0  4.022985  0  0  0.050112  0.089932  0  3.996656  0
C  C44  1  0.35013674  0.77388959  0.39909807  1  0  -0.106842  0  3.740855  0  0  -0.12087  0  3.997974  0  0  -0.126436  0  4.018645  0  0  -0.082832  -0.117448  0  3.983631  0
C  C45  1  0.64986910  0.22610933  0.60089930  1  0  -0.1068  0  3.740913  0  0  -0.120855  0  3.998053  0  0  -0.12642  0  4.018716  0  0  -0.082808  -0.117432  0  3.983709  0
C  C46  1  0.29795351  0.86316276  0.46726733  1  0  -0.032399  0  3.66776  0  0  -0.0633  0  3.926238  0  0  -0.059653  0  3.941445  0  0  -0.065635  -0.065066  0  3.915799  0
C  C47  1  0.70204767  0.13683714  0.53273171  1  0  -0.03247  0  3.667705  0  0  -0.063352  0  3.926193  0  0  -0.059704  0  3.941399  0  0  -0.065654  -0.065119  0  3.915751  0
C  C48  1  0.27550541  0.00457168  0.44420803  1  0  -0.026004  0  3.77729  0  0  -0.015429  0  4.020983  0  0  -0.017656  0  4.042441  0  0  0.000231  -0.014511  0  4.006865  0
C  C49  1  0.72450043  0.99542724  0.55578934  1  0  -0.025892  0  3.77708  0  0  -0.015336  0  4.020849  0  0  -0.017563  0  4.04231  0  0  0.000227  -0.01442  0  4.006733  0
C  C50  1  0.22169225  0.10701732  0.50774931  1  0  0.092161  0  3.815592  0  0  0.073129  0  4.072206  0  0  0.075288  0  4.096736  0  0  0.088549  0.071907  0  4.055758  0
C  C51  1  0.77831126  0.89297957  0.49225171  1  0  0.092229  0  3.815474  0  0  0.073084  0  4.072125  0  0  0.075244  0  4.096651  0  0  0.088541  0.071863  0  4.05568  0
C  C52  1  0.13826123  0.22661320  0.62771804  1  0  0.225997  0  3.711105  0  0  0.169714  0  3.999012  0  0  0.181625  0  4.01348  0  0  0.144103  0.16209  0  3.988854  0
C  C53  1  0.86173657  0.77337748  0.37228456  1  0  0.226025  0  3.710974  0  0  0.16971  0  3.998838  0  0  0.181619  0  4.013307  0  0  0.144128  0.162085  0  3.988682  0
C  C54  1  0.20173555  0.24693609  0.48358717  1  0  0.085983  0  3.85055  0  0  0.082401  0  4.105145  0  0  0.083245  0  4.129793  0  0  0.081914  0.08153  0  4.088566  0
C  C55  1  0.79826943  0.75306082  0.51641372  1  0  0.085961  0  3.850666  0  0  0.082423  0  4.105247  0  0  0.083269  0  4.129896  0  0  0.081937  0.08155  0  4.088671  0
C  C56  1  0.23435545  0.29477141  0.39081263  1  0  -0.014634  0  3.757988  0  0  -0.001724  0  3.985804  0  0  -0.004328  0  4.008662  0  0  0.003953  0.000538  0  3.969596  0
C  C57  1  0.76565273  0.70522452  0.60918804  1  0  -0.014612  0  3.758083  0  0  -0.00172  0  3.985838  0  0  -0.004332  0  4.008708  0  0  0.003965  0.000541  0  3.969634  0
C  C58  1  0.20944376  0.43396654  0.36184595  1  0  -0.035946  0  3.687169  0  0  -0.061756  0  3.936017  0  0  -0.058645  0  3.951788  0  0  -0.065893  -0.063142  0  3.924401  0
C  C59  1  0.79056313  0.56603452  0.63815713  1  0  -0.035981  0  3.686994  0  0  -0.061791  0  3.935885  0  0  -0.058676  0  3.951656  0  0  -0.065895  -0.063182  0  3.924278  0
C  C60  1  0.24540469  0.46987262  0.27065480  1  0  -0.119105  0  3.751987  0  0  -0.130393  0  4.0058  0  0  -0.137852  0  4.029191  0  0  -0.085516  -0.126294  0  3.990211  0
C  C61  1  0.75458049  0.53012715  0.72935295  1  0  -0.119097  0  3.751708  0  0  -0.130348  0  4.0055  0  0  -0.137805  0  4.028888  0  0  -0.085535  -0.126249  0  3.989914  0
C  C62  1  0.30399486  0.36639062  0.20984782  1  0  0.141126  0  3.733199  0  0  0.108882  0  3.998374  0  0  0.115431  0  4.01595  0  0  0.05229  0.104805  0  3.986821  0
C  C63  1  0.69599964  0.63360721  0.79015790  1  0  0.141101  0  3.733313  0  0  0.108864  0  3.99849  0  0  0.115409  0  4.016071  0  0  0.052273  0.104789  0  3.98693  0
C  C64  1  0.29089094  0.19571968  0.32475721  1  0  0.151125  0  3.72388  0  0  0.140894  0  3.973976  0  0  0.145913  0  3.992917  0  0  0.121522  0.137771  0  3.960949  0
C  C65  1  0.70911004  0.80428128  0.67524442  1  0  0.151146  0  3.723924  0  0  0.141006  0  3.973886  0  0  0.146033  0  3.992829  0  0  0.12156  0.137881  0  3.960862  0
C  C66  1  0.30975395  0.05046804  0.35129560  1  0  0.156365  0  3.712313  0  0  0.147642  0  3.962046  0  0  0.152811  0  3.980596  0  0  0.124303  0.143812  0  3.949839  0
C  C67  1  0.69024617  0.94953594  0.64870391  1  0  0.156275  0  3.712271  0  0  0.14753  0  3.962003  0  0  0.152694  0  3.980567  0  0  0.124313  0.143699  0  3.949796  0
S  S68  1  0.12730642  0.85934699  0.79584420  1  0  1.38897  0  5.564686  0  0  1.291273  0  6.083967  0  0  1.339982  0  6.056291  0  0  0.5494  1.257152  0  6.102257  0
S  S69  1  0.87269102  0.14065593  0.20415497  1  0  1.388988  0  5.564705  0  0  1.291299  0  6.083982  0  0  1.340007  0  6.056305  0  0  0.549384  1.257182  0  6.10227  0
N  N70  1  0.35924089  0.96016018  0.28575006  1  0  -0.420879  0  3.235878  0  0  -0.37357  0  3.508298  0  0  -0.386107  0  3.523653  0  0  -0.370955  -0.364536  0  3.497629  0
N  N71  1  0.64076125  0.03984178  0.71424942  1  0  -0.420739  0  3.235913  0  0  -0.373418  0  3.508301  0  0  -0.385956  0  3.523656  0  0  -0.370909  -0.364384  0  3.497631  0
N  N72  1  0.32509615  0.23401013  0.23541735  1  0  -0.432644  0  3.255677  0  0  -0.384817  0  3.530313  0  0  -0.39807  0  3.546931  0  0  -0.372897  -0.376251  0  3.51922  0
N  N73  1  0.67490091  0.76598870  0.76458278  1  0  -0.432702  0  3.255852  0  0  -0.384904  0  3.530467  0  0  -0.398162  0  3.547088  0  0  -0.372914  -0.376334  0  3.519369  0
N  N74  1  0.14982598  0.32077190  0.55959182  1  0  -0.409518  0  2.979644  0  0  -0.380466  0  3.2549  0  0  -0.394109  0  3.269693  0  0  -0.345457  -0.371063  0  3.244529  0
N  N75  1  0.85017964  0.67922303  0.44041377  1  0  -0.409544  0  2.979921  0  0  -0.380515  0  3.255191  0  0  -0.394157  0  3.269984  0  0  -0.345483  -0.371111  0  3.244817  0
N  N76  1  0.18069750  0.09661930  0.60017829  1  0  -0.329324  0  3.406571  0  0  -0.268124  0  3.644286  0  0  -0.285664  0  3.660807  0  0  -0.377403  -0.256211  0  3.632703  0
N  N77  1  0.81930630  0.90337657  0.39982343  1  0  -0.32947  0  3.406487  0  0  -0.268018  0  3.64413  0  0  -0.285556  0  3.660653  0  0  -0.37742  -0.256112  0  3.632539  0
O  O78  1  0.28055914  0.93172443  0.81598187  1  0  -0.768992  0  2.088699  0  0  -0.718131  0  2.367385  0  0  -0.739446  0  2.351614  0  0  -0.403378  -0.701978  0  2.378279  0
O  O79  1  0.71943857  0.06827746  0.18401734  1  0  -0.768997  0  2.088689  0  0  -0.718139  0  2.367378  0  0  -0.739456  0  2.35161  0  0  -0.403369  -0.701987  0  2.37827  0
O  O80  1  0.13364036  0.85520304  0.69864069  1  0  -0.657044  0  1.957838  0  0  -0.607854  0  2.199609  0  0  -0.627796  0  2.186718  0  0  -0.327147  -0.59381  0  2.208179  0
O  O81  1  0.86635963  0.14479582  0.30135853  1  0  -0.657033  0  1.957778  0  0  -0.607802  0  2.199539  0  0  -0.627741  0  2.186648  0  0  -0.327133  -0.593764  0  2.20811  0
O  O82  1  0.93065355  0.91648886  0.84518161  1  0  -0.765306  0  2.083494  0  0  -0.712397  0  2.359248  0  0  -0.734123  0  2.342941  0  0  -0.393243  -0.696492  0  2.370012  0
O  O83  1  0.06934269  0.08351302  0.15481774  1  0  -0.765325  0  2.083439  0  0  -0.71242  0  2.359198  0  0  -0.734146  0  2.342893  0  0  -0.393261  -0.696517  0  2.369961  0
O  O84  1  0.39426018  0.18500019  0.88172385  1  0  -0.722499  0  2.026757  0  0  -0.669665  0  2.273124  0  0  -0.693805  0  2.261227  0  0  -0.384198  -0.652544  0  2.281809  0
O  O85  1  0.60574311  0.81500279  0.11827348  1  0  -0.722418  0  2.026872  0  0  -0.669601  0  2.273205  0  0  -0.693744  0  2.261315  0  0  -0.384186  -0.652477  0  2.281889  0
O  O86  1  0.33252172  0.25218054  0.02461537  1  0  -0.708909  0  2.022163  0  0  -0.658427  0  2.274912  0  0  -0.683471  0  2.265321  0  0  -0.378092  -0.641308  0  2.281257  0
O  O87  1  0.66747945  0.74781935  0.97538235  1  0  -0.708713  0  2.022228  0  0  -0.658224  0  2.274911  0  0  -0.683265  0  2.265317  0  0  -0.377981  -0.64113  0  2.281315  0
O  O88  1  0.31349625  0.94351409  0.01017055  1  0  -1.154543  0  1.741716  0  0  -1.09605  0  1.955443  0  0  -1.120264  0  1.929138  0  0  -0.791603  -1.078344  0  1.974012  0
O  O89  1  0.68650438  0.05648784  0.98982774  1  0  -1.154578  0  1.74172  0  0  -1.096078  0  1.955427  0  0  -1.120294  0  1.929132  0  0  -0.791605  -1.078369  0  1.973994  0
