# generated using pymatgen
data_CdH6C8(NO)4
_symmetry_space_group_name_H-M   'P 1'
_cell_length_a   12.80201275
_cell_length_b   12.79784018
_cell_length_c   12.73360000
_cell_angle_alpha   108.30534616
_cell_angle_beta   108.29916835
_cell_angle_gamma   108.50099560
_symmetry_Int_Tables_number   1
_chemical_formula_structural   CdH6C8(NO)4
_chemical_formula_sum   'Cd6 H36 C48 N24 O24'
_cell_volume   1668.33759332
_cell_formula_units_Z   6
loop_
 _symmetry_equiv_pos_site_id
 _symmetry_equiv_pos_as_xyz
  1  'x, y, z'
loop_
 _atom_site_type_symbol
 _atom_site_label
 _atom_site_symmetry_multiplicity
 _atom_site_fract_x
 _atom_site_fract_y
 _atom_site_fract_z
 _atom_site_occupancy
 _atom_site_hle17_bader_spin_density
 _atom_site_hle17_ddec_charge
 _atom_site_hle17_ddec_spin_density
 _atom_site_hle17_ddec_sum_bond_order
 _atom_site_hle17_magmom
 _atom_site_hse06_10hf_bader_spin_density
 _atom_site_hse06_10hf_ddec_charge
 _atom_site_hse06_10hf_ddec_spin_density
 _atom_site_hse06_10hf_ddec_sum_bond_order
 _atom_site_hse06_10hf_magmom
 _atom_site_hse06_bader_spin_density
 _atom_site_hse06_ddec_charge
 _atom_site_hse06_ddec_spin_density
 _atom_site_hse06_ddec_sum_bond_order
 _atom_site_hse06_magmom
 _atom_site_pbe_bader_charge
 _atom_site_pbe_bader_spin_density
 _atom_site_pbe_cm5_charge
 _atom_site_pbe_ddec_charge
 _atom_site_pbe_ddec_spin_density
 _atom_site_pbe_ddec_sum_bond_order
 _atom_site_pbe_magmom
Cd  Cd0  1  0.54322456  0.81053045  0.31634715  1  0  1.080517  0  1.748632  0  0  0.870961  0  2.202153  0  0  0.924186  0  2.156478  0  1.240738  0  0.801569  0.833263  0  2.233386  0
Cd  Cd1  1  0.31783533  0.54366862  0.81116777  1  0  1.080799  0  1.747587  0  0  0.871494  0  2.201163  0  0  0.924618  0  2.155493  0  1.239786  0  0.802061  0.833876  0  2.23239  0
Cd  Cd2  1  0.81191724  0.31810716  0.54431580  1  0  1.079307  0  1.753654  0  0  0.869746  0  2.207999  0  0  0.922677  0  2.162426  0  1.238402  0  0.804134  0.83227  0  2.239166  0
Cd  Cd3  1  0.81827890  0.31192402  0.04431797  1  0  1.079634  0  1.753373  0  0  0.869958  0  2.207814  0  0  0.922865  0  2.162256  0  1.238461  0  0.804429  0.832502  0  2.238968  0
Cd  Cd4  1  0.31062588  0.04338955  0.81642159  1  0  1.080355  0  1.749057  0  0  0.870771  0  2.20259  0  0  0.923983  0  2.156926  0  1.240832  0  0.801659  0.83309  0  2.233811  0
Cd  Cd5  1  0.04350176  0.81759026  0.31107072  1  0  1.080541  0  1.747402  0  0  0.871203  0  2.200903  0  0  0.924353  0  2.155235  0  1.241233  0  0.801693  0.833568  0  2.232125  0
H  H6  1  0.57139328  0.40865458  0.11802477  1  0  0.388337  0  0.920479  0  0  0.356677  0  1.000637  0  0  0.370095  0  0.983464  0  0.6424  0  0.289969  0.34734  0  1.009471  0
H  H7  1  0.11763063  0.57106644  0.40804631  1  0  0.387952  0  0.921006  0  0  0.356384  0  1.00101  0  0  0.369786  0  0.983833  0  0.642956  0  0.289886  0.347057  0  1.009852  0
H  H8  1  0.40868626  0.11797586  0.57138747  1  0  0.389557  0  0.918724  0  0  0.357189  0  1.000157  0  0  0.370622  0  0.9828  0  0.643493  0  0.290116  0.347839  0  1.009004  0
H  H9  1  0.61789282  0.90854587  0.07129330  1  0  0.389724  0  0.918622  0  0  0.357646  0  0.999498  0  0  0.371077  0  0.98212  0  0.642957  0  0.290175  0.348299  0  1.008354  0
H  H10  1  0.90879916  0.07142007  0.61810478  1  0  0.388615  0  0.919981  0  0  0.356638  0  1.000766  0  0  0.370052  0  0.98357  0  0.64372  0  0.289986  0.347303  0  1.009595  0
H  H11  1  0.07113485  0.61762966  0.90803933  1  0  0.387965  0  0.920738  0  0  0.356263  0  1.001021  0  0  0.369666  0  0.983975  0  0.642547  0  0.289835  0.346936  0  1.009856  0
H  H12  1  0.67069173  0.97395629  0.80703727  1  0  0.307582  0  0.943115  0  0  0.287032  0  1.004795  0  0  0.296399  0  0.997171  0  0.563742  0  0.306537  0.280445  0  1.010181  0
H  H13  1  0.80629317  0.67053094  0.97397371  1  0  0.30901  0  0.937549  0  0  0.288267  0  0.999667  0  0  0.297592  0  0.992052  0  0.544326  0  0.30739  0.281696  0  1.00508  0
H  H14  1  0.97383508  0.80642908  0.67048492  1  0  0.308194  0  0.939212  0  0  0.287928  0  1.000725  0  0  0.297279  0  0.993062  0  0.543124  0  0.307155  0.281351  0  1.00611  0
H  H15  1  0.30634873  0.47385719  0.17047761  1  0  0.308831  0  0.938015  0  0  0.288199  0  1.000066  0  0  0.297548  0  0.992409  0  0.543469  0  0.307333  0.281624  0  1.005451  0
H  H16  1  0.47392580  0.17066934  0.30704421  1  0  0.30754  0  0.942838  0  0  0.287041  0  1.004457  0  0  0.29641  0  0.99682  0  0.563499  0  0.306523  0.280446  0  1.009852  0
H  H17  1  0.17055867  0.30636802  0.47398025  1  0  0.308757  0  0.938264  0  0  0.288169  0  1.000225  0  0  0.297488  0  0.992624  0  0.543855  0  0.307254  0.281594  0  1.00564  0
H  H18  1  0.85351070  0.91615025  0.37071265  1  0  0.08801  0  0.928655  0  0  0.097758  0  0.99083  0  0  0.099866  0  0.988664  0  0.132533  0  0.131218  0.096174  0  0.992421  0
H  H19  1  0.37126398  0.85390701  0.91722192  1  0  0.087913  0  0.928262  0  0  0.097566  0  0.990452  0  0  0.099686  0  0.988264  0  0.121165  0  0.131217  0.095982  0  0.992069  0
H  H20  1  0.91599554  0.37064014  0.85349218  1  0  0.088217  0  0.928859  0  0  0.098099  0  0.990889  0  0  0.100173  0  0.988768  0  0.133793  0  0.131518  0.096515  0  0.992476  0
H  H21  1  0.87071420  0.41614763  0.35357849  1  0  0.088402  0  0.92864  0  0  0.098233  0  0.990752  0  0  0.100362  0  0.988575  0  0.132662  0  0.131507  0.096647  0  0.992343  0
H  H22  1  0.41598768  0.35350084  0.87063081  1  0  0.087911  0  0.928843  0  0  0.097672  0  0.991037  0  0  0.099763  0  0.988897  0  0.134623  0  0.131265  0.096092  0  0.992627  0
H  H23  1  0.35383538  0.87127081  0.41722817  1  0  0.088028  0  0.928365  0  0  0.097711  0  0.990516  0  0  0.099831  0  0.988326  0  0.120834  0  0.131274  0.096134  0  0.992119  0
H  H24  1  0.44875276  0.64687918  0.46091500  1  0  0.106962  0  0.948703  0  0  0.118304  0  1.003964  0  0  0.12118  0  1.002629  0  0.097524  0  0.115615  0.116224  0  1.005021  0
H  H25  1  0.46119749  0.44849196  0.64644252  1  0  0.107385  0  0.947002  0  0  0.118852  0  1.002093  0  0  0.121752  0  1.000741  0  0.103997  0  0.115784  0.116767  0  1.003149  0
H  H26  1  0.64697851  0.46119962  0.44880375  1  0  0.107829  0  0.947889  0  0  0.119381  0  1.002758  0  0  0.122278  0  1.001424  0  0.099668  0  0.115973  0.117291  0  1.003817  0
H  H27  1  0.96127139  0.14692202  0.94877087  1  0  0.108078  0  0.947682  0  0  0.119645  0  1.002478  0  0  0.122524  0  1.00116  0  0.100154  0  0.116097  0.117526  0  1.003574  0
H  H28  1  0.14694552  0.94879422  0.96093568  1  0  0.107168  0  0.948831  0  0  0.11854  0  1.004044  0  0  0.121421  0  1.002715  0  0.097802  0  0.115661  0.116454  0  1.005102  0
H  H29  1  0.94848768  0.96110947  0.14644000  1  0  0.10737  0  0.947202  0  0  0.11884  0  1.002286  0  0  0.121716  0  1.00097  0  0.103923  0  0.115785  0.116755  0  1.003342  0
H  H30  1  0.52517622  0.74562656  0.71733734  1  0  0.116142  0  0.954334  0  0  0.124066  0  1.017178  0  0  0.126735  0  1.016141  0  0.161496  0  0.120901  0.122116  0  1.018014  0
H  H31  1  0.71646630  0.52486688  0.74517669  1  0  0.116623  0  0.953127  0  0  0.124532  0  1.015857  0  0  0.127212  0  1.014841  0  0.13994  0  0.12117  0.122573  0  1.016702  0
H  H32  1  0.74574710  0.71662938  0.52522763  1  0  0.116099  0  0.953827  0  0  0.12417  0  1.016343  0  0  0.126781  0  1.015427  0  0.120269  0  0.120973  0.122264  0  1.017103  0
H  H33  1  0.21651434  0.24563137  0.02515486  1  0  0.116243  0  0.953729  0  0  0.124343  0  1.016179  0  0  0.126956  0  1.01523  0  0.134035  0  0.121072  0.122441  0  1.016942  0
H  H34  1  0.24565827  0.02519917  0.21737038  1  0  0.116168  0  0.954199  0  0  0.124015  0  1.017154  0  0  0.126708  0  1.016091  0  0.162062  0  0.120924  0.122065  0  1.017989  0
H  H35  1  0.02491513  0.21654698  0.24525674  1  0  0.116408  0  0.953777  0  0  0.124331  0  1.016492  0  0  0.127021  0  1.01545  0  0.163293  0  0.121146  0.122372  0  1.017338  0
H  H36  1  0.69399225  0.02947216  0.63370358  1  0  0.095143  0  0.936173  0  0  0.107319  0  0.994746  0  0  0.109029  0  0.99333  0  0.133778  0  0.134955  0.10602  0  0.995824  0
H  H37  1  0.63429518  0.69452595  0.03025342  1  0  0.09478  0  0.936775  0  0  0.107118  0  0.995266  0  0  0.108798  0  0.993916  0  0.13599  0  0.134932  0.105837  0  0.9963  0
H  H38  1  0.02956164  0.63414832  0.69404657  1  0  0.094921  0  0.936763  0  0  0.107139  0  0.995253  0  0  0.108881  0  0.993804  0  0.133949  0  0.13516  0.105824  0  0.996336  0
H  H39  1  0.13422052  0.52966774  0.19411698  1  0  0.095033  0  0.936716  0  0  0.107244  0  0.995225  0  0  0.108934  0  0.993843  0  0.136438  0  0.13524  0.105929  0  0.996304  0
H  H40  1  0.52943134  0.19396300  0.13368539  1  0  0.095257  0  0.935833  0  0  0.107427  0  0.994428  0  0  0.109123  0  0.993011  0  0.133939  0  0.134912  0.106094  0  0.995549  0
H  H41  1  0.19448908  0.13425054  0.53019243  1  0  0.094938  0  0.93657  0  0  0.107181  0  0.99516  0  0  0.108851  0  0.993802  0  0.136631  0  0.134842  0.105896  0  0.996201  0
C  C42  1  0.80179038  0.81563837  0.32202993  1  0  0.241276  0  3.716544  0  0  0.179543  0  3.996042  0  0  0.193561  0  4.009788  0  1.023457  0  0.136785  0.170332  0  3.98629  0
C  C43  1  0.32251164  0.80209207  0.81634266  1  0  0.24343  0  3.715653  0  0  0.181649  0  3.995237  0  0  0.195669  0  4.009021  0  1.034072  0  0.13756  0.17241  0  3.985494  0
C  C44  1  0.81552230  0.32206288  0.80184479  1  0  0.239937  0  3.71746  0  0  0.178002  0  3.996493  0  0  0.192047  0  4.010254  0  1.022803  0  0.136796  0.168798  0  3.986737  0
C  C45  1  0.82212385  0.31562927  0.30189858  1  0  0.239742  0  3.717997  0  0  0.177828  0  3.996967  0  0  0.191823  0  4.010763  0  1.02175  0  0.136721  0.168616  0  3.987209  0
C  C46  1  0.31552344  0.30178610  0.82197195  1  0  0.241401  0  3.716223  0  0  0.179658  0  3.995805  0  0  0.193675  0  4.009549  0  1.018659  0  0.136876  0.170451  0  3.986052  0
C  C47  1  0.30204328  0.82251172  0.31635163  1  0  0.243176  0  3.715486  0  0  0.181401  0  3.995147  0  0  0.195425  0  4.008915  0  1.033772  0  0.137452  0.172162  0  3.985411  0
C  C48  1  0.75526944  0.62206779  0.22130413  1  0  0.00826  0  3.772514  0  0  -0.003189  0  4.033162  0  0  -0.004405  0  4.054719  0  0.461382  0  0.075068  -0.00249  0  4.018689  0
C  C49  1  0.22128690  0.75517818  0.62201883  1  0  0.008664  0  3.775646  0  0  -0.002818  0  4.035696  0  0  -0.004008  0  4.057232  0  0.464505  0  0.075339  -0.002134  0  4.02124  0
C  C50  1  0.62204842  0.22118178  0.75551561  1  0  0.00898  0  3.773472  0  0  -0.002373  0  4.033442  0  0  -0.003591  0  4.05496  0  0.42815  0  0.07632  -0.001674  0  4.019004  0
C  C51  1  0.72120072  0.12206981  0.25550714  1  0  0.008779  0  3.773275  0  0  -0.002389  0  4.033318  0  0  -0.003592  0  4.054831  0  0.428174  0  0.076296  -0.0017  0  4.01888  0
C  C52  1  0.12205784  0.25529988  0.72127298  1  0  0.008158  0  3.772782  0  0  -0.003087  0  4.03331  0  0  -0.004327  0  4.054892  0  0.461113  0  0.075403  -0.002379  0  4.01884  0
C  C53  1  0.25514956  0.72128737  0.12200131  1  0  0.00889  0  3.775347  0  0  -0.0026  0  4.035346  0  0  -0.003799  0  4.056891  0  0.464133  0  0.075421  -0.001917  0  4.020889  0
C  C54  1  0.76714929  0.51240877  0.15536762  1  0  0.617506  0  3.950965  0  0  0.568366  0  4.245497  0  0  0.602555  0  4.238018  0  1.535704  0  0.198989  0.545257  0  4.249707  0
C  C55  1  0.15513946  0.76699339  0.51205923  1  0  0.616284  0  3.953547  0  0  0.567203  0  4.247918  0  0  0.601382  0  4.240472  0  1.536616  0  0.198427  0.544095  0  4.252109  0
C  C56  1  0.51257081  0.15532051  0.76784951  1  0  0.617519  0  3.950282  0  0  0.568375  0  4.244555  0  0  0.602553  0  4.237067  0  1.565269  0  0.198764  0.545268  0  4.248772  0
C  C57  1  0.65530582  0.01253882  0.26780651  1  0  0.617611  0  3.950252  0  0  0.568404  0  4.244598  0  0  0.602582  0  4.237108  0  1.565436  0  0.198483  0.545301  0  4.248826  0
C  C58  1  0.01249338  0.26724404  0.65538976  1  0  0.617236  0  3.95197  0  0  0.567956  0  4.2466  0  0  0.602149  0  4.239126  0  1.533026  0  0.198639  0.544847  0  4.250806  0
C  C59  1  0.26693446  0.65512274  0.01199687  1  0  0.616188  0  3.953523  0  0  0.567293  0  4.247571  0  0  0.601487  0  4.24012  0  1.536393  0  0.198696  0.544185  0  4.251767  0
C  C60  1  0.65330960  0.62901628  0.23664514  1  0  -0.043975  0  3.813662  0  0  -0.050425  0  4.069619  0  0  -0.054774  0  4.093469  0  0.391665  0  0.067282  -0.047608  0  4.0536  0
C  C61  1  0.23683751  0.65338608  0.62913444  1  0  -0.045265  0  3.813962  0  0  -0.051082  0  4.069061  0  0  -0.055452  0  4.092886  0  0.392078  0  0.067334  -0.048245  0  4.053054  0
C  C62  1  0.62892062  0.23664193  0.65308866  1  0  -0.043701  0  3.813536  0  0  -0.049799  0  4.069205  0  0  -0.054067  0  4.092946  0  0.398168  0  0.06768  -0.047041  0  4.053272  0
C  C63  1  0.73667377  0.12895614  0.15309422  1  0  -0.043638  0  3.81309  0  0  -0.050069  0  4.069118  0  0  -0.054359  0  4.09287  0  0.397757  0  0.06757  -0.047291  0  4.053165  0
C  C64  1  0.12894090  0.15327400  0.73660076  1  0  -0.043611  0  3.812944  0  0  -0.05005  0  4.069065  0  0  -0.054383  0  4.092923  0  0.391691  0  0.067584  -0.047252  0  4.053052  0
C  C65  1  0.15340914  0.73684122  0.12916802  1  0  -0.045588  0  3.813996  0  0  -0.051327  0  4.069061  0  0  -0.055702  0  4.092887  0  0.391861  0  0.067279  -0.048487  0  4.053054  0
C  C66  1  0.53001273  0.53534713  0.20251593  1  0  0.645863  0  3.864661  0  0  0.596413  0  4.161929  0  0  0.631258  0  4.151356  0  1.536979  0  0.226946  0.572809  0  4.16848  0
C  C67  1  0.20252216  0.53008335  0.53523914  1  0  0.646828  0  3.861682  0  0  0.597184  0  4.159062  0  0  0.632049  0  4.148447  0  1.537832  0  0.22721  0.573567  0  4.165632  0
C  C68  1  0.53532946  0.20267227  0.52952830  1  0  0.648369  0  3.862507  0  0  0.598037  0  4.160959  0  0  0.632877  0  4.150312  0  1.536396  0  0.228297  0.574429  0  4.167563  0
C  C69  1  0.70265792  0.03529349  0.02952498  1  0  0.649108  0  3.861768  0  0  0.598742  0  4.160368  0  0  0.63359  0  4.14971  0  1.537366  0  0.228578  0.575135  0  4.166976  0
C  C70  1  0.03533597  0.02993880  0.70253234  1  0  0.646325  0  3.864204  0  0  0.596576  0  4.16195  0  0  0.631424  0  4.151376  0  1.538788  0  0.227203  0.572981  0  4.168493  0
C  C71  1  0.03015790  0.70251718  0.03529329  1  0  0.646657  0  3.862274  0  0  0.59694  0  4.159667  0  0  0.631809  0  4.14905  0  1.537346  0  0.227009  0.573329  0  4.166236  0
C  C72  1  0.51003012  0.74104000  0.53466421  1  0  -0.030115  0  3.782256  0  0  -0.062835  0  4.048478  0  0  -0.06284  0  4.070778  0  0.389738  0  -0.016514  -0.062849  0  4.033384  0
C  C73  1  0.53480142  0.50994758  0.74087063  1  0  -0.029929  0  3.780895  0  0  -0.062691  0  4.046905  0  0  -0.062726  0  4.069237  0  0.382115  0  -0.016017  -0.062695  0  4.0318  0
C  C74  1  0.74114985  0.53481927  0.51007674  1  0  -0.030313  0  3.781001  0  0  -0.063211  0  4.047175  0  0  -0.063248  0  4.069447  0  0.38621  0  -0.015944  -0.063213  0  4.032107  0
C  C75  1  0.03482032  0.24113294  0.01006553  1  0  -0.030167  0  3.780542  0  0  -0.063069  0  4.046631  0  0  -0.063093  0  4.068933  0  0.385131  0  -0.0158  -0.063045  0  4.031564  0
C  C76  1  0.24107521  0.01005536  0.03468965  1  0  -0.030314  0  3.782329  0  0  -0.063075  0  4.04857  0  0  -0.063097  0  4.070883  0  0.388002  0  -0.016505  -0.063082  0  4.033475  0
C  C77  1  0.00992904  0.03477213  0.24085404  1  0  -0.030006  0  3.781196  0  0  -0.062762  0  4.047191  0  0  -0.062784  0  4.069539  0  0.382592  0  -0.01605  -0.062767  0  4.032087  0
C  C78  1  0.54697005  0.78803646  0.66049408  1  0  -0.007166  0  3.696463  0  0  -0.046122  0  3.958324  0  0  -0.043899  0  3.977574  0  0.305599  0  -0.001599  -0.04753  0  3.945401  0
C  C79  1  0.66003178  0.54678570  0.78779010  1  0  -0.006812  0  3.694971  0  0  -0.045354  0  3.956349  0  0  -0.043214  0  3.975723  0  0.342873  0  -0.000702  -0.046736  0  3.943343  0
C  C80  1  0.78809372  0.66012583  0.54700430  1  0  -0.005783  0  3.695596  0  0  -0.044345  0  3.957507  0  0  -0.042128  0  3.97684  0  0.363287  0  -0.000437  -0.045783  0  3.944519  0
C  C81  1  0.16008600  0.28806260  0.04698198  1  0  -0.006132  0  3.695689  0  0  -0.044693  0  3.957568  0  0  -0.042456  0  3.976895  0  0.349998  0  -0.000482  -0.046136  0  3.944576  0
C  C82  1  0.28805303  0.04698811  0.16051609  1  0  -0.007092  0  3.696365  0  0  -0.045982  0  3.958213  0  0  -0.043789  0  3.97745  0  0.305659  0  -0.001531  -0.047393  0  3.945289  0
C  C83  1  0.04679235  0.16005457  0.28780576  1  0  -0.006945  0  3.695654  0  0  -0.045442  0  3.957146  0  0  -0.043299  0  3.976482  0  0.319327  0  -0.000954  -0.046827  0  3.944142  0
C  C84  1  0.63621861  0.93840582  0.61965554  1  0  0.216185  0  3.684368  0  0  0.156169  0  3.952215  0  0  0.170371  0  3.965567  0  1.001142  0  0.135458  0.146933  0  3.942889  0
C  C85  1  0.61998678  0.63657055  0.93884183  1  0  0.216942  0  3.681937  0  0  0.156758  0  3.949825  0  0  0.170977  0  3.963174  0  0.98808  0  0.136243  0.147515  0  3.940475  0
C  C86  1  0.93851640  0.61997675  0.63630514  1  0  0.216343  0  3.683482  0  0  0.156529  0  3.951584  0  0  0.170684  0  3.964865  0  0.994681  0  0.135715  0.147318  0  3.9423  0
C  C87  1  0.11998322  0.43856648  0.13633642  1  0  0.216207  0  3.683669  0  0  0.156393  0  3.951701  0  0  0.170594  0  3.964993  0  0.991117  0  0.135635  0.147181  0  3.942419  0
C  C88  1  0.43839119  0.13621541  0.11966727  1  0  0.215908  0  3.683793  0  0  0.155879  0  3.95167  0  0  0.17009  0  3.964998  0  1.000958  0  0.135436  0.146672  0  3.942345  0
C  C89  1  0.13655213  0.11997784  0.43880814  1  0  0.216612  0  3.681853  0  0  0.156575  0  3.949846  0  0  0.170796  0  3.963188  0  0.98687  0  0.136208  0.147334  0  3.940486  0
N  N90  1  0.68529050  0.75197575  0.29989685  1  0  -0.402492  0  3.299023  0  0  -0.325007  0  3.582013  0  0  -0.346245  0  3.59965  0  -1.224901  0  -0.365369  -0.310412  0  3.569634  0
N  N91  1  0.30051238  0.68566825  0.75259638  1  0  -0.40278  0  3.299091  0  0  -0.325496  0  3.582119  0  0  -0.346716  0  3.599718  0  -1.223824  0  -0.366124  -0.310911  0  3.569766  0
N  N92  1  0.75181699  0.30003645  0.68501892  1  0  -0.401438  0  3.306507  0  0  -0.323675  0  3.590127  0  0  -0.344927  0  3.607624  0  -1.229944  0  -0.367254  -0.309079  0  3.577845  0
N  N93  1  0.80009888  0.25190356  0.18506125  1  0  -0.401214  0  3.306296  0  0  -0.323152  0  3.589693  0  0  -0.344395  0  3.607222  0  -1.228023  0  -0.366948  -0.30856  0  3.577398  0
N  N94  1  0.25184998  0.18525281  0.79984140  1  0  -0.403091  0  3.300112  0  0  -0.325566  0  3.583238  0  0  -0.346807  0  3.600875  0  -1.225331  0  -0.366069  -0.31096  0  3.57085  0
N  N95  1  0.18565662  0.80050106  0.25263311  1  0  -0.40274  0  3.298263  0  0  -0.325507  0  3.581234  0  0  -0.346721  0  3.598831  0  -1.223958  0  -0.366102  -0.310921  0  3.568874  0
N  N96  1  0.84799796  0.74124317  0.27682262  1  0  -0.402508  0  3.246747  0  0  -0.323907  0  3.532265  0  0  -0.345656  0  3.548793  0  -1.212396  0  -0.361923  -0.308966  0  3.520614  0
N  N97  1  0.27693985  0.84801332  0.74149617  1  0  -0.402301  0  3.248631  0  0  -0.323749  0  3.533948  0  0  -0.345502  0  3.550464  0  -1.213067  0  -0.3617  -0.308794  0  3.522285  0
N  N98  1  0.74117227  0.27670103  0.84834625  1  0  -0.400471  0  3.252608  0  0  -0.32153  0  3.538175  0  0  -0.343253  0  3.554653  0  -1.21114  0  -0.362674  -0.306611  0  3.526556  0
N  N99  1  0.77674067  0.24123220  0.34836904  1  0  -0.400299  0  3.253038  0  0  -0.321499  0  3.53866  0  0  -0.34324  0  3.555175  0  -1.210863  0  -0.362597  -0.306572  0  3.527034  0
N  N100  1  0.24119345  0.34803111  0.77677270  1  0  -0.402549  0  3.24673  0  0  -0.324034  0  3.532267  0  0  -0.345757  0  3.548789  0  -1.208974  0  -0.36205  -0.309109  0  3.520623  0
N  N101  1  0.34795256  0.77694578  0.24148122  1  0  -0.402322  0  3.247902  0  0  -0.323915  0  3.533386  0  0  -0.345692  0  3.549946  0  -1.212294  0  -0.36183  -0.308959  0  3.521728  0
N  N102  1  0.56642374  0.83607658  0.51024005  1  0  -0.419232  0  3.273975  0  0  -0.338669  0  3.561007  0  0  -0.360241  0  3.578324  0  -1.251885  0  -0.368331  -0.323858  0  3.548759  0
N  N103  1  0.51083274  0.56664316  0.83630850  1  0  -0.419141  0  3.26959  0  0  -0.338519  0  3.556562  0  0  -0.360058  0  3.573789  0  -1.24194  0  -0.367623  -0.32373  0  3.54437  0
N  N104  1  0.83624164  0.51080014  0.56651567  1  0  -0.419722  0  3.269987  0  0  -0.338986  0  3.55686  0  0  -0.360503  0  3.574111  0  -1.24475  0  -0.368159  -0.324217  0  3.544668  0
N  N105  1  0.01083194  0.33627435  0.06652747  1  0  -0.419815  0  3.270334  0  0  -0.339005  0  3.557255  0  0  -0.360521  0  3.574467  0  -1.244505  0  -0.368224  -0.32423  0  3.545059  0
N  N106  1  0.33609122  0.06644294  0.01026103  1  0  -0.419181  0  3.273825  0  0  -0.338605  0  3.560865  0  0  -0.360175  0  3.578177  0  -1.250388  0  -0.36836  -0.323793  0  3.548601  0
N  N107  1  0.06662087  0.01079103  0.33627346  1  0  -0.418911  0  3.269065  0  0  -0.338278  0  3.555846  0  0  -0.359808  0  3.573084  0  -1.242503  0  -0.367582  -0.323491  0  3.543641  0
N  N108  1  0.62622993  0.91236893  0.71204128  1  0  -0.274428  0  3.448282  0  0  -0.204022  0  3.680152  0  0  -0.220039  0  3.693507  0  -1.290388  0  -0.375432  -0.193347  0  3.671032  0
N  N109  1  0.71174729  0.62635470  0.91254083  1  0  -0.274289  0  3.447578  0  0  -0.204108  0  3.68012  0  0  -0.22007  0  3.693324  0  -1.282718  0  -0.375102  -0.193436  0  3.671055  0
N  N110  1  0.91244110  0.71181924  0.62629581  1  0  -0.273504  0  3.447005  0  0  -0.204161  0  3.679845  0  0  -0.220119  0  3.693079  0  -1.283796  0  -0.375106  -0.193482  0  3.670776  0
N  N111  1  0.21178295  0.41245631  0.12630965  1  0  -0.273449  0  3.446572  0  0  -0.203945  0  3.679651  0  0  -0.219909  0  3.692861  0  -1.282969  0  -0.375067  -0.193268  0  3.670596  0
N  N112  1  0.41235726  0.12622499  0.21205182  1  0  -0.274242  0  3.447944  0  0  -0.203849  0  3.679724  0  0  -0.219841  0  3.69306  0  -1.290535  0  -0.375394  -0.19317  0  3.670596  0
N  N113  1  0.12635451  0.21178416  0.41254306  1  0  -0.274306  0  3.447377  0  0  -0.204401  0  3.680122  0  0  -0.220361  0  3.693328  0  -1.282158  0  -0.375148  -0.193722  0  3.671056  0
O  O114  1  0.46025282  0.56975746  0.23812646  1  0  -0.579778  0  2.002214  0  0  -0.523679  0  2.22942  0  0  -0.546896  0  2.217659  0  -1.16661  0  -0.292095  -0.507588  0  2.23704  0
O  O115  1  0.23825487  0.46042221  0.56974412  1  0  -0.57909  0  2.000948  0  0  -0.52347  0  2.229003  0  0  -0.546698  0  2.217244  0  -1.166693  0  -0.292151  -0.507367  0  2.236629  0
O  O116  1  0.56994730  0.23865598  0.45968136  1  0  -0.578557  0  2.004279  0  0  -0.523284  0  2.232367  0  0  -0.546407  0  2.220695  0  -1.167293  0  -0.29204  -0.507239  0  2.239909  0
O  O117  1  0.73863788  0.06987637  0.95965954  1  0  -0.578827  0  2.004348  0  0  -0.523383  0  2.232404  0  0  -0.546504  0  2.22072  0  -1.167179  0  -0.292102  -0.507349  0  2.239958  0
O  O118  1  0.06976834  0.96020774  0.73818399  1  0  -0.579385  0  2.002556  0  0  -0.523435  0  2.229933  0  0  -0.54666  0  2.218205  0  -1.167637  0  -0.292018  -0.507348  0  2.23753  0
O  O119  1  0.96049941  0.73820958  0.06980516  1  0  -0.579212  0  2.001104  0  0  -0.52347  0  2.229157  0  0  -0.546704  0  2.217373  0  -1.166527  0  -0.292083  -0.507381  0  2.236805  0
O  O120  1  0.49593160  0.41795294  0.13619737  1  0  -0.542133  0  2.064044  0  0  -0.495775  0  2.280577  0  0  -0.518047  0  2.263935  0  -1.160322  0  -0.323766  -0.480393  0  2.289525  0
O  O121  1  0.13582169  0.49579549  0.41739591  1  0  -0.542365  0  2.064971  0  0  -0.495877  0  2.28166  0  0  -0.518135  0  2.264955  0  -1.161819  0  -0.323803  -0.480505  0  2.290649  0
O  O122  1  0.41798768  0.13625345  0.49547849  1  0  -0.544028  0  2.060369  0  0  -0.496919  0  2.277814  0  0  -0.519212  0  2.261055  0  -1.160976  0  -0.324103  -0.481532  0  2.286794  0
O  O123  1  0.63620032  0.91790639  0.99543834  1  0  -0.544665  0  2.060553  0  0  -0.497716  0  2.277879  0  0  -0.520008  0  2.261088  0  -1.161245  0  -0.324372  -0.482323  0  2.286859  0
O  O124  1  0.91798490  0.99586675  0.63622617  1  0  -0.542554  0  2.063136  0  0  -0.495953  0  2.280094  0  0  -0.518217  0  2.263423  0  -1.161787  0  -0.323997  -0.480574  0  2.289038  0
O  O125  1  0.99590414  0.63583767  0.91744381  1  0  -0.54235  0  2.064739  0  0  -0.495786  0  2.281511  0  0  -0.518044  0  2.264887  0  -1.160932  0  -0.323793  -0.480412  0  2.290492  0
O  O126  1  0.67163249  0.40523878  0.10217751  1  0  -0.620729  0  2.038721  0  0  -0.560614  0  2.265943  0  0  -0.587712  0  2.255026  0  -1.16986  0  -0.322353  -0.541747  0  2.271828  0
O  O127  1  0.10163127  0.67145586  0.40454540  1  0  -0.619534  0  2.040288  0  0  -0.55937  0  2.26745  0  0  -0.586515  0  2.256627  0  -1.17263  0  -0.321315  -0.540471  0  2.273287  0
O  O128  1  0.40535584  0.10211958  0.67197551  1  0  -0.622504  0  2.041807  0  0  -0.561371  0  2.26983  0  0  -0.588638  0  2.258741  0  -1.164933  0  -0.322725  -0.542381  0  2.275788  0
O  O129  1  0.60206469  0.90527387  0.17193616  1  0  -0.622426  0  2.041906  0  0  -0.561468  0  2.269856  0  0  -0.588732  0  2.258757  0  -1.165081  0  -0.322456  -0.542489  0  2.275821  0
O  O130  1  0.90537776  0.17167218  0.60225512  1  0  -0.620969  0  2.039016  0  0  -0.560571  0  2.266503  0  0  -0.587685  0  2.255573  0  -1.168856  0  -0.322352  -0.541699  0  2.272397  0
O  O131  1  0.17144603  0.60160639  0.90447476  1  0  -0.61913  0  2.040006  0  0  -0.558999  0  2.267093  0  0  -0.586139  0  2.256322  0  -1.172116  0  -0.321424  -0.540112  0  2.272922  0
O  O132  1  0.86789675  0.52500047  0.15160619  1  0  -0.593829  0  1.944902  0  0  -0.533  0  2.183537  0  0  -0.558997  0  2.172371  0  -1.143219  0  -0.318147  -0.514842  0  2.190499  0
O  O133  1  0.15152876  0.86781790  0.52483540  1  0  -0.594113  0  1.944624  0  0  -0.533195  0  2.183431  0  0  -0.559244  0  2.172235  0  -1.143786  0  -0.318613  -0.51502  0  2.190468  0
O  O134  1  0.52499789  0.15147796  0.86894002  1  0  -0.591745  0  1.942609  0  0  -0.531452  0  2.180356  0  0  -0.557294  0  2.169269  0  -1.143759  0  -0.317283  -0.513425  0  2.187323  0
O  O135  1  0.65147196  0.02498858  0.36890613  1  0  -0.591959  0  1.942237  0  0  -0.531672  0  2.180178  0  0  -0.557522  0  2.169083  0  -1.143531  0  -0.317266  -0.513603  0  2.187054  0
O  O136  1  0.02504405  0.36799990  0.65160468  1  0  -0.593297  0  1.945005  0  0  -0.532483  0  2.183602  0  0  -0.558452  0  2.172399  0  -1.141811  0  -0.317884  -0.514348  0  2.190595  0
O  O137  1  0.36773007  0.65151305  0.02479329  1  0  -0.594471  0  1.945312  0  0  -0.533606  0  2.184196  0  0  -0.559653  0  2.172942  0  -1.143908  0  -0.318701  -0.515389  0  2.191159  0
