# generated using pymatgen
data_AgH19C17N4O3
_symmetry_space_group_name_H-M   'P 1'
_cell_length_a   10.92433734
_cell_length_b   12.05150946
_cell_length_c   14.64330914
_cell_angle_alpha   90.00054793
_cell_angle_beta   89.99990008
_cell_angle_gamma   89.99988344
_symmetry_Int_Tables_number   1
_chemical_formula_structural   AgH19C17N4O3
_chemical_formula_sum   'Ag4 H76 C68 N16 O12'
_cell_volume   1927.86127397
_cell_formula_units_Z   4
loop_
 _symmetry_equiv_pos_site_id
 _symmetry_equiv_pos_as_xyz
  1  'x, y, z'
loop_
 _atom_site_type_symbol
 _atom_site_label
 _atom_site_symmetry_multiplicity
 _atom_site_fract_x
 _atom_site_fract_y
 _atom_site_fract_z
 _atom_site_occupancy
 _atom_site_pbe_bader_charge
 _atom_site_pbe_bader_spin_density
 _atom_site_pbe_cm5_charge
 _atom_site_pbe_ddec_charge
 _atom_site_pbe_ddec_spin_density
 _atom_site_pbe_ddec_sum_bond_order
 _atom_site_pbe_magmom
Ag  Ag0  1  0.41440187  0.13152003  0.98781931  1  0.541378  0  0.453691  0.303974  0  1.836957  0
Ag  Ag1  1  0.91440412  0.86848048  0.01218175  1  0.541361  0  0.453696  0.303962  0  1.836961  0
Ag  Ag2  1  0.41440244  0.63151809  0.01217773  1  0.541352  0  0.45369  0.303964  0  1.836993  0
Ag  Ag3  1  0.91440263  0.36848159  0.98782265  1  0.54135  0  0.45368  0.303974  0  1.836927  0
H  H4  1  0.38556620  0.36173331  0.80641657  1  0.637599  0  0.28807  0.336737  0  1.011533  0
H  H5  1  0.88555849  0.63827057  0.19358658  1  0.637606  0  0.288086  0.336788  0  1.011483  0
H  H6  1  0.38555354  0.86173764  0.19358437  1  0.637681  0  0.288112  0.336838  0  1.011404  0
H  H7  1  0.88556017  0.13826707  0.80641673  1  0.63759  0  0.288101  0.336746  0  1.011505  0
H  H8  1  0.52365876  0.54885073  0.64763957  1  0.059378  0  0.104517  0.125568  0  0.997185  0
H  H9  1  0.02365543  0.45114469  0.35235312  1  0.059194  0  0.104465  0.125458  0  0.997224  0
H  H10  1  0.52365418  0.04885936  0.35235668  1  0.059159  0  0.104523  0.125563  0  0.997076  0
H  H11  1  0.02365819  0.95114104  0.64764148  1  0.059269  0  0.104494  0.12554  0  0.99711  0
H  H12  1  0.70555939  0.17620049  0.70694017  1  0.125659  0  0.104629  0.11477  0  1.016415  0
H  H13  1  0.20556451  0.82379210  0.29305434  1  0.125804  0  0.104648  0.114768  0  1.016426  0
H  H14  1  0.70555748  0.67620598  0.29305344  1  0.125829  0  0.104641  0.114739  0  1.016421  0
H  H15  1  0.20555819  0.32379242  0.70695063  1  0.12583  0  0.104636  0.11475  0  1.016428  0
H  H16  1  0.69414424  0.59154666  0.53851129  1  0.070199  0  0.096697  0.097321  0  1.016991  0
H  H17  1  0.19413434  0.40844679  0.46148118  1  0.070549  0  0.096665  0.097353  0  1.017003  0
H  H18  1  0.69413025  0.09155822  0.46148166  1  0.070518  0  0.096681  0.097333  0  1.017008  0
H  H19  1  0.19413644  0.90844601  0.53851627  1  0.070191  0  0.096678  0.097331  0  1.016978  0
H  H20  1  0.88441223  0.53364623  0.46058457  1  0.068082  0  0.092855  0.08865  0  1.046847  0
H  H21  1  0.38440111  0.46634438  0.53941244  1  0.067899  0  0.092903  0.088664  0  1.046885  0
H  H22  1  0.88439714  0.03366285  0.53941520  1  0.067845  0  0.092862  0.088626  0  1.046815  0
H  H23  1  0.38440155  0.96634519  0.46058522  1  0.067861  0  0.092879  0.08864  0  1.046883  0
H  H24  1  0.97373682  0.34605239  0.48878232  1  0.050482  0  0.095003  0.091521  0  1.019927  0
H  H25  1  0.47372717  0.65393391  0.51121935  1  0.050597  0  0.095034  0.091578  0  1.020059  0
H  H26  1  0.97372524  0.84607204  0.51121978  1  0.050644  0  0.095035  0.091558  0  1.020027  0
H  H27  1  0.47372593  0.15393500  0.48878052  1  0.0506  0  0.09502  0.091583  0  1.020042  0
H  H28  1  0.87182219  0.21587688  0.59521342  1  0.089746  0  0.098169  0.100588  0  1.029657  0
H  H29  1  0.37182257  0.78411542  0.40478360  1  0.089894  0  0.098197  0.100693  0  1.029497  0
H  H30  1  0.87182094  0.71588948  0.40478301  1  0.089991  0  0.098154  0.100633  0  1.029538  0
H  H31  1  0.37181925  0.28411443  0.59521879  1  0.089914  0  0.098165  0.100636  0  1.029512  0
H  H32  1  0.63811704  0.29722301  0.04249934  1  0.038295  0  0.11311  0.067874  0  1.014137  0
H  H33  1  0.13811905  0.70277718  0.95750003  1  0.038339  0  0.113133  0.067902  0  1.014133  0
H  H34  1  0.63811815  0.79722464  0.95750281  1  0.038276  0  0.113118  0.067923  0  1.01408  0
H  H35  1  0.13811702  0.20277887  0.04249998  1  0.038372  0  0.113118  0.067901  0  1.014151  0
H  H36  1  0.69107672  0.21750794  0.94654123  1  0.121909  0  0.125669  0.107843  0  0.983677  0
H  H37  1  0.19107609  0.78248718  0.05345944  1  0.122101  0  0.125674  0.107871  0  0.983698  0
H  H38  1  0.69107812  0.71751478  0.05346091  1  0.122071  0  0.125675  0.107861  0  0.983693  0
H  H39  1  0.19107927  0.28248863  0.94654250  1  0.121877  0  0.125693  0.107867  0  0.983695  0
H  H40  1  0.75319021  0.29594257  0.18467272  1  0.070362  0  0.124859  0.095209  0  0.946026  0
H  H41  1  0.25318981  0.70405658  0.81532718  1  0.070377  0  0.124846  0.095197  0  0.946006  0
H  H42  1  0.75318800  0.79594005  0.81532995  1  0.0704  0  0.12486  0.095196  0  0.946015  0
H  H43  1  0.25318745  0.20405993  0.18467201  1  0.070429  0  0.124858  0.095194  0  0.945993  0
H  H44  1  0.89011302  0.21516008  0.19204634  1  0.038496  0  0.119931  0.083111  0  0.976646  0
H  H45  1  0.39011520  0.78484048  0.80795476  1  0.038497  0  0.119922  0.083059  0  0.976674  0
H  H46  1  0.89011265  0.71515747  0.80795484  1  0.038107  0  0.119947  0.083082  0  0.976672  0
H  H47  1  0.39011373  0.28484226  0.19204762  1  0.038067  0  0.119934  0.083096  0  0.976606  0
H  H48  1  0.54991134  0.05735435  0.17799447  1  0.111373  0  0.116833  0.084093  0  1.043337  0
H  H49  1  0.04991222  0.94264850  0.82200912  1  0.111354  0  0.116816  0.084064  0  1.043354  0
H  H50  1  0.54991003  0.55735356  0.82200728  1  0.111354  0  0.116825  0.084084  0  1.043325  0
H  H51  1  0.04991262  0.44265260  0.17799357  1  0.111495  0  0.116822  0.084033  0  1.043267  0
H  H52  1  0.56067522  0.20521713  0.17538634  1  0.023332  0  0.115392  0.07487  0  0.98643  0
H  H53  1  0.06067276  0.79478652  0.82461245  1  0.023299  0  0.115403  0.074865  0  0.986381  0
H  H54  1  0.56067481  0.70521554  0.82461587  1  0.023298  0  0.115406  0.074865  0  0.986435  0
H  H55  1  0.06067317  0.29478977  0.17538565  1  0.023318  0  0.115396  0.074854  0  0.986442  0
H  H56  1  0.88090170  0.01540836  0.19434832  1  0.130073  0  0.123855  0.10101  0  0.963162  0
H  H57  1  0.38089977  0.98459471  0.80565279  1  0.130124  0  0.123896  0.101032  0  0.963158  0
H  H58  1  0.88090042  0.51540489  0.80565063  1  0.130084  0  0.123866  0.101009  0  0.963156  0
H  H59  1  0.38090105  0.48459734  0.19434912  1  0.130084  0  0.123873  0.100982  0  0.963157  0
H  H60  1  0.73527351  0.94849738  0.18858493  1  0.091225  0  0.119809  0.090817  0  0.99737  0
H  H61  1  0.23527002  0.05150346  0.81141637  1  0.091282  0  0.119804  0.090783  0  0.99738  0
H  H62  1  0.73527335  0.44849394  0.81141418  1  0.091162  0  0.119784  0.090767  0  0.997405  0
H  H63  1  0.23527109  0.55150773  0.18858506  1  0.091072  0  0.119804  0.090726  0  0.997514  0
H  H64  1  0.67847938  0.02143460  0.94944419  1  0.087448  0  0.124256  0.10472  0  0.976974  0
H  H65  1  0.17847923  0.97856469  0.05055786  1  0.087391  0  0.124257  0.104693  0  0.977061  0
H  H66  1  0.67848353  0.52143975  0.05055711  1  0.087457  0  0.124235  0.10471  0  0.977041  0
H  H67  1  0.17848149  0.47856369  0.94944289  1  0.087418  0  0.124257  0.104771  0  0.976963  0
H  H68  1  0.62140132  0.95091380  0.04950989  1  0.068793  0  0.119674  0.085073  0  0.985908  0
H  H69  1  0.12139750  0.04908476  0.95049155  1  0.068816  0  0.119682  0.085076  0  0.985851  0
H  H70  1  0.62140083  0.45091696  0.95049212  1  0.068859  0  0.119695  0.085093  0  0.985883  0
H  H71  1  0.12140257  0.54908741  0.04950864  1  0.068859  0  0.11968  0.08511  0  0.985898  0
H  H72  1  0.95965435  0.11090843  0.06505751  1  0.080321  0  0.115315  0.074022  0  0.999701  0
H  H73  1  0.45965324  0.88909117  0.93494213  1  0.080183  0  0.115321  0.074063  0  0.999645  0
H  H74  1  0.95965460  0.61090979  0.93494140  1  0.080307  0  0.115316  0.074018  0  0.9997  0
H  H75  1  0.45965482  0.38909147  0.06505961  1  0.080301  0  0.115311  0.074015  0  0.999692  0
H  H76  1  0.87774352  0.11448506  0.95883028  1  0.092583  0  0.120327  0.09294  0  1.016166  0
H  H77  1  0.37774269  0.88551553  0.04117083  1  0.092562  0  0.120318  0.09293  0  1.016192  0
H  H78  1  0.87774403  0.61448761  0.04116944  1  0.092592  0  0.12035  0.092971  0  1.016144  0
H  H79  1  0.37774584  0.38551049  0.95883030  1  0.092576  0  0.120351  0.09294  0  1.016154  0
C  C80  1  0.50909605  0.21484624  0.81130005  1  1.537086  0  0.187308  0.57254  0  4.21566  0
C  C81  1  0.00909143  0.78515419  0.18869881  1  1.537476  0  0.18734  0.572529  0  4.215677  0
C  C82  1  0.50909713  0.71484470  0.18869411  1  1.537173  0  0.187411  0.572648  0  4.215604  0
C  C83  1  0.00909127  0.28514909  0.81130475  1  1.537704  0  0.187447  0.572785  0  4.215489  0
C  C84  1  0.56202192  0.28912360  0.73952760  1  -0.054771  0  -0.043035  -0.186499  0  4.018701  0
C  C85  1  0.06201913  0.71087507  0.26047392  1  -0.054645  0  -0.043061  -0.186553  0  4.01878  0
C  C86  1  0.56202008  0.78913037  0.26046844  1  -0.054593  0  -0.043176  -0.186743  0  4.018892  0
C  C87  1  0.06202371  0.21086747  0.73953445  1  -0.054939  0  -0.043281  -0.186917  0  4.018978  0
C  C88  1  0.50862910  0.39600725  0.72097487  1  0.502455  0  0.069373  0.275056  0  4.12186  0
C  C89  1  0.00862286  0.60399484  0.27902331  1  0.501933  0  0.069471  0.275145  0  4.121834  0
C  C90  1  0.50862356  0.89601008  0.27901866  1  0.502191  0  0.069545  0.275258  0  4.121847  0
C  C91  1  0.00862474  0.10398702  0.72098224  1  0.502232  0  0.069567  0.275234  0  4.121843  0
C  C92  1  0.56354410  0.46703113  0.65887644  1  0.023305  0  -0.11752  -0.287414  0  3.994131  0
C  C93  1  0.06354336  0.53296836  0.34111825  1  0.024209  0  -0.117563  -0.287368  0  3.994073  0
C  C94  1  0.56354116  0.96703718  0.34111416  1  0.023878  0  -0.117607  -0.287501  0  3.993989  0
C  C95  1  0.06354355  0.03296314  0.65888394  1  0.023712  0  -0.117588  -0.287478  0  3.993905  0
C  C96  1  0.67143082  0.43623379  0.61198589  1  -0.07973  0  -0.00729  0.102127  0  4.018144  0
C  C97  1  0.17142624  0.56376219  0.38801071  1  -0.080115  0  -0.007275  0.102267  0  4.018241  0
C  C98  1  0.67142594  0.93624288  0.38800774  1  -0.079728  0  -0.007268  0.102326  0  4.018148  0
C  C99  1  0.17142654  0.06375974  0.61199091  1  -0.080046  0  -0.007238  0.102323  0  4.018077  0
C  C100  1  0.72337458  0.32822745  0.62822835  1  -0.003979  0  -0.018235  0.04935  0  4.004144  0
C  C101  1  0.22336888  0.67176429  0.37176750  1  -0.003608  0  -0.018271  0.049196  0  4.004434  0
C  C102  1  0.72336882  0.82824133  0.37176505  1  -0.004851  0  -0.018233  0.049163  0  4.004544  0
C  C103  1  0.22337097  0.17176120  0.62823626  1  -0.00447  0  -0.018251  0.049205  0  4.004372  0
C  C104  1  0.66629744  0.25752470  0.69245266  1  -0.077458  0  -0.077257  -0.105895  0  3.952906  0
C  C105  1  0.16629722  0.74247046  0.30754326  1  -0.077726  0  -0.077293  -0.10584  0  3.95306  0
C  C106  1  0.66629824  0.75753285  0.30754094  1  -0.076752  0  -0.077261  -0.105765  0  3.952789  0
C  C107  1  0.16629916  0.24246729  0.69246181  1  -0.076648  0  -0.077199  -0.1057  0  3.952768  0
C  C108  1  0.73200748  0.50897779  0.55043380  1  -0.028614  0  -0.097786  -0.145309  0  3.984922  0
C  C109  1  0.23199285  0.49101808  0.44956409  1  -0.029195  0  -0.09781  -0.145469  0  3.985032  0
C  C110  1  0.73199077  0.00898589  0.44956324  1  -0.029275  0  -0.097857  -0.145496  0  3.985005  0
C  C111  1  0.23199309  0.99101662  0.55043396  1  -0.028857  0  -0.097844  -0.145463  0  3.984917  0
C  C112  1  0.83822546  0.47664539  0.50707318  1  -0.101598  0  -0.09585  -0.075953  0  4.03105  0
C  C113  1  0.33821248  0.52334614  0.49292457  1  -0.10133  0  -0.095851  -0.075845  0  4.031023  0
C  C114  1  0.83821026  0.97665653  0.49292533  1  -0.1012  0  -0.09586  -0.075854  0  4.031074  0
C  C115  1  0.33821212  0.02334661  0.50707378  1  -0.101316  0  -0.095844  -0.075859  0  4.030894  0
C  C116  1  0.88884648  0.37003887  0.52261908  1  0.011002  0  -0.104771  -0.104403  0  4.049112  0
C  C117  1  0.38884245  0.62995256  0.47738065  1  0.010792  0  -0.104731  -0.104425  0  4.049208  0
C  C118  1  0.88884047  0.87005398  0.47738127  1  0.010666  0  -0.104687  -0.104392  0  4.049185  0
C  C119  1  0.38884205  0.12995405  0.52261983  1  0.010801  0  -0.104717  -0.104425  0  4.049117  0
C  C120  1  0.83230485  0.29734464  0.58178442  1  -0.11465  0  -0.090826  -0.119074  0  3.980544  0
C  C121  1  0.33230354  0.70264358  0.41821470  1  -0.114635  0  -0.090865  -0.119198  0  3.980499  0
C  C122  1  0.83230081  0.79736155  0.41821201  1  -0.114623  0  -0.09084  -0.119092  0  3.980528  0
C  C123  1  0.33230300  0.20264327  0.58178574  1  -0.11464  0  -0.090835  -0.119128  0  3.980532  0
C  C124  1  0.68416479  0.22049221  0.02130844  1  0.545688  0  0.012706  -0.006569  0  3.860245  0
C  C125  1  0.18416475  0.77950541  0.97869292  1  0.545375  0  0.012635  -0.00672  0  3.860301  0
C  C126  1  0.68416494  0.72049574  0.97869373  1  0.545423  0  0.012632  -0.006738  0  3.860258  0
C  C127  1  0.18416461  0.27950851  0.02130763  1  0.545667  0  0.012618  -0.006753  0  3.860323  0
C  C128  1  0.79763513  0.21852720  0.16271766  1  0.612207  0  0.025809  0.011515  0  3.899816  0
C  C129  1  0.29763541  0.78147519  0.83728356  1  0.612194  0  0.025851  0.01157  0  3.899918  0
C  C130  1  0.79763286  0.71852577  0.83728367  1  0.612602  0  0.025826  0.011605  0  3.899857  0
C  C131  1  0.29763402  0.28147828  0.16271754  1  0.612616  0  0.02585  0.011634  0  3.899917  0
C  C132  1  0.60537919  0.12752462  0.15453690  1  0.582587  0  0.016429  -0.00447  0  3.902574  0
C  C133  1  0.10538016  0.87247646  0.84546389  1  0.582583  0  0.016427  -0.004448  0  3.902485  0
C  C134  1  0.60537781  0.62752411  0.84546397  1  0.582568  0  0.016459  -0.004351  0  3.902452  0
C  C135  1  0.10537970  0.37247697  0.15453750  1  0.582274  0  0.016456  -0.004349  0  3.902366  0
C  C136  1  0.78829931  0.02058605  0.16548061  1  0.488225  0  0.022242  0.010971  0  3.837692  0
C  C137  1  0.28829733  0.97941470  0.83452130  1  0.488144  0  0.022232  0.011057  0  3.837655  0
C  C138  1  0.78829888  0.52058458  0.83451918  1  0.488223  0  0.022302  0.011082  0  3.837664  0
C  C139  1  0.28829867  0.47941783  0.16548000  1  0.488297  0  0.022328  0.011272  0  3.837652  0
C  C140  1  0.67396485  0.02232951  0.02441421  1  0.543007  0  0.015892  -0.008391  0  3.861949  0
C  C141  1  0.17396529  0.97766813  0.97558921  1  0.543169  0  0.015888  -0.00837  0  3.862046  0
C  C142  1  0.67396775  0.52233218  0.97558847  1  0.543014  0  0.015889  -0.008442  0  3.862026  0
C  C143  1  0.17396788  0.47767127  0.02441222  1  0.543042  0  0.015889  -0.008501  0  3.862025  0
C  C144  1  0.86856876  0.11484144  0.03334822  1  0.505816  0  0.009601  -0.014211  0  3.890326  0
C  C145  1  0.36856760  0.88515915  0.96665290  1  0.50606  0  0.009535  -0.014379  0  3.890398  0
C  C146  1  0.86856985  0.61484235  0.96665152  1  0.505819  0  0.00958  -0.014238  0  3.890334  0
C  C147  1  0.36856925  0.38515742  0.03334892  1  0.50585  0  0.009536  -0.014267  0  3.890423  0
N  N148  1  0.61005694  0.12504799  0.05286656  1  -1.003119  0  -0.356508  -0.158614  0  3.475764  0
N  N149  1  0.11005676  0.87495143  0.94713490  1  -1.003087  0  -0.356485  -0.158496  0  3.475632  0
N  N150  1  0.61005716  0.62504949  0.94713564  1  -1.003085  0  -0.356477  -0.158555  0  3.475715  0
N  N151  1  0.11005653  0.37495407  0.05286650  1  -1.003127  0  -0.356511  -0.15852  0  3.475599  0
N  N152  1  0.80859884  0.21936633  0.06131093  1  -0.995518  0  -0.356081  -0.169619  0  3.469273  0
N  N153  1  0.30859981  0.78063355  0.93868959  1  -0.995532  0  -0.356036  -0.169499  0  3.469227  0
N  N154  1  0.80859908  0.71936608  0.93868971  1  -0.995455  0  -0.356069  -0.169562  0  3.469191  0
N  N155  1  0.30859957  0.28063546  0.06131218  1  -0.995476  0  -0.356005  -0.169514  0  3.469222  0
N  N156  1  0.79882731  0.01623578  0.06348929  1  -0.956457  0  -0.357771  -0.160121  0  3.480636  0
N  N157  1  0.29882416  0.98376578  0.93651261  1  -0.956596  0  -0.357752  -0.160109  0  3.480767  0
N  N158  1  0.79882755  0.51623550  0.93651113  1  -0.956467  0  -0.357771  -0.16015  0  3.480691  0
N  N159  1  0.29882757  0.48376605  0.06348803  1  -0.956507  0  -0.357786  -0.16018  0  3.480701  0
N  N160  1  0.72763645  0.12300913  0.19466229  1  -0.993316  0  -0.343938  -0.188082  0  3.411512  0
N  N161  1  0.22763751  0.87699090  0.80533901  1  -0.993307  0  -0.343976  -0.188157  0  3.411566  0
N  N162  1  0.72763608  0.62300566  0.80533906  1  -0.993275  0  -0.344055  -0.188267  0  3.411628  0
N  N163  1  0.22763787  0.37699520  0.19466225  1  -0.993175  0  -0.344069  -0.188324  0  3.411819  0
O  O164  1  0.40989361  0.25085533  0.85132127  1  -1.179427  0  -0.345844  -0.563913  0  2.260466  0
O  O165  1  0.90988941  0.74914520  0.14868049  1  -1.179474  0  -0.345902  -0.563926  0  2.260554  0
O  O166  1  0.40989203  0.75085415  0.14867877  1  -1.179493  0  -0.345862  -0.563915  0  2.260443  0
O  O167  1  0.90988641  0.24914222  0.85132230  1  -1.179609  0  -0.345878  -0.563968  0  2.260352  0
O  O168  1  0.56107365  0.12561185  0.83312329  1  -1.183989  0  -0.345309  -0.563529  0  2.126497  0
O  O169  1  0.06107254  0.87438599  0.16687209  1  -1.184337  0  -0.345281  -0.563499  0  2.126507  0
O  O170  1  0.56107478  0.62561421  0.16687011  1  -1.184051  0  -0.34531  -0.563536  0  2.126489  0
O  O171  1  0.06106592  0.37438529  0.83313005  1  -1.184262  0  -0.345379  -0.563618  0  2.126504  0
O  O172  1  0.40611296  0.42937687  0.76579212  1  -1.175505  0  -0.373984  -0.480191  0  2.288825  0
O  O173  1  0.90610530  0.57062698  0.23421032  1  -1.175591  0  -0.374002  -0.480243  0  2.288745  0
O  O174  1  0.40610660  0.92937918  0.23420659  1  -1.17569  0  -0.374085  -0.480351  0  2.288751  0
O  O175  1  0.90611074  0.07062052  0.76579449  1  -1.175569  0  -0.374027  -0.480177  0  2.288882  0
