# generated using pymatgen
data_CuH8C10S2N2Cl
_symmetry_space_group_name_H-M   'P 1'
_cell_length_a   7.84365552
_cell_length_b   10.14596052
_cell_length_c   14.78438323
_cell_angle_alpha   90.00027706
_cell_angle_beta   89.99926932
_cell_angle_gamma   111.18620791
_symmetry_Int_Tables_number   1
_chemical_formula_structural   CuH8C10S2N2Cl
_chemical_formula_sum   'Cu4 H32 C40 S8 N8 Cl4'
_cell_volume   1097.03933028
_cell_formula_units_Z   4
loop_
 _symmetry_equiv_pos_site_id
 _symmetry_equiv_pos_as_xyz
  1  'x, y, z'
loop_
 _atom_site_type_symbol
 _atom_site_label
 _atom_site_symmetry_multiplicity
 _atom_site_fract_x
 _atom_site_fract_y
 _atom_site_fract_z
 _atom_site_occupancy
 _atom_site_hle17_bader_spin_density
 _atom_site_hle17_ddec_charge
 _atom_site_hle17_ddec_spin_density
 _atom_site_hle17_ddec_sum_bond_order
 _atom_site_hle17_magmom
 _atom_site_hse06_10hf_bader_spin_density
 _atom_site_hse06_10hf_ddec_charge
 _atom_site_hse06_10hf_ddec_spin_density
 _atom_site_hse06_10hf_ddec_sum_bond_order
 _atom_site_hse06_10hf_magmom
 _atom_site_hse06_bader_spin_density
 _atom_site_hse06_ddec_charge
 _atom_site_hse06_ddec_spin_density
 _atom_site_hse06_ddec_sum_bond_order
 _atom_site_hse06_magmom
 _atom_site_pbe_bader_spin_density
 _atom_site_pbe_cm5_charge
 _atom_site_pbe_ddec_charge
 _atom_site_pbe_ddec_spin_density
 _atom_site_pbe_ddec_sum_bond_order
 _atom_site_pbe_magmom
Cu  Cu0  1  0.52692104  0.64569962  0.54102351  1  0  0.436143  0  1.99534  0  0  0.342458  0  2.464705  0  0  0.334624  0  2.424123  0  0  0.43007  0.352193  0  2.488535  0
Cu  Cu1  1  0.02692748  0.14571235  0.95897015  1  0  0.436155  0  1.995448  0  0  0.342523  0  2.46483  0  0  0.334696  0  2.424269  0  0  0.430085  0.352264  0  2.488639  0
Cu  Cu2  1  0.47307488  0.35428784  0.45897583  1  0  0.436149  0  1.995353  0  0  0.342501  0  2.464721  0  0  0.334654  0  2.424126  0  0  0.430077  0.352246  0  2.488528  0
Cu  Cu3  1  0.97308655  0.85430466  0.04103122  1  0  0.436222  0  1.995621  0  0  0.342478  0  2.464989  0  0  0.334635  0  2.424399  0  0  0.430126  0.352233  0  2.488797  0
H  H4  1  0.96993141  0.98534112  0.32002719  1  0  0.103512  0  0.983777  0  0  0.107096  0  1.056175  0  0  0.11  0  1.0562  0  0  0.094928  0.10502  0  1.056325  0
H  H5  1  0.46994274  0.48532396  0.17998031  1  0  0.10355  0  0.98365  0  0  0.107136  0  1.056056  0  0  0.110043  0  1.056077  0  0  0.094926  0.105075  0  1.056188  0
H  H6  1  0.03006963  0.01466222  0.67997418  1  0  0.103522  0  0.983883  0  0  0.107144  0  1.056242  0  0  0.110048  0  1.056267  0  0  0.094948  0.10506  0  1.056403  0
H  H7  1  0.53006992  0.51466650  0.82002850  1  0  0.103604  0  0.98361  0  0  0.107129  0  1.056061  0  0  0.110035  0  1.056083  0  0  0.094938  0.105062  0  1.056199  0
H  H8  1  0.99583698  0.20343306  0.40706563  1  0  0.09544  0  0.966167  0  0  0.103127  0  1.033115  0  0  0.105794  0  1.03139  0  0  0.098621  0.101188  0  1.034029  0
H  H9  1  0.49585002  0.70341165  0.09295024  1  0  0.095422  0  0.96618  0  0  0.103133  0  1.033117  0  0  0.105798  0  1.031395  0  0  0.098652  0.101207  0  1.034015  0
H  H10  1  0.00415568  0.79656613  0.59293777  1  0  0.095436  0  0.966222  0  0  0.103128  0  1.033172  0  0  0.105793  0  1.031452  0  0  0.098622  0.101205  0  1.034074  0
H  H11  1  0.50417459  0.29658506  0.90706534  1  0  0.095486  0  0.966175  0  0  0.103171  0  1.033115  0  0  0.105838  0  1.031387  0  0  0.098668  0.101207  0  1.034051  0
H  H12  1  0.78502996  0.18172642  0.53859024  1  0  0.107376  0  0.961071  0  0  0.119419  0  1.020114  0  0  0.12257  0  1.019024  0  0  0.105016  0.116388  0  1.022206  0
H  H13  1  0.28505782  0.68172727  0.96143017  1  0  0.107098  0  0.961484  0  0  0.11921  0  1.020465  0  0  0.122344  0  1.019421  0  0  0.104967  0.116193  0  1.022537  0
H  H14  1  0.21494998  0.81826228  0.46141181  1  0  0.107321  0  0.961099  0  0  0.119355  0  1.020149  0  0  0.122504  0  1.019067  0  0  0.105009  0.116337  0  1.022224  0
H  H15  1  0.71498006  0.31829160  0.03858743  1  0  0.107318  0  0.961291  0  0  0.11935  0  1.02033  0  0  0.122492  0  1.019261  0  0  0.105021  0.116334  0  1.0224  0
H  H16  1  0.58467698  0.94080113  0.58933965  1  0  0.073017  0  0.951951  0  0  0.080158  0  1.019245  0  0  0.082304  0  1.018111  0  0  0.107895  0.078498  0  1.020307  0
H  H17  1  0.08469186  0.44079994  0.91066474  1  0  0.072994  0  0.952011  0  0  0.080175  0  1.019259  0  0  0.082323  0  1.01812  0  0  0.107888  0.07851  0  1.020334  0
H  H18  1  0.41531386  0.05918638  0.41065766  1  0  0.072987  0  0.95189  0  0  0.080141  0  1.019206  0  0  0.082281  0  1.018079  0  0  0.107871  0.078493  0  1.020224  0
H  H19  1  0.91533054  0.55921591  0.08933799  1  0  0.073061  0  0.952022  0  0  0.080183  0  1.019335  0  0  0.082326  0  1.018202  0  0  0.107952  0.078537  0  1.020357  0
H  H20  1  0.06945304  0.67700212  0.35011153  1  0  0.105241  0  0.983954  0  0  0.111888  0  1.051482  0  0  0.114993  0  1.051238  0  0  0.098232  0.109387  0  1.052313  0
H  H21  1  0.56944335  0.17699154  0.14987946  1  0  0.105093  0  0.983856  0  0  0.111784  0  1.051407  0  0  0.114881  0  1.051172  0  0  0.098175  0.109274  0  1.052265  0
H  H22  1  0.93054851  0.32300228  0.64987902  1  0  0.105092  0  0.9839  0  0  0.11181  0  1.051411  0  0  0.114882  0  1.051226  0  0  0.098193  0.109323  0  1.052228  0
H  H23  1  0.43053810  0.82299502  0.85011447  1  0  0.105168  0  0.984069  0  0  0.111848  0  1.05159  0  0  0.114927  0  1.051392  0  0  0.098184  0.109375  0  1.05239  0
H  H24  1  0.40928082  0.75474538  0.33912322  1  0  0.093221  0  0.979309  0  0  0.097439  0  1.051657  0  0  0.100513  0  1.049171  0  0  0.093421  0.094981  0  1.053696  0
H  H25  1  0.90927288  0.25472841  0.16086771  1  0  0.093119  0  0.97931  0  0  0.097399  0  1.05161  0  0  0.100474  0  1.04912  0  0  0.093367  0.094939  0  1.053655  0
H  H26  1  0.59072431  0.24526641  0.66087274  1  0  0.093147  0  0.979361  0  0  0.097406  0  1.051669  0  0  0.100478  0  1.049178  0  0  0.093391  0.09495  0  1.053708  0
H  H27  1  0.09070170  0.74525185  0.83912757  1  0  0.093203  0  0.979201  0  0  0.097443  0  1.051544  0  0  0.100524  0  1.04906  0  0  0.093386  0.094988  0  1.053587  0
H  H28  1  0.56789168  0.90444433  0.20369015  1  0  0.107568  0  0.978403  0  0  0.113898  0  1.045215  0  0  0.116554  0  1.045984  0  0  0.092315  0.111928  0  1.044866  0
H  H29  1  0.06788256  0.40443275  0.29630498  1  0  0.107557  0  0.978385  0  0  0.113879  0  1.045194  0  0  0.116538  0  1.045966  0  0  0.092315  0.111912  0  1.044839  0
H  H30  1  0.43211629  0.09558125  0.79630987  1  0  0.107556  0  0.978299  0  0  0.113892  0  1.045103  0  0  0.116551  0  1.045866  0  0  0.092353  0.111929  0  1.044738  0
H  H31  1  0.93210802  0.59555158  0.70368895  1  0  0.107553  0  0.978418  0  0  0.113884  0  1.045227  0  0  0.11654  0  1.045994  0  0  0.092322  0.111921  0  1.044874  0
H  H32  1  0.37259600  0.94284734  0.08055419  1  0  0.082411  0  0.967045  0  0  0.087134  0  1.037667  0  0  0.090412  0  1.035108  0  0  0.099004  0.084682  0  1.039462  0
H  H33  1  0.87258889  0.44283681  0.41944167  1  0  0.082519  0  0.966797  0  0  0.087135  0  1.037479  0  0  0.090418  0  1.03492  0  0  0.098983  0.084679  0  1.039283  0
H  H34  1  0.62740463  0.05718150  0.91944447  1  0  0.082527  0  0.966759  0  0  0.087137  0  1.037419  0  0  0.090425  0  1.03485  0  0  0.098989  0.084686  0  1.039216  0
H  H35  1  0.12740424  0.55715280  0.58055091  1  0  0.082348  0  0.966668  0  0  0.087031  0  1.037379  0  0  0.090308  0  1.034826  0  0  0.098956  0.084583  0  1.039176  0
C  C36  1  0.76341604  0.84927177  0.40993268  1  0  0.186521  0  3.756175  0  0  0.19214  0  4.01188  0  0  0.199595  0  4.03031  0  0  0.107433  0.186944  0  4.000228  0
C  C37  1  0.26342341  0.34926313  0.09007445  1  0  0.186524  0  3.756001  0  0  0.192221  0  4.011604  0  0  0.199659  0  4.030057  0  0  0.107444  0.187033  0  3.999944  0
C  C38  1  0.23658017  0.15072950  0.59006666  1  0  0.186522  0  3.7561  0  0  0.192085  0  4.011915  0  0  0.199539  0  4.030342  0  0  0.107412  0.186898  0  4.00025  0
C  C39  1  0.73658473  0.65073907  0.90993234  1  0  0.186484  0  3.755922  0  0  0.192015  0  4.011676  0  0  0.199467  0  4.030101  0  0  0.107338  0.186822  0  4.000021  0
C  C40  1  0.88550047  0.97956741  0.37937050  1  0  -0.158824  0  3.742781  0  0  -0.172537  0  3.984618  0  0  -0.18133  0  4.008568  0  0  -0.094408  -0.167992  0  3.969775  0
C  C41  1  0.38550758  0.47954390  0.12062945  1  0  -0.158989  0  3.74296  0  0  -0.172721  0  3.984824  0  0  -0.18151  0  4.008775  0  0  -0.094466  -0.168195  0  3.969976  0
C  C42  1  0.11449045  0.02044136  0.62063358  1  0  -0.158761  0  3.742601  0  0  -0.172508  0  3.984457  0  0  -0.1813  0  4.008405  0  0  -0.094412  -0.167964  0  3.969632  0
C  C43  1  0.61450967  0.52045076  0.87937530  1  0  -0.158847  0  3.742683  0  0  -0.172471  0  3.984535  0  0  -0.181265  0  4.008485  0  0  -0.09439  -0.167938  0  3.969677  0
C  C44  1  0.89774930  0.10069459  0.42703281  1  0  0.013616  0  3.707246  0  0  -0.003553  0  3.952057  0  0  0.00199  0  3.96932  0  0  -0.071017  -0.00739  0  3.940532  0
C  C45  1  0.39776765  0.60068056  0.07297866  1  0  0.013712  0  3.707018  0  0  -0.003488  0  3.951872  0  0  0.002049  0  3.969143  0  0  -0.071003  -0.007335  0  3.940344  0
C  C46  1  0.10224031  0.89930356  0.57296924  1  0  0.013504  0  3.706841  0  0  -0.00366  0  3.951664  0  0  0.001885  0  3.968925  0  0  -0.071015  -0.007515  0  3.940143  0
C  C47  1  0.60225469  0.39931936  0.92703083  1  0  0.013669  0  3.707076  0  0  -0.003524  0  3.951858  0  0  0.002022  0  3.969114  0  0  -0.07101  -0.007343  0  3.940344  0
C  C48  1  0.78443274  0.08877954  0.50183847  1  0  -0.125097  0  3.728363  0  0  -0.140638  0  3.980335  0  0  -0.147068  0  4.000216  0  0  -0.093184  -0.135775  0  3.967271  0
C  C49  1  0.28444806  0.58877736  0.99817217  1  0  -0.124747  0  3.728309  0  0  -0.140356  0  3.980351  0  0  -0.146788  0  4.000213  0  0  -0.093084  -0.135506  0  3.967284  0
C  C50  1  0.21555763  0.91121754  0.49816155  1  0  -0.124902  0  3.728226  0  0  -0.140433  0  3.980217  0  0  -0.146863  0  4.000098  0  0  -0.093143  -0.135579  0  3.967147  0
C  C51  1  0.71557532  0.41122999  0.00183935  1  0  -0.125165  0  3.728423  0  0  -0.140673  0  3.980409  0  0  -0.147103  0  4.000289  0  0  -0.093195  -0.135819  0  3.967325  0
C  C52  1  0.67136038  0.95524746  0.52973053  1  0  0.12193  0  3.71837  0  0  0.092883  0  3.976196  0  0  0.099335  0  3.992268  0  0  0.033799  0.088541  0  3.965162  0
C  C53  1  0.17136679  0.45525276  0.97027331  1  0  0.121996  0  3.718214  0  0  0.092905  0  3.976084  0  0  0.099365  0  3.992145  0  0  0.033816  0.088559  0  3.965053  0
C  C54  1  0.32862870  0.04474433  0.47027084  1  0  0.12184  0  3.71848  0  0  0.092764  0  3.97634  0  0  0.099219  0  3.992408  0  0  0.033737  0.088429  0  3.965302  0
C  C55  1  0.82865053  0.54476316  0.02973415  1  0  0.122138  0  3.718447  0  0  0.093044  0  3.97623  0  0  0.099497  0  3.992292  0  0  0.033797  0.088705  0  3.965204  0
C  C56  1  0.04722221  0.77570998  0.22383122  1  0  0.184296  0  3.777336  0  0  0.187813  0  4.039038  0  0  0.195422  0  4.057129  0  0  0.10391  0.182845  0  4.026761  0
C  C57  1  0.54720728  0.27569736  0.27616430  1  0  0.184057  0  3.777684  0  0  0.18776  0  4.039197  0  0  0.195369  0  4.057287  0  0  0.103893  0.182797  0  4.026908  0
C  C58  1  0.95278724  0.22430284  0.77616271  1  0  0.184017  0  3.777853  0  0  0.187767  0  4.039309  0  0  0.19538  0  4.057394  0  0  0.1039  0.182798  0  4.027037  0
C  C59  1  0.45277162  0.72428391  0.72383098  1  0  0.184128  0  3.776812  0  0  0.187754  0  4.038367  0  0  0.195369  0  4.056447  0  0  0.103883  0.18279  0  4.026097  0
C  C60  1  0.14297101  0.73923006  0.29286922  1  0  -0.166026  0  3.758905  0  0  -0.181962  0  4.002639  0  0  -0.190551  0  4.025761  0  0  -0.096421  -0.176266  0  3.987053  0
C  C61  1  0.64296404  0.23921734  0.20712620  1  0  -0.165788  0  3.758757  0  0  -0.181849  0  4.00248  0  0  -0.190425  0  4.025608  0  0  -0.096403  -0.176156  0  3.986876  0
C  C62  1  0.85703232  0.26077538  0.70712877  1  0  -0.165811  0  3.759091  0  0  -0.181871  0  4.002781  0  0  -0.190448  0  4.025908  0  0  -0.096426  -0.176184  0  3.98719  0
C  C63  1  0.35700371  0.76076724  0.79287855  1  0  -0.165828  0  3.758855  0  0  -0.181857  0  4.002601  0  0  -0.190431  0  4.025727  0  0  -0.096287  -0.176182  0  3.986995  0
C  C64  1  0.33251245  0.78450691  0.28655252  1  0  0.004561  0  3.706176  0  0  -0.010933  0  3.951193  0  0  -0.005134  0  3.967083  0  0  -0.075253  -0.014157  0  3.939768  0
C  C65  1  0.83249872  0.28449108  0.21344107  1  0  0.004579  0  3.705875  0  0  -0.01096  0  3.950917  0  0  -0.005159  0  3.966803  0  0  -0.075209  -0.014178  0  3.93949  0
C  C66  1  0.66750258  0.21550690  0.71344074  1  0  0.004557  0  3.706017  0  0  -0.010975  0  3.951109  0  0  -0.005169  0  3.966988  0  0  -0.075231  -0.014201  0  3.939691  0
C  C67  1  0.16748906  0.71549010  0.78655489  1  0  0.004437  0  3.706277  0  0  -0.011075  0  3.95132  0  0  -0.005284  0  3.967212  0  0  -0.075318  -0.014294  0  3.939903  0
C  C68  1  0.41966368  0.86435745  0.21156782  1  0  -0.13494  0  3.735236  0  0  -0.146616  0  3.98433  0  0  -0.153902  0  4.004963  0  0  -0.097903  -0.142185  0  3.97003  0
C  C69  1  0.91965556  0.36434370  0.28842746  1  0  -0.134849  0  3.73487  0  0  -0.146528  0  3.983892  0  0  -0.15382  0  4.004536  0  0  -0.097899  -0.142101  0  3.969595  0
C  C70  1  0.58034274  0.13565965  0.78843287  1  0  -0.134788  0  3.734695  0  0  -0.146489  0  3.983745  0  0  -0.153776  0  4.004382  0  0  -0.097908  -0.14206  0  3.969442  0
C  C71  1  0.08033146  0.63563855  0.71156512  1  0  -0.134828  0  3.735137  0  0  -0.146505  0  3.984209  0  0  -0.153789  0  4.004843  0  0  -0.097813  -0.142085  0  3.969923  0
C  C72  1  0.31296024  0.88778415  0.14287209  1  0  0.126626  0  3.690013  0  0  0.097789  0  3.943314  0  0  0.104769  0  3.957691  0  0  0.032652  0.093273  0  3.933099  0
C  C73  1  0.81294545  0.38777050  0.35712197  1  0  0.126445  0  3.690225  0  0  0.097808  0  3.94345  0  0  0.104779  0  3.957846  0  0  0.032671  0.093297  0  3.933236  0
C  C74  1  0.68704873  0.11223823  0.85712657  1  0  0.126434  0  3.689925  0  0  0.097837  0  3.943213  0  0  0.104809  0  3.957604  0  0  0.032682  0.093321  0  3.932999  0
C  C75  1  0.18705607  0.61222327  0.64288008  1  0  0.126677  0  3.690512  0  0  0.097878  0  3.943786  0  0  0.104849  0  3.958177  0  0  0.032672  0.093365  0  3.933579  0
S  S76  1  0.72848410  0.68450713  0.35719377  1  0  0.01425  0  2.535995  0  0  0.006528  0  2.920416  0  0  0.012551  0  2.911249  0  0  0.046329  0.001291  0  2.926159  0
S  S77  1  0.22847247  0.18449341  0.14280832  1  0  0.014259  0  2.53612  0  0  0.006503  0  2.920549  0  0  0.012535  0  2.911386  0  0  0.046339  0.001267  0  2.926289  0
S  S78  1  0.27151770  0.31549514  0.64280151  1  0  0.014226  0  2.536154  0  0  0.006525  0  2.920625  0  0  0.012557  0  2.911454  0  0  0.046339  0.001281  0  2.92637  0
S  S79  1  0.77151385  0.81550584  0.85719441  1  0  0.014355  0  2.536048  0  0  0.006629  0  2.920526  0  0  0.012661  0  2.911358  0  0  0.046399  0.001393  0  2.926271  0
S  S80  1  0.80853938  0.74076314  0.22474302  1  0  -0.019069  0  2.477947  0  0  -0.023495  0  2.861697  0  0  -0.018984  0  2.852908  0  0  0.035533  -0.026846  0  2.867095  0
S  S81  1  0.30852770  0.24075052  0.27525600  1  0  -0.018857  0  2.477994  0  0  -0.023335  0  2.861704  0  0  -0.01883  0  2.852923  0  0  0.035599  -0.02669  0  2.867099  0
S  S82  1  0.19146447  0.25924336  0.77525362  1  0  -0.018941  0  2.47811  0  0  -0.023442  0  2.86182  0  0  -0.018935  0  2.853035  0  0  0.035551  -0.026788  0  2.867211  0
S  S83  1  0.69146114  0.75924340  0.72474673  1  0  -0.019038  0  2.477965  0  0  -0.023504  0  2.861718  0  0  -0.019003  0  2.852935  0  0  0.035518  -0.026854  0  2.86712  0
N  N84  1  0.66143425  0.83576605  0.48571838  1  0  -0.336995  0  3.361931  0  0  -0.273081  0  3.658843  0  0  -0.281851  0  3.662904  0  0  -0.363716  -0.267043  0  3.655275  0
N  N85  1  0.16143073  0.33576282  0.01428670  1  0  -0.337098  0  3.361489  0  0  -0.273189  0  3.658395  0  0  -0.281959  0  3.662474  0  0  -0.363771  -0.26715  0  3.654818  0
N  N86  1  0.33855864  0.16422569  0.51428096  1  0  -0.336951  0  3.361816  0  0  -0.273009  0  3.658743  0  0  -0.281779  0  3.662805  0  0  -0.363674  -0.266968  0  3.655154  0
N  N87  1  0.83857109  0.66424476  0.98571873  1  0  -0.337346  0  3.361912  0  0  -0.273269  0  3.658673  0  0  -0.282041  0  3.662744  0  0  -0.363778  -0.267234  0  3.655099  0
N  N88  1  0.12857706  0.84361384  0.14784276  1  0  -0.332398  0  3.352762  0  0  -0.265715  0  3.640932  0  0  -0.274564  0  3.646038  0  0  -0.363364  -0.260296  0  3.636616  0
N  N89  1  0.62856672  0.34360651  0.35215175  1  0  -0.332295  0  3.353109  0  0  -0.265793  0  3.641296  0  0  -0.274642  0  3.646406  0  0  -0.363319  -0.260374  0  3.636972  0
N  N90  1  0.87143036  0.15640006  0.85215387  1  0  -0.33224  0  3.352848  0  0  -0.265797  0  3.641075  0  0  -0.274655  0  3.646206  0  0  -0.363338  -0.260373  0  3.636759  0
N  N91  1  0.37141016  0.65637584  0.64784218  1  0  -0.332357  0  3.353317  0  0  -0.265724  0  3.641485  0  0  -0.274576  0  3.646604  0  0  -0.363357  -0.260299  0  3.637161  0
Cl  Cl92  1  0.71161205  0.50888162  0.55638886  1  0  -0.582418  0  1.216405  0  0  -0.521273  0  1.55554  0  0  -0.538048  0  1.52897  0  0  -0.323953  -0.509268  0  1.573038  0
Cl  Cl93  1  0.21161427  0.00889015  0.94360848  1  0  -0.582428  0  1.21646  0  0  -0.521286  0  1.555567  0  0  -0.538073  0  1.529014  0  0  -0.323953  -0.509284  0  1.57305  0
Cl  Cl94  1  0.28838794  0.49110898  0.44359830  1  0  -0.582443  0  1.21639  0  0  -0.521297  0  1.55549  0  0  -0.538073  0  1.528926  0  0  -0.323953  -0.50929  0  1.572979  0
Cl  Cl95  1  0.78838524  0.99111002  0.05638545  1  0  -0.582431  0  1.21644  0  0  -0.521279  0  1.555554  0  0  -0.53806  0  1.528983  0  0  -0.323941  -0.509277  0  1.573049  0
