# generated using pymatgen
data_Co3H44C64(NO9)2
_symmetry_space_group_name_H-M   'P 1'
_cell_length_a   10.65600999
_cell_length_b   12.37308199
_cell_length_c   12.57219428
_cell_angle_alpha   75.37576760
_cell_angle_beta   73.32124543
_cell_angle_gamma   87.69565289
_symmetry_Int_Tables_number   1
_chemical_formula_structural   Co3H44C64(NO9)2
_chemical_formula_sum   'Co3 H44 C64 N2 O18'
_cell_volume   1535.50331214
_cell_formula_units_Z   1
loop_
 _symmetry_equiv_pos_site_id
 _symmetry_equiv_pos_as_xyz
  1  'x, y, z'
loop_
 _atom_site_type_symbol
 _atom_site_label
 _atom_site_symmetry_multiplicity
 _atom_site_fract_x
 _atom_site_fract_y
 _atom_site_fract_z
 _atom_site_occupancy
 _atom_site_pbe_bader_charge
 _atom_site_pbe_bader_spin_density
 _atom_site_pbe_cm5_charge
 _atom_site_pbe_ddec_charge
 _atom_site_pbe_ddec_spin_density
 _atom_site_pbe_ddec_sum_bond_order
 _atom_site_pbe_magmom
Co  Co0  1  0.99999975  0.00000076  0.99999993  1  1.407138  2.662828  0.692801  1.133565  2.903363  2.357758  2.651
Co  Co1  1  0.74247104  0.89521059  0.24416914  1  1.256385  2.553723  0.682922  0.899125  2.756072  2.501203  2.508
Co  Co2  1  0.25752829  0.10478986  0.75583032  1  1.256379  2.553717  0.682903  0.899081  2.756067  2.501229  2.508
H  H3  1  0.43474705  0.12325494  0.13968433  1  0.116395  0.000459  0.099034  0.104308  0.000215  1.052586  0.0
H  H4  1  0.56525235  0.87674718  0.86031390  1  0.116365  0.000459  0.099041  0.104301  0.000215  1.052533  0.0
H  H5  1  0.34679353  0.27438484  0.01028736  1  0.10756  5.9e-05  0.097808  0.097146  -2e-06  1.036145  0.0
H  H6  1  0.65320587  0.72561728  0.98971087  1  0.109939  5.9e-05  0.097862  0.097223  -2e-06  1.036144  0.0
H  H7  1  0.49171903  0.37360893  0.81967766  1  0.087495  -0.000131  0.103439  0.112238  -0.00016  1.015985  0.0
H  H8  1  0.50828240  0.62639486  0.18032124  1  0.087537  -0.000131  0.103421  0.112234  -0.00016  1.01601  0.0
H  H9  1  0.81385623  0.17196988  0.89024422  1  0.135075  0.000197  0.110562  0.135735  -9.9e-05  1.058202  0.0
H  H10  1  0.18614415  0.82803223  0.10975536  1  0.135074  0.000197  0.110562  0.135729  -9.9e-05  1.058215  0.0
H  H11  1  0.90163850  0.24513271  0.69680474  1  0.064934  0.000126  0.105968  0.082567  3.8e-05  1.006735  0.0
H  H12  1  0.09836083  0.75486774  0.30319710  1  0.064925  0.000126  0.105961  0.082576  3.8e-05  1.006745  0.0
H  H13  1  0.90786982  0.34276112  0.77682678  1  0.08828  -4e-05  0.111605  0.089703  -8.1e-05  0.989227  0.0
H  H14  1  0.09213158  0.65724183  0.22317235  1  0.08819  -4e-05  0.111612  0.089733  -8.1e-05  0.989233  0.0
H  H15  1  0.23836804  0.94046685  0.22154957  1  0.091645  0.000122  0.101037  0.107714  -1.4e-05  1.03756  0.0
H  H16  1  0.76162733  0.05953277  0.77845105  1  0.091643  0.000122  0.101029  0.107664  -1.4e-05  1.037583  0.0
H  H17  1  0.38299925  0.00561918  0.31994833  1  0.086835  0.000396  0.101009  0.106754  9.1e-05  1.025382  0.0
H  H18  1  0.61699895  0.99437792  0.68005064  1  0.086797  0.000396  0.101014  0.106713  9.1e-05  1.025408  0.0
H  H19  1  0.29594806  0.13285255  0.44802774  1  0.087719  4.1e-05  0.107166  0.121912  -8.1e-05  1.002392  0.0
H  H20  1  0.70405206  0.86714371  0.55197415  1  0.087864  4.1e-05  0.10715  0.121857  -8.1e-05  1.002471  0.0
H  H21  1  0.91658768  0.11286845  0.39319717  1  0.093195  0.000466  0.108938  0.127008  0.000158  1.009232  0.0
H  H22  1  0.08341165  0.88713200  0.60680467  1  0.093197  0.000466  0.108939  0.127018  0.000158  1.009188  0.0
H  H23  1  0.86619342  0.23469653  0.54480527  1  0.073191  5e-06  0.102672  0.075634  -8e-06  0.998494  0.0
H  H24  1  0.13380685  0.76530308  0.45519576  1  0.073197  5e-06  0.102671  0.075618  -8e-06  0.99851  0.0
H  H25  1  0.94064392  0.28414976  0.39472473  1  0.079428  -7e-06  0.110571  0.085506  -1.8e-05  1.002368  0.0
H  H26  1  0.05935722  0.71584734  0.60527591  1  0.079432  -7e-06  0.110536  0.085459  -1.8e-05  1.002329  0.0
H  H27  1  0.74034535  0.58100672  0.20791801  1  0.10661  0.000184  0.099162  0.100112  -5.7e-05  1.020749  0.0
H  H28  1  0.25965488  0.41899206  0.79208244  1  0.106608  0.000184  0.099161  0.100111  -5.7e-05  1.020746  0.0
H  H29  1  0.70952674  0.40362794  0.15497402  1  0.077212  0.000205  0.104253  0.103279  9e-05  0.982048  0.0
H  H30  1  0.29047448  0.59637083  0.84502618  1  0.077201  0.000205  0.104255  0.10329  9e-05  0.982017  0.0
H  H31  1  0.81583891  0.38619953  0.95682557  1  0.074079  -7.1e-05  0.103195  0.113585  -0.000101  1.021119  0.0
H  H32  1  0.18416227  0.61379841  0.04317485  1  0.074096  -7.1e-05  0.103204  0.113613  -0.000101  1.021145  0.0
H  H33  1  0.98283701  0.72065699  0.86448958  1  0.106106  0.000316  0.109366  0.131028  0.000111  0.997  0.0
H  H34  1  0.01716323  0.27934179  0.13551007  1  0.106097  0.000316  0.109357  0.131014  0.000111  0.997016  0.0
H  H35  1  0.85701552  0.64807259  0.69967979  1  0.058219  -4e-06  0.101213  0.072296  -1.9e-05  1.010013  0.0
H  H36  1  0.14298573  0.35192701  0.30031861  1  0.058206  -4e-06  0.101205  0.072295  -1.9e-05  1.009985  0.0
H  H37  1  0.79256222  0.50945546  0.76110597  1  0.05979  -1.2e-05  0.103997  0.075975  -9e-06  1.011503  0.0
H  H38  1  0.20743809  0.49054498  0.23889246  1  0.059802  -1.2e-05  0.103975  0.075916  -9e-06  1.011536  0.0
H  H39  1  0.46386648  0.82020157  0.33962593  1  0.084524  0.001707  0.122584  0.094472  0.000416  0.998384  0.001
H  H40  1  0.53613379  0.17979804  0.66037350  1  0.08473  0.001706  0.122569  0.094436  0.000416  0.998419  0.001
H  H41  1  0.35926897  0.63268931  0.42403209  1  0.118019  0.000738  0.105757  0.11015  0.000321  1.051408  0.0
H  H42  1  0.64073127  0.36730947  0.57596836  1  0.11801  0.000738  0.105751  0.110129  0.000321  1.051429  0.0
H  H43  1  0.71573144  0.52303727  0.51473046  1  0.082352  0.000663  0.105507  0.110115  0.000272  1.034556  0.0
H  H44  1  0.28426887  0.47696318  0.48527193  1  0.08237  0.000663  0.105513  0.110122  0.000272  1.034597  0.0
H  H45  1  0.80386451  0.71578325  0.42716112  1  0.137478  0.001951  0.117277  0.083871  0.000764  1.041829  0.001
H  H46  1  0.19613675  0.28421636  0.57284126  1  0.137644  0.001951  0.117283  0.083876  0.000764  1.041841  0.001
C  C47  1  0.68212556  0.05105787  0.09883030  1  1.522891  -0.001148  0.215992  0.590792  -0.002466  4.119254  0.0
C  C48  1  0.31787678  0.94894424  0.90116801  1  1.522723  -0.001146  0.215971  0.59079  -0.002465  4.119264  0.0
C  C49  1  0.62947729  0.14045657  0.02215870  1  -0.05126  0.003699  -0.01748  -0.00624  0.001778  3.99605  0.003
C  C50  1  0.37052508  0.85954638  0.97784019  1  -0.051178  0.0037  -0.017505  -0.006305  0.001779  3.996169  0.003
C  C51  1  0.49769561  0.16760073  0.05653727  1  -0.052954  0.000231  -0.092795  -0.117088  -0.000137  3.968515  0.0
C  C52  1  0.50230481  0.83240222  0.94346129  1  -0.053001  0.00023  -0.092708  -0.116966  -0.000138  3.96823  0.0
C  C53  1  0.44871279  0.25174567  0.98375248  1  -0.065199  0.000593  -0.090305  -0.052964  0.000177  4.017457  0.001
C  C54  1  0.55128857  0.74825645  0.01624606  1  -0.067666  0.000594  -0.090404  -0.053053  0.000177  4.017328  0.001
C  C55  1  0.52923953  0.30765232  0.87695708  1  -0.005622  -0.001476  -0.096754  -0.182599  -0.0017  3.977488  -0.001
C  C56  1  0.47076187  0.69235063  0.12304125  1  -0.005612  -0.001476  -0.096734  -0.182627  -0.0017  3.977454  -0.001
C  C57  1  0.66090921  0.27939465  0.84248334  1  0.36912  0.000649  0.07472  0.239003  0.000243  4.080784  0.001
C  C58  1  0.33909117  0.72060747  0.15751624  1  0.368929  0.000649  0.074672  0.238949  0.000243  4.080809  0.001
C  C59  1  0.71249002  0.19678727  0.91494418  1  0.011917  -0.000896  -0.103457  -0.2405  -0.001338  3.949765  -0.001
C  C60  1  0.28751047  0.80321735  0.08505554  1  0.012128  -0.000896  -0.103425  -0.240437  -0.001339  3.949847  -0.001
C  C61  1  0.87333644  0.32932148  0.70644467  1  0.395385  6e-05  -0.063599  -0.020001  -1.7e-05  3.896394  0.0
C  C62  1  0.12666485  0.67067896  0.29355431  1  0.395426  6e-05  -0.0636  -0.020037  -1.7e-05  3.896396  0.0
C  C63  1  0.98105475  0.97771701  0.24943936  1  1.542579  0.00807  0.220397  0.594251  0.005924  4.147329  0.006
C  C64  1  0.01894164  0.02228344  0.75055922  1  1.542605  0.008069  0.220389  0.594203  0.005924  4.147471  0.006
C  C65  1  0.06906173  0.02250702  0.30280706  1  -0.022775  0.00765  -0.018211  -0.005095  0.003939  3.980078  0.006
C  C66  1  0.93093651  0.97749092  0.69719567  1  -0.022483  0.007649  -0.018237  -0.005121  0.003939  3.980138  0.006
C  C67  1  0.20030561  0.99215243  0.28136111  1  -0.077748  0.002363  -0.099774  -0.127929  0.001217  3.97176  0.002
C  C68  1  0.79969169  0.00784635  0.71863925  1  -0.077674  0.002362  -0.099806  -0.127954  0.001217  3.971753  0.002
C  C69  1  0.28095194  0.02955286  0.33586487  1  -0.03215  0.000462  -0.092477  -0.072828  0.000229  4.039365  0.0
C  C70  1  0.71904630  0.97044508  0.66413548  1  -0.032154  0.000462  -0.092509  -0.072801  0.00023  4.039393  0.0
C  C71  1  0.23376153  0.10155667  0.40633622  1  -0.02527  0.001336  -0.097206  -0.180515  0.000616  3.965255  0.001
C  C72  1  0.76623867  0.89844127  0.59366603  1  -0.025471  0.001335  -0.09713  -0.180378  0.000616  3.965246  0.001
C  C73  1  0.10396025  0.13546754  0.42348548  1  0.435729  0.000287  0.079329  0.249024  5.1e-05  4.078887  0.0
C  C74  1  0.89603995  0.86453041  0.57651757  1  0.435813  0.000287  0.07933  0.249054  5.2e-05  4.078802  0.0
C  C75  1  0.01994583  0.09353264  0.37509147  1  -0.009726  0.001234  -0.098392  -0.229152  0.000564  3.964228  0.001
C  C76  1  0.98005346  0.90646697  0.62491059  1  -0.009647  0.001233  -0.098378  -0.229157  0.000563  3.964208  0.001
C  C77  1  0.95483606  0.27644964  0.47952529  1  0.372523  1.3e-05  -0.062783  -0.022624  -2e-06  3.914189  0.0
C  C78  1  0.04516418  0.72354914  0.52047516  1  0.372515  1.3e-05  -0.062742  -0.022508  -2e-06  3.914251  0.0
C  C79  1  0.87565137  0.76909486  0.06933372  1  1.570141  -0.00136  0.224353  0.604586  -0.002226  4.141844  -0.001
C  C80  1  0.12434887  0.23090391  0.93066513  1  1.569865  -0.001357  0.224345  0.604553  -0.002227  4.141862  -0.001
C  C81  1  0.86180616  0.66133050  0.03939350  1  0.005562  0.011315  -0.020808  -0.031831  0.005952  3.981099  0.009
C  C82  1  0.13819404  0.33866744  0.96060717  1  0.005565  0.011316  -0.020787  -0.03183  0.005953  3.981086  0.009
C  C83  1  0.78516191  0.57192592  0.12131274  1  -0.043307  -0.000354  -0.085282  -0.094447  -0.000735  3.977277  0.0
C  C84  1  0.21484029  0.42807285  0.87868803  1  -0.043206  -0.000355  -0.08529  -0.094447  -0.000735  3.977283  0.0
C  C85  1  0.76811593  0.47370024  0.09128826  1  -0.029044  0.000854  -0.091367  -0.068495  0.000387  4.022219  0.001
C  C86  1  0.23188529  0.52629853  0.90871195  1  -0.029093  0.000854  -0.091359  -0.068473  0.000388  4.022207  0.001
C  C87  1  0.82760139  0.46359384  0.97999327  1  -0.053932  -0.001808  -0.091442  -0.176514  -0.002054  3.967439  -0.001
C  C88  1  0.17239979  0.53640410  0.02000716  1  -0.053967  -0.001809  -0.091461  -0.17661  -0.002054  3.967506  -0.001
C  C89  1  0.90556502  0.55240937  0.89898578  1  0.416639  0.001082  0.073745  0.242632  0.000516  4.062896  0.001
C  C90  1  0.09443620  0.44758940  0.10101363  1  0.416656  0.001083  0.073805  0.242723  0.000517  4.062842  0.001
C  C91  1  0.92261452  0.65127754  0.92773084  1  -0.044939  -0.000647  -0.0882  -0.198347  -0.001225  3.940589  0.0
C  C92  1  0.07738666  0.34872039  0.07226879  1  -0.044972  -0.000648  -0.088228  -0.198356  -0.001226  3.940598  0.0
C  C93  1  0.88395001  0.55979108  0.71622487  1  0.436837  3e-05  -0.067592  -0.018634  5e-06  3.912524  0.0
C  C94  1  0.11605030  0.44020936  0.28377355  1  0.436831  3e-05  -0.067575  -0.01858  5e-06  3.912527  0.0
C  C95  1  0.93396675  0.41796858  0.59831186  1  -0.030093  -2.3e-05  -0.006842  0.00114  -4e-05  3.932036  0.0
C  C96  1  0.06603450  0.58203102  0.40168734  1  -0.03003  -2.2e-05  -0.006852  0.001108  -4e-05  3.931906  0.0
C  C97  1  0.98058752  0.39089541  0.49203646  1  0.053195  8.9e-05  -0.009737  -0.005788  5.1e-05  3.938213  0.0
C  C98  1  0.01941376  0.60910503  0.50796252  1  0.053171  8.9e-05  -0.009771  -0.005815  5.1e-05  3.93831  0.0
C  C99  1  0.94949559  0.52806535  0.60551854  1  -0.050569  3.2e-05  -0.003827  0.012732  5e-06  3.909676  0.0
C  C100  1  0.05050660  0.47193342  0.39447904  1  -0.050497  3.3e-05  -0.00379  0.01279  5e-06  3.909553  0.0
C  C101  1  0.51533219  0.75186497  0.38087185  1  0.457087  -0.003247  0.047484  0.094086  -0.004267  3.950539  -0.001
C  C102  1  0.48466794  0.24813129  0.61912845  1  0.456915  -0.003246  0.047509  0.094129  -0.004266  3.950271  -0.001
C  C103  1  0.45758928  0.64566773  0.42879121  1  -0.003562  0.001615  -0.083075  -0.167493  -3.2e-05  3.941057  0.002
C  C104  1  0.54241212  0.35433522  0.57120712  1  -0.003587  0.001614  -0.083046  -0.167413  -3.2e-05  3.940933  0.002
C  C105  1  0.52792543  0.55748208  0.47683022  1  -0.042737  -0.010612  0.007755  0.09628  -0.01201  3.974185  -0.006
C  C106  1  0.47207369  0.44251336  0.52317054  1  -0.001153  -0.010488  0.007818  0.096286  -0.012002  3.974485  -0.006
C  C107  1  0.65467859  0.58503063  0.47746001  1  0.030261  0.000731  -0.0791  -0.1596  -0.000986  3.916254  0.002
C  C108  1  0.34532274  0.41497065  0.52254034  1  0.03022  0.000728  -0.079169  -0.159672  -0.000988  3.916451  0.002
C  C109  1  0.70567648  0.69320508  0.42827708  1  0.394035  -0.00371  0.044084  0.09837  -0.005077  3.945316  -0.002
C  C110  1  0.29432274  0.30679286  0.57172461  1  0.393965  -0.003708  0.044098  0.098368  -0.005074  3.945413  -0.002
N  N111  1  0.63881050  0.77629317  0.37826879  1  -1.235778  0.055482  -0.345501  -0.271484  0.028001  3.613564  0.039
N  N112  1  0.36118883  0.22370728  0.62172987  1  -1.235832  0.055481  -0.345475  -0.271431  0.028  3.613661  0.039
O  O113  1  0.60469649  0.99287831  0.19368718  1  -1.143839  0.103077  -0.315405  -0.545525  0.052671  2.239645  0.082
O  O114  1  0.39530389  0.00712381  0.80631161  1  -1.143736  0.103071  -0.315448  -0.545588  0.05267  2.239638  0.082
O  O115  1  0.80328391  0.02885283  0.07506293  1  -1.168961  0.099893  -0.298605  -0.577124  0.052599  2.46767  0.087
O  O116  1  0.19671749  0.97115013  0.92493619  1  -1.168944  0.099897  -0.298569  -0.577082  0.0526  2.467648  0.087
O  O117  1  0.73269752  0.33773339  0.73452289  1  -1.070782  0.000257  -0.18895  -0.226626  0.000149  2.558923  0.0
O  O118  1  0.26730388  0.66226956  0.26547623  1  -1.070699  0.000257  -0.188932  -0.226593  0.000149  2.558943  0.0
O  O119  1  0.03275154  0.94385278  0.15971333  1  -1.172577  0.056796  -0.310257  -0.595476  0.02912  2.410273  0.045
O  O120  1  0.96724692  0.05615018  0.84028650  1  -1.172606  0.0568  -0.310264  -0.595458  0.029121  2.410166  0.045
O  O121  1  0.85723218  0.97230081  0.30005841  1  -1.134768  0.1099  -0.314008  -0.541226  0.056195  2.343166  0.087
O  O122  1  0.14276422  0.02769965  0.69994335  1  -1.135122  0.109901  -0.313967  -0.541136  0.056193  2.343266  0.087
O  O123  1  0.06694314  0.21021230  0.49036012  1  -1.064  0.000335  -0.182257  -0.215081  6e-05  2.571204  0.0
O  O124  1  0.93305906  0.78978648  0.50964144  1  -1.064038  0.000335  -0.182258  -0.215136  6e-05  2.571329  0.0
O  O125  1  0.80269327  0.77620334  0.16847438  1  -1.157168  0.093269  -0.324832  -0.577068  0.047323  2.428506  0.073
O  O126  1  0.19730704  0.22379710  0.83152404  1  -1.156934  0.093268  -0.324852  -0.577073  0.047324  2.428498  0.073
O  O127  1  0.95523563  0.84342836  0.99637339  1  -1.150818  0.070974  -0.299371  -0.546592  0.036808  2.369606  0.062
O  O128  1  0.04476472  0.15657293  0.00362560  1  -1.150806  0.070974  -0.299346  -0.546547  0.036808  2.369655  0.062
O  O129  1  0.97009858  0.54131136  0.78908934  1  -1.071247  0.000331  -0.209639  -0.255073  0.00015  2.485037  0.0
O  O130  1  0.02990263  0.45868741  0.21091007  1  -1.071262  0.000331  -0.20967  -0.255111  0.00015  2.485091  0.0
