# generated using pymatgen
data_ZnH16C16N3O7
_symmetry_space_group_name_H-M   'P 1'
_cell_length_a   9.51721030
_cell_length_b   10.87190265
_cell_length_c   19.06863616
_cell_angle_alpha   89.93142732
_cell_angle_beta   90.42260636
_cell_angle_gamma   90.29946727
_symmetry_Int_Tables_number   1
_chemical_formula_structural   ZnH16C16N3O7
_chemical_formula_sum   'Zn2 H32 C32 N6 O14'
_cell_volume   1972.95334744
_cell_formula_units_Z   2
loop_
 _symmetry_equiv_pos_site_id
 _symmetry_equiv_pos_as_xyz
  1  'x, y, z'
loop_
 _atom_site_type_symbol
 _atom_site_label
 _atom_site_symmetry_multiplicity
 _atom_site_fract_x
 _atom_site_fract_y
 _atom_site_fract_z
 _atom_site_occupancy
 _atom_site_pbe_bader_charge
 _atom_site_pbe_bader_spin_density
 _atom_site_pbe_cm5_charge
 _atom_site_pbe_ddec_charge
 _atom_site_pbe_ddec_spin_density
 _atom_site_pbe_ddec_sum_bond_order
 _atom_site_pbe_magmom
Zn  Zn0  1  0.35297757  0.49420670  0.50097699  1  1.250734  0  0.675231  0.813739  0  2.356455  0
Zn  Zn1  1  0.64688268  0.49489511  0.49947140  1  1.251192  0  0.677433  0.813811  0  2.367097  0
H  H2  1  0.27730472  0.54727496  0.28137361  1  0.10654  0  0.105583  0.108565  0  1.003196  0
H  H3  1  0.72555905  0.50958233  0.27802908  1  0.097145  0  0.10505  0.107134  0  1.001302  0
H  H4  1  0.87687169  0.34943584  0.42636572  1  0.071194  0  0.116808  0.110539  0  0.959301  0
H  H5  1  0.12494541  0.34003455  0.43287619  1  0.069402  0  0.115562  0.103218  0  0.960633  0
H  H6  1  0.86950317  0.30380410  0.51482461  1  0.10727  0  0.114036  0.108352  0  0.980929  0
H  H7  1  0.11767607  0.30650769  0.52404793  1  0.065148  0  0.115033  0.104785  0  0.962159  0
H  H8  1  0.87176422  0.56544752  0.39585470  1  0.058785  0  0.114026  0.101962  0  0.971931  0
H  H9  1  0.12069720  0.54968835  0.39408162  1  0.077132  0  0.11256  0.101082  0  0.976824  0
H  H10  1  0.88094129  0.67764244  0.46289328  1  0.077929  0  0.115116  0.105308  0  0.969363  0
H  H11  1  0.13132954  0.67172743  0.45496174  1  0.106474  0  0.115742  0.113549  0  0.972495  0
H  H12  1  0.27586680  0.59466219  0.15275492  1  0.105236  0  0.107437  0.106594  0  1.010749  0
H  H13  1  0.72641246  0.56211916  0.14991265  1  0.090133  0  0.107205  0.106365  0  1.009067  0
H  H14  1  0.27227372  0.56503698  0.85080567  1  0.122819  0  0.106229  0.106776  0  1.010498  0
H  H15  1  0.72393385  0.58496398  0.84992634  1  0.10963  0  0.106489  0.105569  0  1.011964  0
H  H16  1  0.27259705  0.51750881  0.72206555  1  0.111897  0  0.103667  0.106596  0  1.004567  0
H  H17  1  0.72234085  0.54213312  0.72069389  1  0.091485  0  0.103865  0.107587  0  1.004805  0
H  H18  1  0.53682760  0.07023787  0.60844213  1  0.046217  0  0.100396  0.034598  0  0.959818  0
H  H19  1  0.72150881  0.10269923  0.53917001  1  0.033198  0  0.103759  0.049193  0  0.965722  0
H  H20  1  0.43568348  0.87123613  0.60682942  1  0.031825  0  0.093732  0.104373  0  0.979077  0
H  H21  1  0.69480154  0.89266190  0.55643529  1  0.002788  0  0.09023  0.096597  0  0.978518  0
H  H22  1  0.30190345  0.91486606  0.54676236  1  0.051074  0  0.097788  0.110018  0  1.001623  0
H  H23  1  0.71981841  0.87703324  0.46518490  1  0.098185  0  0.101011  0.120889  0  0.999624  0
H  H24  1  0.23537418  0.93785140  0.41849554  1  0.626422  0  0.313176  0.369159  0  0.930444  0
H  H25  1  0.49581420  0.93158596  0.33162576  1  0.597239  0  0.328627  0.371134  0  0.879307  0
H  H26  1  0.87311475  0.61628743  0.58413912  1  0.047636  0  0.11384  0.101237  0  0.963657  0
H  H27  1  0.12212475  0.62631519  0.57853208  1  0.063229  0  0.115839  0.105567  0  0.958226  0
H  H28  1  0.87940335  0.45836432  0.60607132  1  0.046921  0  0.113137  0.099968  0  0.963617  0
H  H29  1  0.12813208  0.47210595  0.60849628  1  0.089374  0  0.111517  0.100668  0  0.983978  0
H  H30  1  0.30834267  0.10165507  0.63917686  1  0.59481  0  0.325054  0.353273  0  0.893973  0
H  H31  1  0.67936684  0.07385254  0.39390126  1  0.601545  0  0.301189  0.342899  0  0.95348  0
H  H32  1  0.27501151  0.17638762  0.46585748  1  0.623342  0  0.306852  0.360959  0  0.95672  0
H  H33  1  0.45681765  0.20876752  0.37499629  1  0.58272  0  0.323208  0.375818  0  0.887237  0
C  C34  1  0.50860640  0.25463998  0.50292999  1  1.553882  0  0.221378  0.61393  0  4.104391  0
C  C35  1  0.50062591  0.60843851  0.06835743  1  0.920339  0  0.240602  0.247627  0  3.997175  0
C  C36  1  0.37044408  0.55880914  0.82201977  1  -0.055424  0  -0.082767  -0.110794  0  3.969871  0
C  C37  1  0.62559144  0.57047566  0.82149492  1  -0.005975  0  -0.082956  -0.107446  0  3.968863  0
C  C38  1  0.37067986  0.53288372  0.75062143  1  -0.089534  0  -0.083836  -0.09167  0  3.978436  0
C  C39  1  0.62470880  0.54632056  0.75002028  1  -0.015656  0  -0.084465  -0.092553  0  3.982623  0
C  C40  1  0.49752376  0.52786598  0.71383108  1  -0.050781  0  -0.012108  -0.018374  0  3.950516  0
C  C41  1  0.49809189  0.57857623  0.85804301  1  -0.030831  0  -0.004771  0.020113  0  4.002186  0
C  C42  1  0.45101240  0.06061650  0.56942429  1  0.458466  0  0.003948  0.226769  0  3.829727  0
C  C43  1  0.66167885  0.06153636  0.49557665  1  0.520068  0  -0.003876  0.213027  0  3.853114  0
C  C44  1  0.41441280  0.92389196  0.55870216  1  -0.020569  0  -0.172101  -0.2765  0  3.915195  0
C  C45  1  0.65349162  0.92008499  0.50468766  1  -0.044937  0  -0.17267  -0.268503  0  3.883571  0
C  C46  1  0.42100136  0.06769108  0.43622953  1  0.96508  0  0.142429  0.3676  0  3.842602  0
C  C47  1  0.51023879  0.11402767  0.49982021  1  0.014783  0  -0.029228  -0.231206  0  3.759352  0
C  C48  1  0.50146837  0.87200716  0.49781813  1  0.06949  0  -0.01684  -0.051703  0  3.762037  0
C  C49  1  0.50011370  0.49929012  0.36425503  1  1.565941  0  0.213939  0.581839  0  4.178923  0
C  C50  1  0.43635409  0.92264024  0.42800284  1  1.006062  0  0.154087  0.386711  0  3.819354  0
C  C51  1  0.91703217  0.37076670  0.47905270  1  0.244124  0  -0.068078  -0.093538  0  3.806933  0
C  C52  1  0.07917739  0.36885647  0.48287642  1  0.210769  0  -0.065595  -0.085424  0  3.808416  0
C  C53  1  0.91954813  0.58703051  0.44695417  1  0.208261  0  -0.065232  -0.08447  0  3.803437  0
C  C54  1  0.08200634  0.58188517  0.44484657  1  0.24007  0  -0.067508  -0.092072  0  3.79516  0
C  C55  1  0.91940463  0.52785562  0.56940534  1  0.225971  0  -0.067579  -0.087017  0  3.831018  0
C  C56  1  0.08157460  0.53307886  0.56891199  1  0.264505  0  -0.068938  -0.093932  0  3.825267  0
C  C57  1  0.49712099  0.73139321  0.49773154  1  1.52346  0  0.224294  0.616141  0  4.061206  0
C  C58  1  0.49852462  0.50701962  0.63610994  1  1.578708  0  0.213601  0.585327  0  4.180519  0
C  C59  1  0.37459311  0.54913791  0.25171190  1  -0.001433  0  -0.079395  -0.082952  0  3.96661  0
C  C60  1  0.62790610  0.52864969  0.25001234  1  -0.061772  0  -0.079709  -0.085054  0  3.96614  0
C  C61  1  0.37384754  0.57603952  0.18054657  1  -0.090675  0  -0.079623  -0.105958  0  3.963062  0
C  C62  1  0.62836872  0.55733265  0.17894757  1  0.01023  0  -0.080334  -0.106695  0  3.960595  0
C  C63  1  0.50111563  0.58111920  0.14355058  1  0.038881  0  -0.004402  0.019005  0  4.001264  0
C  C64  1  0.50128115  0.52500074  0.28705819  1  -0.041939  0  -0.009068  -0.012931  0  3.937785  0
C  C65  1  0.49880970  0.60643031  0.93321287  1  0.947526  0  0.23822  0.244129  0  3.999617  0
N  N66  1  0.62466081  0.62657323  0.03528536  1  -0.502103  0  -0.157897  -0.15208  0  3.213804  0
N  N67  1  0.37611657  0.62619774  0.03504443  1  -0.481304  0  -0.15623  -0.148461  0  3.219249  0
N  N68  1  0.62354575  0.62478169  0.96629664  1  -0.602051  0  -0.158173  -0.150721  0  3.22323  0
N  N69  1  0.37506409  0.62576222  0.96604578  1  -0.619584  0  -0.159888  -0.154236  0  3.217547  0
N  N70  1  0.86516322  0.49531142  0.49838952  1  -0.969626  0  -0.341758  -0.107335  0  3.464191  0
N  N71  1  0.13452146  0.49406779  0.49912216  1  -0.959932  0  -0.341941  -0.104612  0  3.459604  0
O  O72  1  0.39484071  0.30646821  0.48211245  1  -1.179592  0  -0.311025  -0.574893  0  2.383264  0
O  O73  1  0.61629406  0.31084925  0.52501035  1  -1.164389  0  -0.299703  -0.520348  0  2.341989  0
O  O74  1  0.38403994  0.51686187  0.39542904  1  -1.166471  0  -0.311219  -0.541879  0  2.358618  0
O  O75  1  0.61376796  0.46256253  0.39324347  1  -1.172176  0  -0.319672  -0.556787  0  2.312298  0
O  O76  1  0.38357074  0.67956236  0.51682035  1  -1.15812  0  -0.312906  -0.541174  0  2.330626  0
O  O77  1  0.60857288  0.67608820  0.47959310  1  -1.170752  0  -0.311293  -0.539525  0  2.348755  0
O  O78  1  0.38523144  0.46919202  0.60714409  1  -1.165377  0  -0.315833  -0.546859  0  2.338604  0
O  O79  1  0.61317175  0.53099857  0.60484698  1  -1.166907  0  -0.31465  -0.554975  0  2.358229  0
O  O80  1  0.30342055  0.87104178  0.41265322  1  -1.119813  0  -0.401912  -0.537894  0  2.190777  0
O  O81  1  0.53112218  0.89246618  0.37430856  1  -1.099682  0  -0.385011  -0.508007  0  2.213136  0
O  O82  1  0.33379978  0.13184906  0.59293437  1  -1.108624  0  -0.406846  -0.506258  0  2.213917  0
O  O83  1  0.73627203  0.09837785  0.43453942  1  -1.119364  0  -0.423421  -0.512858  0  2.184008  0
O  O84  1  0.27699509  0.09270342  0.44561817  1  -1.142475  0  -0.400904  -0.553898  0  2.282756  0
O  O85  1  0.46879715  0.11974120  0.37166865  1  -1.09542  0  -0.397562  -0.558506  0  2.229566  0
