# generated using pymatgen
data_ZnH20C24N5O6
_symmetry_space_group_name_H-M   'P 1'
_cell_length_a   15.81714157
_cell_length_b   17.13366151
_cell_length_c   19.05790490
_cell_angle_alpha   89.42189669
_cell_angle_beta   87.53896673
_cell_angle_gamma   86.89665349
_symmetry_Int_Tables_number   1
_chemical_formula_structural   ZnH20C24N5O6
_chemical_formula_sum   'Zn2 H40 C48 N10 O12'
_cell_volume   5152.31105332
_cell_formula_units_Z   2
loop_
 _symmetry_equiv_pos_site_id
 _symmetry_equiv_pos_as_xyz
  1  'x, y, z'
loop_
 _atom_site_type_symbol
 _atom_site_label
 _atom_site_symmetry_multiplicity
 _atom_site_fract_x
 _atom_site_fract_y
 _atom_site_fract_z
 _atom_site_occupancy
 _atom_site_pbe_bader_charge
 _atom_site_pbe_bader_spin_density
 _atom_site_pbe_cm5_charge
 _atom_site_pbe_ddec_charge
 _atom_site_pbe_ddec_spin_density
 _atom_site_pbe_ddec_sum_bond_order
 _atom_site_pbe_magmom
Zn  Zn0  1  0.58468614  0.50937356  0.49613067  1  1.27614  0  0.668312  0.805561  0  2.444909  0
Zn  Zn1  1  0.41127136  0.49767418  0.50855333  1  1.275742  0  0.668405  0.804896  0  2.44446  0
H  H2  1  0.88677605  0.40472648  0.54068100  1  0.129335  0  0.121811  0.1307  0  0.991948  0
H  H3  1  0.63329151  0.50160810  0.14606726  1  0.084527  0  0.105251  0.106029  0  1.014506  0
H  H4  1  0.39203892  0.42012336  0.72270253  1  0.080529  0  0.10409  0.106022  0  0.995466  0
H  H5  1  0.61393178  0.53009577  0.27457937  1  0.105353  0  0.106139  0.112794  0  0.998181  0
H  H6  1  0.58540703  0.74374950  0.41879091  1  0.085092  0  0.102515  0.10377  0  0.996526  0
H  H7  1  0.40500082  0.25543381  0.53559571  1  0.100366  0  0.104064  0.109707  0  1.000092  0
H  H8  1  0.57970004  0.88960610  0.40357717  1  0.077721  0  0.104612  0.10877  0  1.015685  0
H  H9  1  0.39894703  0.11101588  0.51723628  1  0.09362  0  0.103289  0.105341  0  1.024469  0
H  H10  1  0.63789409  0.11297972  0.40024910  1  0.082729  0  0.111569  0.131111  0  0.988052  0
H  H11  1  0.34730684  0.90453006  0.53008382  1  0.099539  0  0.112142  0.128803  0  0.99218  0
H  H12  1  0.72646643  0.40607548  0.54218660  1  0.130919  0  0.135732  0.11516  0  0.960649  0
H  H13  1  0.11552217  0.54210860  0.41220698  1  0.115521  0  0.122098  0.131596  0  0.990305  0
H  H14  1  0.27560380  0.54376906  0.41326346  1  0.16893  0  0.136088  0.115935  0  0.959764  0
H  H15  1  0.70553722  0.48454772  0.67440578  1  0.045903  0  0.09071  0.047426  0  1.003439  0
H  H16  1  0.73868050  0.51795240  0.75721276  1  0.018914  0  0.093218  0.048802  0  0.973722  0
H  H17  1  0.75856312  0.65128306  0.70439643  1  0.057525  0  0.093463  0.128542  0  0.988365  0
H  H18  1  0.82073413  0.57878806  0.65585451  1  0.024647  0  0.084815  0.112571  0  1.012665  0
H  H19  1  0.72321416  0.61844813  0.62280725  1  0.048152  0  0.091807  0.131582  0  1.000146  0
H  H20  1  0.39701949  0.28276338  0.29299386  1  0.007449  0  0.093034  0.048097  0  0.967648  0
H  H21  1  0.43284593  0.33755641  0.36430678  1  0.044795  0  0.091766  0.048568  0  1.029068  0
H  H22  1  0.24526501  0.31430274  0.33797308  1  0.032797  0  0.088691  0.120153  0  0.995275  0
H  H23  1  0.30669067  0.26133432  0.40084589  1  0.05162  0  0.091565  0.12512  0  1.002879  0
H  H24  1  0.12187689  0.42034890  0.61141016  1  0.100473  0  0.1242  0.135359  0  0.973807  0
H  H25  1  0.28571089  0.36388209  0.41041480  1  0.053321  0  0.084587  0.118735  0  1.030879  0
H  H26  1  0.59297587  0.34515279  0.35820006  1  0.038862  0  0.091819  0.048476  0  1.034157  0
H  H27  1  0.63975260  0.26580703  0.30716317  1  0.038463  0  0.092165  0.047433  0  0.966895  0
H  H28  1  0.78513264  0.31294196  0.33317474  1  0.030351  0  0.088549  0.119897  0  0.99738  0
H  H29  1  0.72182742  0.38420012  0.28726434  1  0.049518  0  0.090893  0.124199  0  1.004344  0
H  H30  1  0.73368827  0.39385347  0.37925546  1  0.02442  0  0.08443  0.11961  0  1.026404  0
H  H31  1  0.28117039  0.69706284  0.47948134  1  0.059914  0  0.090727  0.049893  0  1.010097  0
H  H32  1  0.23169024  0.78953217  0.50574235  1  0.031547  0  0.08985  0.043791  0  0.973797  0
H  H33  1  0.19633995  0.73240746  0.62538014  1  0.040199  0  0.092541  0.127011  0  0.990633  0
H  H34  1  0.15149413  0.67822896  0.55818574  1  -0.019236  0  0.083969  0.1116  0  1.014222  0
H  H35  1  0.87038202  0.62567696  0.43009609  1  0.101559  0  0.123853  0.134594  0  0.973896  0
H  H36  1  0.24575961  0.64112495  0.59839779  1  0.065502  0  0.091263  0.131504  0  0.999625  0
H  H37  1  0.28171832  0.43130324  0.60607311  1  0.126224  0  0.13262  0.1076  0  0.967691  0
H  H38  1  0.70995431  0.61997809  0.43995738  1  0.147286  0  0.132394  0.107146  0  0.969168  0
H  H39  1  0.62867582  0.51715730  0.85447865  1  0.114518  0  0.110821  0.123321  0  1.013022  0
H  H40  1  0.40227098  0.37851105  0.15845095  1  0.110786  0  0.111912  0.127209  0  1.005923  0
H  H41  1  0.40592716  0.38342765  0.84945634  1  0.103846  0  0.105326  0.107  0  1.012276  0
C  C42  1  0.52035359  0.35119070  0.49522836  1  1.558382  0  0.211227  0.591689  0  4.181184  0
C  C43  1  0.46323220  0.90559565  0.46656596  1  0.425136  0  0.086124  0.189306  0  4.061445  0
C  C44  1  0.58627697  0.14417199  0.42983795  1  -0.059783  0  -0.089158  -0.254628  0  3.922228  0
C  C45  1  0.39835269  0.86874184  0.50422625  1  -0.038112  0  -0.086432  -0.25197  0  3.930367  0
C  C46  1  0.59027181  0.22457375  0.44053608  1  0.566576  0  0.090825  0.25109  0  4.033008  0
C  C47  1  0.40144332  0.78759559  0.51265913  1  0.514905  0  0.089583  0.244702  0  4.045068  0
C  C48  1  0.23806263  0.51887916  0.45643169  1  0.474883  0  0.070159  0.116649  0  3.895184  0
C  C49  1  0.76161347  0.45383232  0.51933997  1  0.484975  0  0.069623  0.114902  0  3.896608  0
C  C50  1  0.15053232  0.51728296  0.45578590  1  0.042488  0  -0.065194  -0.18071  0  3.90315  0
C  C51  1  0.84937097  0.45299166  0.51790728  1  0.001169  0  -0.06506  -0.179163  0  3.905228  0
C  C52  1  0.10796264  0.48213433  0.51289503  1  0.285329  0  0.108134  0.19951  0  4.037971  0
C  C53  1  0.48049338  0.65540980  0.49232257  1  1.609394  0  0.2199  0.615917  0  4.150526  0
C  C54  1  0.88916697  0.51603031  0.48563450  1  0.332263  0  0.108342  0.199909  0  4.037898  0
C  C55  1  0.15445607  0.44884041  0.56751758  1  -0.009974  0  -0.063005  -0.179393  0  3.911653  0
C  C56  1  0.83985801  0.57692679  0.45580598  1  0.026839  0  -0.062999  -0.178968  0  3.910179  0
C  C57  1  0.49742347  0.49901505  0.63916806  1  1.586364  0  0.220678  0.617249  0  4.151835  0
C  C58  1  0.49433672  0.49101003  0.36535886  1  1.599588  0  0.211804  0.591306  0  4.17931  0
C  C59  1  0.24188542  0.45439779  0.56456601  1  0.513753  0  0.068519  0.111295  0  3.911728  0
C  C60  1  0.75215459  0.57374736  0.46073836  1  0.458265  0  0.06893  0.112951  0  3.91132  0
C  C61  1  0.56967397  0.51487490  0.75481061  1  0.536814  0  0.090556  0.243064  0  4.044554  0
C  C62  1  0.43810433  0.42834651  0.25489428  1  0.521384  0  0.092425  0.249263  0  4.030835  0
C  C63  1  0.57752960  0.49466695  0.82535091  1  -0.047623  0  -0.090223  -0.224481  0  3.949433  0
C  C64  1  0.52388052  0.26538593  0.47952326  1  0.011057  0  -0.020853  -0.136472  0  3.915074  0
C  C65  1  0.44911663  0.41212630  0.18329008  1  0.011426  0  -0.089636  -0.220856  0  3.934837  0
C  C66  1  0.51945083  0.44639679  0.85937406  1  0.017689  0  -0.006909  0.035561  0  4.028097  0
C  C67  1  0.51905947  0.43813133  0.14380542  1  0.007669  0  -0.00565  0.039842  0  4.028436  0
C  C68  1  0.45140298  0.42007131  0.82254048  1  -0.075462  0  -0.088723  -0.124398  0  3.980779  0
C  C69  1  0.57900562  0.48131300  0.17676562  1  -0.080058  0  -0.090009  -0.127062  0  3.988706  0
C  C70  1  0.44390990  0.44053686  0.75230358  1  -0.010708  0  -0.084055  -0.077997  0  3.99541  0
C  C71  1  0.56814707  0.49709186  0.24782710  1  0.016211  0  -0.083728  -0.074172  0  3.99902  0
C  C72  1  0.50349992  0.48618183  0.71682544  1  0.00672  0  -0.010245  -0.106402  0  3.90444  0
C  C73  1  0.49853048  0.47149086  0.28853387  1  -0.059383  0  -0.017301  -0.12852  0  3.912455  0
C  C74  1  0.52895675  0.42217680  0.06851978  1  0.923716  0  0.238309  0.243495  0  4.003733  0
C  C75  1  0.46999659  0.74215827  0.48200843  1  0.022183  0  -0.013228  -0.114785  0  3.90825  0
C  C76  1  0.52906769  0.42627743  0.93347510  1  0.946754  0  0.239489  0.249996  0  3.992931  0
C  C77  1  0.70852992  0.53625889  0.70802392  1  0.435199  0  -0.068252  0.09352  0  3.92185  0
C  C78  1  0.75563641  0.60011657  0.67052587  1  -0.080118  0  -0.246433  -0.394568  0  3.980298  0
C  C79  1  0.37987147  0.33125615  0.32957864  1  0.425327  0  -0.067607  0.100575  0  3.907287  0
C  C80  1  0.29924286  0.31701871  0.37211639  1  -0.070963  0  -0.246981  -0.387701  0  3.971888  0
C  C81  1  0.64970881  0.30558993  0.35098380  1  0.419  0  -0.0693  0.097034  0  3.91065  0
C  C82  1  0.72754823  0.35176232  0.33701818  1  -0.055897  0  -0.246186  -0.386468  0  3.97194  0
C  C83  1  0.26469257  0.73533849  0.52471354  1  0.39613  0  -0.069586  0.092487  0  3.927758  0
C  C84  1  0.21131293  0.69430222  0.58003607  1  -0.035093  0  -0.247247  -0.394439  0  3.983135  0
C  C85  1  0.45530929  0.22284411  0.50580397  1  -0.09235  0  -0.084136  -0.065205  0  4.005174  0
C  C86  1  0.53305938  0.78000141  0.44221555  1  -0.127613  0  -0.083932  -0.070113  0  4.005766  0
C  C87  1  0.45138773  0.14345669  0.49553705  1  0.020918  0  -0.094881  -0.164803  0  3.983149  0
C  C88  1  0.53030945  0.86043876  0.43357721  1  0.034997  0  -0.091079  -0.159366  0  3.972949  0
C  C89  1  0.51786012  0.10321519  0.45713945  1  0.334387  0  0.085868  0.192482  0  4.057506  0
N  N90  1  0.47001154  0.38409427  0.96783661  1  -0.535279  0  -0.158961  -0.152272  0  3.212968  0
N  N91  1  0.97811697  0.52286834  0.47988585  1  -0.44704  0  -0.128603  -0.115617  0  3.234378  0
N  N92  1  0.60101060  0.44192695  0.03338316  1  -0.578287  0  -0.16019  -0.152493  0  3.228391  0
N  N93  1  0.46996893  0.38194100  0.03691756  1  -0.581493  0  -0.158763  -0.149374  0  3.216399  0
N  N94  1  0.60119865  0.44388649  0.96435422  1  -0.526548  0  -0.161999  -0.155909  0  3.222192  0
N  N95  1  0.52275736  0.02136645  0.44671501  1  -0.473084  0  -0.15184  -0.140972  0  3.256021  0
N  N96  1  0.45729941  0.98792986  0.46951126  1  -0.541819  0  -0.150286  -0.133835  0  3.289428  0
N  N97  1  0.28241561  0.48888681  0.51022672  1  -1.24026  0  -0.312239  -0.191569  0  3.512629  0
N  N98  1  0.71419401  0.51336292  0.49171258  1  -1.217361  0  -0.311872  -0.191529  0  3.511125  0
N  N99  1  0.01896414  0.47650415  0.51954630  1  -0.447854  0  -0.127713  -0.112239  0  3.236236  0
O  O100  1  0.58681852  0.38899835  0.48435068  1  -1.160711  0  -0.308166  -0.537173  0  2.362259  0
O  O101  1  0.36636546  0.40228582  0.28879311  1  -1.068832  0  -0.211748  -0.249365  0  2.49375  0
O  O102  1  0.66149519  0.25900223  0.41395955  1  -1.072847  0  -0.212064  -0.248236  0  2.494185  0
O  O103  1  0.34188605  0.75470393  0.55683060  1  -1.075472  0  -0.20812  -0.238467  0  2.485343  0
O  O104  1  0.41471996  0.61596103  0.49144544  1  -1.162268  0  -0.307033  -0.53923  0  2.34895  0
O  O105  1  0.44876838  0.38082518  0.51826334  1  -1.170788  0  -0.32249  -0.553668  0  2.328839  0
O  O106  1  0.55605159  0.62776450  0.50004469  1  -1.156125  0  -0.31725  -0.547291  0  2.30146  0
O  O107  1  0.56681621  0.49600611  0.60275597  1  -1.157496  0  -0.308287  -0.542841  0  2.351063  0
O  O108  1  0.42568755  0.48123176  0.40078170  1  -1.166633  0  -0.30796  -0.539425  0  2.369844  0
O  O109  1  0.42345300  0.50806106  0.61532005  1  -1.160259  0  -0.318964  -0.548178  0  2.289658  0
O  O110  1  0.56188738  0.51531969  0.38986205  1  -1.168387  0  -0.32064  -0.549386  0  2.318105  0
O  O111  1  0.62303841  0.56695770  0.72366380  1  -1.071321  0  -0.204384  -0.233515  0  2.486332  0
