# generated using pymatgen
data_ZnH12C6S3(NO4)2
_symmetry_space_group_name_H-M   'P 1'
_cell_length_a   5.02171852
_cell_length_b   9.37619667
_cell_length_c   13.57571301
_cell_angle_alpha   90.00014958
_cell_angle_beta   95.11342667
_cell_angle_gamma   90.00054858
_symmetry_Int_Tables_number   1
_chemical_formula_structural   ZnH12C6S3(NO4)2
_chemical_formula_sum   'Zn2 H24 C12 S6 N4 O16'
_cell_volume   636.66338123
_cell_formula_units_Z   2
loop_
 _symmetry_equiv_pos_site_id
 _symmetry_equiv_pos_as_xyz
  1  'x, y, z'
loop_
 _atom_site_type_symbol
 _atom_site_label
 _atom_site_symmetry_multiplicity
 _atom_site_fract_x
 _atom_site_fract_y
 _atom_site_fract_z
 _atom_site_occupancy
 _atom_site_hle17_bader_spin_density
 _atom_site_hle17_ddec_charge
 _atom_site_hle17_ddec_spin_density
 _atom_site_hle17_ddec_sum_bond_order
 _atom_site_hle17_magmom
 _atom_site_hse06_10hf_bader_spin_density
 _atom_site_hse06_10hf_ddec_charge
 _atom_site_hse06_10hf_ddec_spin_density
 _atom_site_hse06_10hf_ddec_sum_bond_order
 _atom_site_hse06_10hf_magmom
 _atom_site_hse06_bader_spin_density
 _atom_site_hse06_ddec_charge
 _atom_site_hse06_ddec_spin_density
 _atom_site_hse06_ddec_sum_bond_order
 _atom_site_hse06_magmom
 _atom_site_pbe_bader_spin_density
 _atom_site_pbe_cm5_charge
 _atom_site_pbe_ddec_charge
 _atom_site_pbe_ddec_spin_density
 _atom_site_pbe_ddec_sum_bond_order
 _atom_site_pbe_magmom
Zn  Zn0  1  0.10648748  0.32289191  0.38670106  1  0  1.210353  0  1.621425  0  0  1.050044  0  2.053273  0  0  1.096971  0  1.994674  0  0  0.665036  1.016599  0  2.094012  0
Zn  Zn1  1  0.89351475  0.82289550  0.61329835  1  0  1.210438  0  1.62128  0  0  1.050134  0  2.053105  0  0  1.097058  0  1.994506  0  0  0.665069  1.016691  0  2.093854  0
H  H2  1  0.43907388  0.44661738  0.13356390  1  0  0.153828  0  0.959639  0  0  0.164055  0  1.022042  0  0  0.167909  0  1.019713  0  0  0.109327  0.161273  0  1.023972  0
H  H3  1  0.56093869  0.94662645  0.86643832  1  0  0.153795  0  0.959662  0  0  0.164061  0  1.022057  0  0  0.167922  0  1.019725  0  0  0.109333  0.161273  0  1.023991  0
H  H4  1  0.62414061  0.32452986  0.06793483  1  0  0.123568  0  0.954804  0  0  0.131137  0  1.027976  0  0  0.133434  0  1.027108  0  0  0.096019  0.129865  0  1.028252  0
H  H5  1  0.37586163  0.82452860  0.93206090  1  0  0.123614  0  0.954847  0  0  0.131224  0  1.027982  0  0  0.133525  0  1.02712  0  0  0.096038  0.129949  0  1.028262  0
H  H6  1  0.47838420  0.46652512  0.68737766  1  0  0.150085  0  0.936267  0  0  0.160018  0  0.999554  0  0  0.163408  0  0.997178  0  0  0.115125  0.157265  0  1.001763  0
H  H7  1  0.52160267  0.96652056  0.31261199  1  0  0.150123  0  0.936245  0  0  0.159996  0  0.999607  0  0  0.163393  0  0.997232  0  0  0.115083  0.157241  0  1.001812  0
H  H8  1  0.68780767  0.31854345  0.67153789  1  0  0.150092  0  0.950223  0  0  0.159406  0  1.012884  0  0  0.162983  0  1.0109  0  0  0.11139  0.156668  0  1.014724  0
H  H9  1  0.31218449  0.81854108  0.32846192  1  0  0.150047  0  0.950247  0  0  0.15936  0  1.012904  0  0  0.162943  0  1.010921  0  0  0.111365  0.15662  0  1.01475  0
H  H10  1  0.91896635  0.07402646  0.33197647  1  0  0.396911  0  0.903718  0  0  0.356358  0  0.996503  0  0  0.366615  0  0.981922  0  0  0.288986  0.349173  0  1.006705  0
H  H11  1  0.08103124  0.57403676  0.66802372  1  0  0.396933  0  0.903727  0  0  0.356367  0  0.996499  0  0  0.366625  0  0.981916  0  0  0.288991  0.349181  0  1.006701  0
H  H12  1  0.03898883  0.05899912  0.44521216  1  0  0.425538  0  0.866863  0  0  0.395121  0  0.933071  0  0  0.40582  0  0.917552  0  0  0.293057  0.387467  0  0.944195  0
H  H13  1  0.96100247  0.55900607  0.55478632  1  0  0.425606  0  0.866735  0  0  0.395195  0  0.932955  0  0  0.405896  0  0.917433  0  0  0.293119  0.387545  0  0.944073  0
H  H14  1  0.68849776  0.49833130  0.41327746  1  0  0.433267  0  0.825629  0  0  0.403645  0  0.899012  0  0  0.412817  0  0.888915  0  0  0.307804  0.397047  0  0.906349  0
H  H15  1  0.31149779  0.99833612  0.58672506  1  0  0.433244  0  0.825574  0  0  0.403621  0  0.898959  0  0  0.412794  0  0.888857  0  0  0.307769  0.397021  0  0.906297  0
H  H16  1  0.66267625  0.38081463  0.49094426  1  0  0.436911  0  0.858005  0  0  0.402746  0  0.927551  0  0  0.41428  0  0.911061  0  0  0.297567  0.394636  0  0.939126  0
H  H17  1  0.33730707  0.88082467  0.50905467  1  0  0.436781  0  0.858055  0  0  0.402575  0  0.927788  0  0  0.414108  0  0.911304  0  0  0.297517  0.394464  0  0.939361  0
H  H18  1  0.22445821  0.53187018  0.28414644  1  0  0.410019  0  0.899021  0  0  0.377706  0  0.971259  0  0  0.389153  0  0.954714  0  0  0.284528  0.3697  0  0.982793  0
H  H19  1  0.77553661  0.03187313  0.71585726  1  0  0.410047  0  0.898963  0  0  0.377742  0  0.971199  0  0  0.38919  0  0.954654  0  0  0.284555  0.369734  0  0.982734  0
H  H20  1  0.18002990  0.60488704  0.38532058  1  0  0.439271  0  0.846595  0  0  0.411698  0  0.909121  0  0  0.421632  0  0.894733  0  0  0.302039  0.404727  0  0.919244  0
H  H21  1  0.81996229  0.10488990  0.61468319  1  0  0.439311  0  0.846601  0  0  0.411738  0  0.909085  0  0  0.421672  0  0.894697  0  0  0.302043  0.404767  0  0.919211  0
H  H22  1  0.53703064  0.28127575  0.27697054  1  0  0.429196  0  0.873901  0  0  0.398716  0  0.935636  0  0  0.409928  0  0.919576  0  0  0.289093  0.390852  0  0.946841  0
H  H23  1  0.46297283  0.78127856  0.72303102  1  0  0.429184  0  0.873905  0  0  0.398705  0  0.935637  0  0  0.409921  0  0.919573  0  0  0.28909  0.390841  0  0.946843  0
H  H24  1  0.28318178  0.18562965  0.23375414  1  0  0.389603  0  0.929861  0  0  0.347255  0  1.01394  0  0  0.358085  0  0.998399  0  0  0.282039  0.339536  0  1.025074  0
H  H25  1  0.71681793  0.68563708  0.76625078  1  0  0.389611  0  0.929784  0  0  0.347284  0  1.013885  0  0  0.358111  0  0.998351  0  0  0.282027  0.339565  0  1.025016  0
C  C26  1  0.86089256  0.44037292  0.18266091  1  0  0.714832  0  3.857852  0  0  0.658283  0  4.169434  0  0  0.692105  0  4.162198  0  0  0.206402  0.635293  0  4.173242  0
C  C27  1  0.13913184  0.94036797  0.81733578  1  0  0.715105  0  3.857569  0  0  0.658653  0  4.16903  0  0  0.692482  0  4.161781  0  0  0.206629  0.635658  0  4.172849  0
C  C28  1  0.63023907  0.43179197  0.10107364  1  0  -0.334088  0  3.631017  0  0  -0.362804  0  3.881549  0  0  -0.368065  0  3.886189  0  0  -0.160757  -0.359078  0  3.877998  0
C  C29  1  0.36976717  0.93178631  0.89892097  1  0  -0.334115  0  3.63092  0  0  -0.362937  0  3.881425  0  0  -0.368227  0  3.886102  0  0  -0.160786  -0.359203  0  3.877874  0
C  C30  1  0.85640123  0.50433176  0.93006725  1  0  0.073197  0  3.818091  0  0  0.062738  0  4.134973  0  0  0.074257  0  4.148484  0  0  0.110908  0.055164  0  4.125501  0
C  C31  1  0.14360506  0.00433165  0.06993528  1  0  0.072974  0  3.818093  0  0  0.062533  0  4.134945  0  0  0.074051  0  4.148456  0  0  0.110842  0.05496  0  4.125474  0
C  C32  1  0.17826095  0.38441454  0.83974454  1  0  0.081558  0  3.804246  0  0  0.07256  0  4.119877  0  0  0.084767  0  4.132753  0  0  0.118729  0.064082  0  4.111502  0
C  C33  1  0.82175046  0.88439824  0.16025898  1  0  0.081712  0  3.804152  0  0  0.072715  0  4.119799  0  0  0.084931  0  4.132657  0  0  0.118842  0.064235  0  4.111425  0
C  C34  1  0.48245778  0.34927716  0.68413791  1  0  -0.32449  0  3.590648  0  0  -0.354596  0  3.842253  0  0  -0.359689  0  3.845967  0  0  -0.153849  -0.351122  0  3.840575  0
C  C35  1  0.51753295  0.84927579  0.31586045  1  0  -0.324411  0  3.590624  0  0  -0.354459  0  3.842096  0  0  -0.359586  0  3.84585  0  0  -0.153798  -0.350982  0  3.840408  0
C  C36  1  0.28448604  0.29706346  0.59987379  1  0  0.726752  0  3.847029  0  0  0.671859  0  4.154359  0  0  0.705669  0  4.146721  0  0  0.210797  0.648723  0  4.159385  0
C  C37  1  0.71551170  0.79706442  0.40012321  1  0  0.726565  0  3.847335  0  0  0.671696  0  4.154578  0  0  0.705517  0  4.146933  0  0  0.210748  0.64856  0  4.159603  0
S  S38  1  0.61821144  0.56430288  0.00491526  1  0  0.099177  0  2.594369  0  0  0.09126  0  2.965497  0  0  0.087372  0  2.965336  0  0  0.05175  0.094521  0  2.965892  0
S  S39  1  0.38179397  0.06430255  0.99508664  1  0  0.099231  0  2.59412  0  0  0.091337  0  2.965247  0  0  0.087457  0  2.965098  0  0  0.051761  0.094604  0  2.965613  0
S  S40  1  0.03930765  0.34845201  0.95015552  1  0  0.090415  0  2.670488  0  0  0.084384  0  3.028137  0  0  0.084177  0  3.029898  0  0  0.106856  0.083368  0  3.027869  0
S  S41  1  0.96071105  0.84845421  0.04984447  1  0  0.090511  0  2.670372  0  0  0.084439  0  3.02808  0  0  0.084228  0  3.029841  0  0  0.106858  0.083425  0  3.027809  0
S  S42  1  0.42471546  0.27411452  0.80219246  1  0  0.106863  0  2.567841  0  0  0.096135  0  2.932908  0  0  0.092029  0  2.933257  0  0  0.047613  0.098439  0  2.933399  0
S  S43  1  0.57529788  0.77409602  0.19780940  1  0  0.106719  0  2.567837  0  0  0.09597  0  2.9329  0  0  0.091868  0  2.933257  0  0  0.047561  0.098276  0  2.933395  0
N  N44  1  0.90246317  0.57094938  0.84796929  1  0  -0.229736  0  3.105088  0  0  -0.192854  0  3.379892  0  0  -0.203028  0  3.393669  0  0  -0.221413  -0.186029  0  3.370352  0
N  N45  1  0.09753240  0.07094396  0.15203599  1  0  -0.229692  0  3.10514  0  0  -0.192802  0  3.379905  0  0  -0.202978  0  3.393681  0  0  -0.221384  -0.185977  0  3.370369  0
N  N46  1  0.08602724  0.50221360  0.79573824  1  0  -0.224353  0  3.069575  0  0  -0.18831  0  3.342954  0  0  -0.198516  0  3.357277  0  0  -0.215067  -0.181502  0  3.333024  0
N  N47  1  0.91397903  0.00219862  0.20426723  1  0  -0.224385  0  3.06979  0  0  -0.18833  0  3.343146  0  0  -0.198536  0  3.357469  0  0  -0.215108  -0.181519  0  3.333215  0
O  O48  1  0.82303725  0.36323185  0.25819387  1  0  -0.673346  0  2.073388  0  0  -0.590869  0  2.315181  0  0  -0.621248  0  2.304374  0  0  -0.312637  -0.569419  0  2.32127  0
O  O49  1  0.17697372  0.86324073  0.74180295  1  0  -0.673437  0  2.073563  0  0  -0.591027  0  2.315355  0  0  -0.621399  0  2.304538  0  0  -0.312679  -0.569577  0  2.321447  0
O  O50  1  0.06334942  0.51575646  0.17222311  1  0  -0.625281  0  2.015764  0  0  -0.576456  0  2.253089  0  0  -0.601402  0  2.24577  0  0  -0.315442  -0.558907  0  2.257577  0
O  O51  1  0.93667100  0.01575417  0.82776811  1  0  -0.625485  0  2.015497  0  0  -0.576732  0  2.252834  0  0  -0.60168  0  2.245507  0  0  -0.315655  -0.55917  0  2.257295  0
O  O52  1  0.06335339  0.24620115  0.61683095  1  0  -0.633283  0  1.982466  0  0  -0.577153  0  2.211248  0  0  -0.601061  0  2.203174  0  0  -0.316065  -0.56061  0  2.216795  0
O  O53  1  0.93663140  0.74620531  0.38316553  1  0  -0.633203  0  1.98281  0  0  -0.577074  0  2.211574  0  0  -0.600986  0  2.203495  0  0  -0.316029  -0.560529  0  2.217119  0
O  O54  1  0.36706065  0.31396271  0.51329239  1  0  -0.672647  0  2.067111  0  0  -0.586667  0  2.314213  0  0  -0.617889  0  2.301252  0  0  -0.313928  -0.564933  0  2.322852  0
O  O55  1  0.63292142  0.81396672  0.48670561  1  0  -0.672567  0  2.06699  0  0  -0.586569  0  2.31405  0  0  -0.61779  0  2.301085  0  0  -0.313906  -0.564837  0  2.322697  0
O  O56  1  0.93209418  0.12189888  0.39783364  1  0  -0.813292  0  1.927751  0  0  -0.749509  0  2.154013  0  0  -0.770467  0  2.11849  0  0  -0.57462  -0.734618  0  2.178793  0
O  O57  1  0.06789829  0.62190571  0.60216502  1  0  -0.813364  0  1.927624  0  0  -0.749595  0  2.153931  0  0  -0.770547  0  2.118396  0  0  -0.574695  -0.734702  0  2.178709  0
O  O58  1  0.80123174  0.44219696  0.46201196  1  0  -0.831048  0  1.927451  0  0  -0.764259  0  2.139032  0  0  -0.78673  0  2.108443  0  0  -0.552189  -0.748141  0  2.160491  0
O  O59  1  0.19875675  0.94220426  0.53798947  1  0  -0.830935  0  1.927473  0  0  -0.76408  0  2.139046  0  0  -0.786544  0  2.10845  0  0  -0.552131  -0.747964  0  2.160526  0
O  O60  1  0.28795910  0.52951129  0.35685681  1  0  -0.837689  0  1.88273  0  0  -0.773966  0  2.082771  0  0  -0.796159  0  2.049563  0  0  -0.570516  -0.758015  0  2.105773  0
O  O61  1  0.71203967  0.02951049  0.64314627  1  0  -0.837769  0  1.882709  0  0  -0.774036  0  2.082678  0  0  -0.796244  0  2.049496  0  0  -0.57055  -0.758083  0  2.105688  0
O  O62  1  0.37274578  0.23081354  0.29457526  1  0  -0.842186  0  1.941117  0  0  -0.777692  0  2.16215  0  0  -0.799159  0  2.12555  0  0  -0.588558  -0.762045  0  2.187535  0
O  O63  1  0.62725876  0.73081285  0.70542771  1  0  -0.842186  0  1.941011  0  0  -0.777696  0  2.162041  0  0  -0.799173  0  2.125436  0  0  -0.588543  -0.762046  0  2.187434  0
