# generated using pymatgen
data_CuH6C9S3N5
_symmetry_space_group_name_H-M   'P 1'
_cell_length_a   8.39095613
_cell_length_b   11.07708161
_cell_length_c   13.78869790
_cell_angle_alpha   90.00023126
_cell_angle_beta   90.00012028
_cell_angle_gamma   111.14946275
_symmetry_Int_Tables_number   1
_chemical_formula_structural   CuH6C9S3N5
_chemical_formula_sum   'Cu4 H24 C36 S12 N20'
_cell_volume   1195.29532489
_cell_formula_units_Z   4
loop_
 _symmetry_equiv_pos_site_id
 _symmetry_equiv_pos_as_xyz
  1  'x, y, z'
loop_
 _atom_site_type_symbol
 _atom_site_label
 _atom_site_symmetry_multiplicity
 _atom_site_fract_x
 _atom_site_fract_y
 _atom_site_fract_z
 _atom_site_occupancy
 _atom_site_hle17_bader_spin_density
 _atom_site_hle17_ddec_charge
 _atom_site_hle17_ddec_spin_density
 _atom_site_hle17_ddec_sum_bond_order
 _atom_site_hle17_magmom
 _atom_site_hse06_10hf_bader_spin_density
 _atom_site_hse06_10hf_ddec_charge
 _atom_site_hse06_10hf_ddec_spin_density
 _atom_site_hse06_10hf_ddec_sum_bond_order
 _atom_site_hse06_10hf_magmom
 _atom_site_hse06_bader_spin_density
 _atom_site_hse06_ddec_charge
 _atom_site_hse06_ddec_spin_density
 _atom_site_hse06_ddec_sum_bond_order
 _atom_site_hse06_magmom
 _atom_site_pbe_bader_spin_density
 _atom_site_pbe_cm5_charge
 _atom_site_pbe_ddec_charge
 _atom_site_pbe_ddec_spin_density
 _atom_site_pbe_ddec_sum_bond_order
 _atom_site_pbe_magmom
Cu  Cu0  1  0.75033201  0.60449351  0.74550914  1  0  0.464865  0  2.170011  0  0  0.374348  0  2.658982  0  0  0.362128  0  2.622991  0  0  0.54602  0.387671  0  2.678573  0
Cu  Cu1  1  0.24966971  0.89551046  0.24550777  1  0  0.464808  0  2.170112  0  0  0.374296  0  2.659104  0  0  0.362082  0  2.623115  0  0  0.546055  0.387609  0  2.678823  0
Cu  Cu2  1  0.24966360  0.39551147  0.25449112  1  0  0.464865  0  2.17011  0  0  0.374358  0  2.659099  0  0  0.362123  0  2.623105  0  0  0.546021  0.387691  0  2.678685  0
Cu  Cu3  1  0.75033244  0.10449069  0.75449249  1  0  0.464802  0  2.170063  0  0  0.374293  0  2.659041  0  0  0.362076  0  2.623057  0  0  0.546035  0.387602  0  2.678762  0
H  H4  1  0.00707440  0.02963097  0.19144670  1  0  0.082434  0  0.960434  0  0  0.081796  0  1.040903  0  0  0.085089  0  1.037001  0  0  0.110723  0.079359  0  1.04381  0
H  H5  1  0.99293105  0.47036887  0.69144958  1  0  0.082523  0  0.960383  0  0  0.081865  0  1.040824  0  0  0.085159  0  1.03692  0  0  0.110745  0.079426  0  1.043729  0
H  H6  1  0.99292895  0.97037018  0.80855065  1  0  0.082494  0  0.96043  0  0  0.081851  0  1.040859  0  0  0.085148  0  1.036953  0  0  0.110738  0.079414  0  1.043766  0
H  H7  1  0.00706541  0.52963032  0.30854777  1  0  0.082514  0  0.960411  0  0  0.081878  0  1.040816  0  0  0.085174  0  1.036912  0  0  0.110778  0.079438  0  1.043723  0
H  H8  1  0.76360454  0.06826895  0.27674319  1  0  0.117516  0  0.961654  0  0  0.123896  0  1.025677  0  0  0.127825  0  1.024641  0  0  0.101813  0.121099  0  1.026678  0
H  H9  1  0.23639995  0.43172567  0.77674643  1  0  0.117562  0  0.961563  0  0  0.123901  0  1.025639  0  0  0.127836  0  1.024595  0  0  0.101809  0.1211  0  1.026643  0
H  H10  1  0.23639836  0.93173123  0.72325416  1  0  0.117514  0  0.961718  0  0  0.123899  0  1.025717  0  0  0.127837  0  1.02467  0  0  0.101807  0.121102  0  1.026718  0
H  H11  1  0.76359617  0.56826772  0.22325092  1  0  0.117527  0  0.961619  0  0  0.12389  0  1.02565  0  0  0.127829  0  1.024606  0  0  0.101814  0.121089  0  1.026655  0
H  H12  1  0.66490089  0.95247223  0.43701062  1  0  0.07511  0  0.945138  0  0  0.080344  0  1.016837  0  0  0.083542  0  1.013313  0  0  0.104691  0.077946  0  1.019452  0
H  H13  1  0.33509638  0.54752336  0.93701707  1  0  0.074974  0  0.945146  0  0  0.080224  0  1.01684  0  0  0.08342  0  1.013316  0  0  0.104648  0.077823  0  1.019452  0
H  H14  1  0.33509962  0.04752795  0.56298529  1  0  0.07501  0  0.945114  0  0  0.080315  0  1.016757  0  0  0.08351  0  1.013236  0  0  0.104673  0.077917  0  1.019371  0
H  H15  1  0.66490020  0.45247100  0.06298173  1  0  0.074927  0  0.945229  0  0  0.080225  0  1.016873  0  0  0.083421  0  1.013349  0  0  0.10464  0.077824  0  1.019486  0
H  H16  1  0.49870010  0.35588586  0.65160848  1  0  0.076448  0  0.954421  0  0  0.085741  0  1.016296  0  0  0.087904  0  1.014419  0  0  0.111806  0.08408  0  1.017791  0
H  H17  1  0.50129912  0.14411369  0.15160805  1  0  0.076447  0  0.954421  0  0  0.085769  0  1.016265  0  0  0.087932  0  1.014389  0  0  0.111817  0.08411  0  1.017761  0
H  H18  1  0.50129370  0.64411525  0.34839250  1  0  0.076399  0  0.954406  0  0  0.085688  0  1.016293  0  0  0.087849  0  1.014419  0  0  0.111788  0.084028  0  1.017789  0
H  H19  1  0.49870258  0.85588649  0.84839438  1  0  0.076479  0  0.954453  0  0  0.085773  0  1.016328  0  0  0.087934  0  1.014453  0  0  0.11181  0.084114  0  1.017824  0
H  H20  1  0.43595886  0.26536876  0.48166258  1  0  0.124206  0  0.978208  0  0  0.12856  0  1.046477  0  0  0.131965  0  1.04591  0  0  0.105479  0.126093  0  1.047125  0
H  H21  1  0.56404297  0.23462627  0.98166196  1  0  0.124198  0  0.978073  0  0  0.12855  0  1.046365  0  0  0.131961  0  1.045786  0  0  0.105468  0.126085  0  1.047011  0
H  H22  1  0.56404148  0.73462851  0.51833912  1  0  0.124208  0  0.978194  0  0  0.128565  0  1.046456  0  0  0.131973  0  1.045891  0  0  0.105491  0.126099  0  1.047103  0
H  H23  1  0.43596601  0.76536911  0.01833684  1  0  0.124191  0  0.978197  0  0  0.128555  0  1.04645  0  0  0.131962  0  1.045884  0  0  0.105491  0.12609  0  1.047097  0
H  H24  1  0.64183976  0.38585412  0.34958590  1  0  0.071776  0  0.952737  0  0  0.080028  0  1.018319  0  0  0.082251  0  1.016149  0  0  0.109955  0.078371  0  1.01991  0
H  H25  1  0.35815942  0.11414386  0.84958753  1  0  0.071834  0  0.952811  0  0  0.08008  0  1.018365  0  0  0.082301  0  1.016194  0  0  0.109977  0.078425  0  1.01996  0
H  H26  1  0.35816535  0.61414317  0.65041508  1  0  0.071806  0  0.952678  0  0  0.080029  0  1.018284  0  0  0.08225  0  1.016112  0  0  0.109935  0.07837  0  1.01988  0
H  H27  1  0.64184330  0.88585342  0.15041708  1  0  0.071798  0  0.952529  0  0  0.080029  0  1.018148  0  0  0.082251  0  1.015979  0  0  0.109961  0.078373  0  1.019743  0
C  C28  1  0.98260619  0.85993208  0.38972194  1  0  0.35393  0  3.760505  0  0  0.340162  0  4.035095  0  0  0.355312  0  4.047052  0  0  0.239004  0.329989  0  4.027215  0
C  C29  1  0.01739662  0.64006804  0.88972684  1  0  0.354048  0  3.760707  0  0  0.340403  0  4.035128  0  0  0.355558  0  4.047084  0  0  0.239088  0.330233  0  4.027225  0
C  C30  1  0.01739670  0.14006811  0.61027759  1  0  0.353928  0  3.760507  0  0  0.340179  0  4.035099  0  0  0.355328  0  4.047052  0  0  0.238995  0.330009  0  4.027211  0
C  C31  1  0.98260104  0.35993115  0.11027414  1  0  0.354078  0  3.760464  0  0  0.340408  0  4.034956  0  0  0.355561  0  4.046902  0  0  0.239036  0.330221  0  4.027078  0
C  C32  1  0.96107896  0.98668392  0.26192907  1  0  0.194731  0  3.646386  0  0  0.159355  0  3.902864  0  0  0.170757  0  3.915233  0  0  0.061464  0.151826  0  3.894855  0
C  C33  1  0.03892595  0.51331148  0.76193213  1  0  0.194622  0  3.646248  0  0  0.159344  0  3.902638  0  0  0.17075  0  3.915009  0  0  0.061469  0.151814  0  3.894617  0
C  C34  1  0.03892348  0.01331529  0.73807046  1  0  0.194632  0  3.646365  0  0  0.159296  0  3.902818  0  0  0.170701  0  3.915185  0  0  0.061487  0.15177  0  3.894808  0
C  C35  1  0.96106796  0.48668481  0.23806595  1  0  0.194576  0  3.646422  0  0  0.159322  0  3.902769  0  0  0.170723  0  3.915139  0  0  0.061415  0.151793  0  3.894747  0
C  C36  1  0.82628506  0.00713822  0.30857500  1  0  -0.182082  0  3.716201  0  0  -0.191114  0  3.964397  0  0  -0.202142  0  3.983731  0  0  -0.092816  -0.184441  0  3.952095  0
C  C37  1  0.17371669  0.49286047  0.80857981  1  0  -0.182199  0  3.716199  0  0  -0.191236  0  3.964399  0  0  -0.202268  0  3.98373  0  0  -0.09284  -0.184558  0  3.952085  0
C  C38  1  0.17372068  0.99286294  0.69142163  1  0  -0.182106  0  3.71624  0  0  -0.191138  0  3.964452  0  0  -0.202177  0  3.983784  0  0  -0.092831  -0.184467  0  3.952149  0
C  C39  1  0.82627631  0.50713388  0.19141827  1  0  -0.182103  0  3.71625  0  0  -0.191147  0  3.964454  0  0  -0.202189  0  3.983785  0  0  -0.09284  -0.184474  0  3.952142  0
C  C40  1  0.77265028  0.94397557  0.39676322  1  0  0.180427  0  3.684536  0  0  0.150495  0  3.943482  0  0  0.162301  0  3.956214  0  0  0.059289  0.142834  0  3.934927  0
C  C41  1  0.22735332  0.55602363  0.89676884  1  0  0.180662  0  3.684377  0  0  0.150745  0  3.94331  0  0  0.162549  0  3.956043  0  0  0.059368  0.143085  0  3.934739  0
C  C42  1  0.22734903  0.05602459  0.60323704  1  0  0.180541  0  3.684484  0  0  0.15055  0  3.943456  0  0  0.162357  0  3.956187  0  0  0.059319  0.142891  0  3.934897  0
C  C43  1  0.77264059  0.44397265  0.10323142  1  0  0.180668  0  3.684214  0  0  0.150688  0  3.943168  0  0  0.162494  0  3.9559  0  0  0.059352  0.14303  0  3.934593  0
C  C44  1  0.58088509  0.40087141  0.59043821  1  0  0.189329  0  3.668059  0  0  0.158289  0  3.916154  0  0  0.168329  0  3.930547  0  0  0.059568  0.151739  0  3.906809  0
C  C45  1  0.41911389  0.09913062  0.09043464  1  0  0.189228  0  3.668127  0  0  0.158167  0  3.916226  0  0  0.1682  0  3.930626  0  0  0.059458  0.151614  0  3.906893  0
C  C46  1  0.41911229  0.59912971  0.40956567  1  0  0.189367  0  3.668066  0  0  0.158336  0  3.916161  0  0  0.168368  0  3.93056  0  0  0.059541  0.151783  0  3.90682  0
C  C47  1  0.58088304  0.90086954  0.90956344  1  0  0.189227  0  3.668029  0  0  0.158179  0  3.916166  0  0  0.168216  0  3.930557  0  0  0.059542  0.151625  0  3.906832  0
C  C48  1  0.54709616  0.35131980  0.49714431  1  0  -0.180808  0  3.700374  0  0  -0.193608  0  3.951322  0  0  -0.204601  0  3.97292  0  0  -0.093728  -0.186796  0  3.937278  0
C  C49  1  0.45290219  0.14867532  0.99714835  1  0  -0.180705  0  3.7004  0  0  -0.193531  0  3.951328  0  0  -0.204516  0  3.972929  0  0  -0.093601  -0.186711  0  3.937292  0
C  C50  1  0.45290509  0.64867941  0.50285449  1  0  -0.180824  0  3.700484  0  0  -0.193635  0  3.951417  0  0  -0.204621  0  3.973016  0  0  -0.093727  -0.186816  0  3.93737  0
C  C51  1  0.54710531  0.85132198  0.00285771  1  0  -0.180782  0  3.700486  0  0  -0.193557  0  3.951385  0  0  -0.204544  0  3.972981  0  0  -0.093723  -0.18674  0  3.937349  0
C  C52  1  0.65970411  0.41893963  0.42469386  1  0  0.184913  0  3.701852  0  0  0.153969  0  3.964469  0  0  0.165547  0  3.977898  0  0  0.060925  0.146349  0  3.955231  0
C  C53  1  0.34029353  0.08106466  0.92469027  1  0  0.184652  0  3.701781  0  0  0.153763  0  3.964346  0  0  0.165342  0  3.977775  0  0  0.0608  0.146137  0  3.955128  0
C  C54  1  0.34029685  0.58106151  0.57531075  1  0  0.184876  0  3.701656  0  0  0.153955  0  3.964301  0  0  0.165531  0  3.977733  0  0  0.060946  0.14633  0  3.955071  0
C  C55  1  0.65970760  0.91893938  0.07530490  1  0  0.184882  0  3.701743  0  0  0.153952  0  3.964396  0  0  0.165525  0  3.977829  0  0  0.060915  0.146329  0  3.955174  0
C  C56  1  0.81583997  0.56735910  0.53456534  1  0  0.347476  0  3.771074  0  0  0.33342  0  4.049661  0  0  0.348518  0  4.062346  0  0  0.237574  0.323256  0  4.041422  0
C  C57  1  0.18415660  0.93264052  0.03456546  1  0  0.347612  0  3.771118  0  0  0.333589  0  4.049633  0  0  0.348689  0  4.062321  0  0  0.237682  0.323435  0  4.041387  0
C  C58  1  0.18415678  0.43263816  0.46543781  1  0  0.347393  0  3.771099  0  0  0.33336  0  4.049649  0  0  0.34846  0  4.062338  0  0  0.237577  0.323199  0  4.041408  0
C  C59  1  0.81583822  0.06735770  0.96543479  1  0  0.347496  0  3.770966  0  0  0.333455  0  4.049527  0  0  0.348555  0  4.062217  0  0  0.237596  0.323292  0  4.041303  0
C  C60  1  0.62747493  0.32446677  0.80604949  1  0  0.286034  0  4.001497  0  0  0.27289  0  4.297786  0  0  0.289551  0  4.313968  0  0  0.137929  0.262131  0  4.286369  0
C  C61  1  0.37252493  0.17554059  0.30604175  1  0  0.286151  0  4.001291  0  0  0.273016  0  4.297577  0  0  0.289682  0  4.313737  0  0  0.138003  0.262249  0  4.286143  0
C  C62  1  0.37252740  0.67553727  0.19395584  1  0  0.28609  0  4.001615  0  0  0.272948  0  4.297906  0  0  0.289614  0  4.314074  0  0  0.137981  0.262191  0  4.286489  0
C  C63  1  0.62747654  0.82446925  0.69395125  1  0  0.286114  0  4.001554  0  0  0.272978  0  4.297831  0  0  0.289642  0  4.314005  0  0  0.138009  0.262209  0  4.286399  0
S  S64  1  0.10783925  0.77536902  0.43873385  1  0  -0.007192  0  2.451098  0  0  -0.025833  0  2.841622  0  0  -0.021138  0  2.832726  0  0  0.042986  -0.029471  0  2.848176  0
S  S65  1  0.89216297  0.72462949  0.93873579  1  0  -0.007156  0  2.451104  0  0  -0.025832  0  2.841584  0  0  -0.021134  0  2.832685  0  0  0.043007  -0.029458  0  2.848108  0
S  S66  1  0.89216381  0.22463406  0.56126641  1  0  -0.007207  0  2.451082  0  0  -0.025849  0  2.841589  0  0  -0.02115  0  2.832695  0  0  0.042989  -0.029487  0  2.848143  0
S  S67  1  0.10783736  0.27536778  0.06126446  1  0  -0.007206  0  2.451127  0  0  -0.025861  0  2.841609  0  0  -0.021164  0  2.832709  0  0  0.043006  -0.029483  0  2.848136  0
S  S68  1  0.98531314  0.71079584  0.56851088  1  0  0.008708  0  2.460128  0  0  -0.010978  0  2.853054  0  0  -0.008057  0  2.845654  0  0  0.046316  -0.013264  0  2.858392  0
S  S69  1  0.01468621  0.78920692  0.06851394  1  0  0.008649  0  2.460086  0  0  -0.01106  0  2.85301  0  0  -0.008126  0  2.845596  0  0  0.046285  -0.013357  0  2.85836  0
S  S70  1  0.01468634  0.28920723  0.43149155  1  0  0.008746  0  2.460277  0  0  -0.010937  0  2.853153  0  0  -0.008019  0  2.845772  0  0  0.046321  -0.013224  0  2.858492  0
S  S71  1  0.98531430  0.21079325  0.93148777  1  0  0.008698  0  2.460131  0  0  -0.011  0  2.853053  0  0  -0.008073  0  2.84565  0  0  0.046304  -0.013295  0  2.858403  0
S  S72  1  0.55351055  0.43437378  0.84233658  1  0  -0.353139  0  2.306294  0  0  -0.328992  0  2.670078  0  0  -0.342557  0  2.660577  0  0  -0.160796  -0.32007  0  2.675365  0
S  S73  1  0.44648983  0.06563189  0.34233221  1  0  -0.353271  0  2.306184  0  0  -0.329124  0  2.669972  0  0  -0.342689  0  2.660468  0  0  -0.160879  -0.320192  0  2.675277  0
S  S74  1  0.44648683  0.56562734  0.15766657  1  0  -0.353192  0  2.306275  0  0  -0.329034  0  2.670022  0  0  -0.342598  0  2.66052  0  0  -0.160826  -0.320114  0  2.675309  0
S  S75  1  0.55351119  0.93437698  0.65766297  1  0  -0.3532  0  2.306189  0  0  -0.329058  0  2.669974  0  0  -0.342623  0  2.660473  0  0  -0.160829  -0.320123  0  2.675279  0
N  N76  1  0.85080544  0.87010636  0.43757991  1  0  -0.364953  0  3.067614  0  0  -0.325734  0  3.331435  0  0  -0.34249  0  3.347143  0  0  -0.314767  -0.314502  0  3.320735  0
N  N77  1  0.14919394  0.62989117  0.93758204  1  0  -0.365033  0  3.067711  0  0  -0.325894  0  3.331538  0  0  -0.342652  0  3.347244  0  0  -0.314841  -0.314666  0  3.320828  0
N  N78  1  0.14919700  0.12989285  0.56241817  1  0  -0.364963  0  3.06759  0  0  -0.325781  0  3.331467  0  0  -0.342531  0  3.34717  0  0  -0.3148  -0.314548  0  3.320764  0
N  N79  1  0.85080071  0.37010415  0.06241603  1  0  -0.365014  0  3.067355  0  0  -0.325842  0  3.331201  0  0  -0.342599  0  3.346905  0  0  -0.31475  -0.314606  0  3.320492  0
N  N80  1  0.71639749  0.50853483  0.61058686  1  0  -0.371675  0  3.257058  0  0  -0.304026  0  3.534719  0  0  -0.316743  0  3.54109  0  0  -0.343966  -0.296481  0  3.530763  0
N  N81  1  0.28360033  0.99146434  0.11058730  1  0  -0.371626  0  3.256948  0  0  -0.303982  0  3.534598  0  0  -0.316706  0  3.54098  0  0  -0.343953  -0.296444  0  3.530685  0
N  N82  1  0.28360035  0.49146726  0.38941339  1  0  -0.371663  0  3.256887  0  0  -0.304003  0  3.53452  0  0  -0.316722  0  3.540892  0  0  -0.34391  -0.296472  0  3.530577  0
N  N83  1  0.71640018  0.00853583  0.88941585  1  0  -0.371585  0  3.256951  0  0  -0.303935  0  3.534612  0  0  -0.316658  0  3.540991  0  0  -0.343944  -0.296387  0  3.530684  0
N  N84  1  0.67840354  0.24395063  0.77811419  1  0  -0.526162  0  3.176806  0  0  -0.483052  0  3.522223  0  0  -0.492853  0  3.519997  0  0  -0.447622  -0.477398  0  3.522682  0
N  N85  1  0.32159954  0.25605366  0.27811100  1  0  -0.52611  0  3.176709  0  0  -0.483023  0  3.522122  0  0  -0.492815  0  3.51989  0  0  -0.44756  -0.477351  0  3.52248  0
N  N86  1  0.32160265  0.75605150  0.22188679  1  0  -0.526136  0  3.176941  0  0  -0.483032  0  3.522353  0  0  -0.492834  0  3.520135  0  0  -0.447628  -0.477373  0  3.522802  0
N  N87  1  0.67840313  0.74395619  0.72188707  1  0  -0.526164  0  3.176961  0  0  -0.483068  0  3.522351  0  0  -0.492863  0  3.520115  0  0  -0.44764  -0.4774  0  3.522723  0
N  N88  1  0.03948610  0.91153778  0.30150860  1  0  -0.378119  0  3.346348  0  0  -0.306345  0  3.629913  0  0  -0.318965  0  3.635156  0  0  -0.362248  -0.298754  0  3.626193  0
N  N89  1  0.96051777  0.58846271  0.80151381  1  0  -0.37824  0  3.346347  0  0  -0.306531  0  3.629907  0  0  -0.319164  0  3.635151  0  0  -0.362302  -0.298941  0  3.626136  0
N  N90  1  0.96051799  0.08846241  0.69849021  1  0  -0.378067  0  3.346384  0  0  -0.306313  0  3.629961  0  0  -0.318931  0  3.635199  0  0  -0.362233  -0.29872  0  3.626238  0
N  N91  1  0.03947870  0.41153648  0.19848790  1  0  -0.378252  0  3.346406  0  0  -0.306609  0  3.630062  0  0  -0.319221  0  3.635281  0  0  -0.362336  -0.299015  0  3.626296  0
N  N92  1  0.79336694  0.52789596  0.44267479  1  0  -0.393708  0  3.100124  0  0  -0.353579  0  3.368425  0  0  -0.371447  0  3.385096  0  0  -0.31963  -0.34154  0  3.357094  0
N  N93  1  0.20662632  0.97209868  0.94267812  1  0  -0.393662  0  3.100061  0  0  -0.353574  0  3.368346  0  0  -0.371453  0  3.385022  0  0  -0.319656  -0.341536  0  3.357028  0
N  N94  1  0.20663459  0.47210132  0.55732619  1  0  -0.393683  0  3.100087  0  0  -0.353533  0  3.368321  0  0  -0.37141  0  3.384997  0  0  -0.319666  -0.341497  0  3.356991  0
N  N95  1  0.79336906  0.02789568  0.05732576  1  0  -0.393735  0  3.100093  0  0  -0.353577  0  3.368335  0  0  -0.371451  0  3.385011  0  0  -0.319643  -0.341541  0  3.357016  0
