# generated using pymatgen
data_ZnH10C14N2O5
_symmetry_space_group_name_H-M   'P 1'
_cell_length_a   6.09955859
_cell_length_b   7.37868471
_cell_length_c   14.53907344
_cell_angle_alpha   93.46698400
_cell_angle_beta   91.01169734
_cell_angle_gamma   92.47243348
_symmetry_Int_Tables_number   1
_chemical_formula_structural   ZnH10C14N2O5
_chemical_formula_sum   'Zn2 H20 C28 N4 O10'
_cell_volume   652.41562627
_cell_formula_units_Z   2
loop_
 _symmetry_equiv_pos_site_id
 _symmetry_equiv_pos_as_xyz
  1  'x, y, z'
loop_
 _atom_site_type_symbol
 _atom_site_label
 _atom_site_symmetry_multiplicity
 _atom_site_fract_x
 _atom_site_fract_y
 _atom_site_fract_z
 _atom_site_occupancy
 _atom_site_hle17_bader_spin_density
 _atom_site_hle17_ddec_charge
 _atom_site_hle17_ddec_spin_density
 _atom_site_hle17_ddec_sum_bond_order
 _atom_site_hle17_magmom
 _atom_site_hse06_10hf_bader_spin_density
 _atom_site_hse06_10hf_ddec_charge
 _atom_site_hse06_10hf_ddec_spin_density
 _atom_site_hse06_10hf_ddec_sum_bond_order
 _atom_site_hse06_10hf_magmom
 _atom_site_hse06_bader_spin_density
 _atom_site_hse06_ddec_charge
 _atom_site_hse06_ddec_spin_density
 _atom_site_hse06_ddec_sum_bond_order
 _atom_site_hse06_magmom
 _atom_site_pbe_bader_spin_density
 _atom_site_pbe_cm5_charge
 _atom_site_pbe_ddec_charge
 _atom_site_pbe_ddec_spin_density
 _atom_site_pbe_ddec_sum_bond_order
 _atom_site_pbe_magmom
Zn  Zn0  1  0.30875991  0.24790398  0.99778022  1  0  1.225188  0  1.676111  0  0  1.056424  0  2.146635  0  0  1.104416  0  2.082193  0  0  0.701808  1.022486  0  2.191477  0
Zn  Zn1  1  0.69129671  0.75215924  0.00221823  1  0  1.225024  0  1.675889  0  0  1.056316  0  2.146394  0  0  1.104303  0  2.081954  0  0  0.701753  1.022377  0  2.191256  0
H  H2  1  0.90203368  0.34015583  0.96590353  1  0  0.435463  0  0.868301  0  0  0.407329  0  0.926505  0  0  0.417298  0  0.912089  0  0  0.298241  0.400321  0  0.936628  0
H  H3  1  0.88589935  0.15064195  0.01223313  1  0  0.437972  0  0.866131  0  0  0.408858  0  0.92568  0  0  0.419081  0  0.910944  0  0  0.298441  0.401661  0  0.936051  0
H  H4  1  0.09798642  0.65990661  0.03415255  1  0  0.435376  0  0.868332  0  0  0.407192  0  0.926644  0  0  0.417163  0  0.912227  0  0  0.298132  0.400183  0  0.936771  0
H  H5  1  0.11413608  0.84943083  0.98783628  1  0  0.438312  0  0.865631  0  0  0.409147  0  0.925253  0  0  0.419371  0  0.910515  0  0  0.298589  0.401952  0  0.935624  0
H  H6  1  0.00466963  0.44214387  0.17677313  1  0  0.103987  0  0.935881  0  0  0.114598  0  0.993064  0  0  0.118145  0  0.990837  0  0  0.106334  0.11201  0  0.994766  0
H  H7  1  0.02948788  0.04920662  0.82337717  1  0  0.109013  0  0.950415  0  0  0.116264  0  1.013348  0  0  0.120165  0  1.010502  0  0  0.104865  0.113439  0  1.015431  0
H  H8  1  0.99543701  0.55780559  0.82317996  1  0  0.103948  0  0.936053  0  0  0.114623  0  0.993127  0  0  0.118171  0  0.990891  0  0  0.106307  0.112042  0  0.994825  0
H  H9  1  0.97040459  0.95079778  0.17661262  1  0  0.109161  0  0.950395  0  0  0.116331  0  1.013437  0  0  0.120236  0  1.010582  0  0  0.104935  0.113511  0  1.015501  0
H  H10  1  0.86489834  0.41035399  0.33606789  1  0  0.102815  0  0.980006  0  0  0.106276  0  1.053409  0  0  0.108722  0  1.053678  0  0  0.102837  0.104376  0  1.0536  0
H  H11  1  0.88356758  0.08593546  0.66368628  1  0  0.10585  0  0.970387  0  0  0.109662  0  1.0422  0  0  0.112177  0  1.042479  0  0  0.103998  0.107746  0  1.042318  0
H  H12  1  0.13514471  0.58956245  0.66386849  1  0  0.102806  0  0.979936  0  0  0.106299  0  1.053335  0  0  0.108726  0  1.053654  0  0  0.102846  0.104402  0  1.053528  0
H  H13  1  0.11637735  0.91402036  0.33628901  1  0  0.105753  0  0.970442  0  0  0.109573  0  1.042206  0  0  0.11211  0  1.042415  0  0  0.103954  0.107647  0  1.042357  0
H  H14  1  0.48491903  0.63026117  0.44895405  1  0  0.104475  0  0.961534  0  0  0.109411  0  1.033255  0  0  0.113032  0  1.030619  0  0  0.10547  0.106843  0  1.035182  0
H  H15  1  0.47698078  0.87488725  0.55178233  1  0  0.103028  0  0.965407  0  0  0.107733  0  1.038586  0  0  0.111366  0  1.035837  0  0  0.104585  0.105198  0  1.040525  0
H  H16  1  0.51502222  0.36971886  0.55104853  1  0  0.10458  0  0.961369  0  0  0.109535  0  1.033077  0  0  0.113162  0  1.030429  0  0  0.10551  0.106967  0  1.035001  0
H  H17  1  0.52299652  0.12507791  0.44823799  1  0  0.102931  0  0.96551  0  0  0.107764  0  1.03854  0  0  0.111392  0  1.035803  0  0  0.104585  0.105234  0  1.040471  0
H  H18  1  0.61811495  0.67465494  0.28983964  1  0  0.103956  0  0.961025  0  0  0.11228  0  1.024134  0  0  0.11462  0  1.024249  0  0  0.104221  0.110427  0  1.02441  0
H  H19  1  0.61584703  0.82623482  0.71097877  1  0  0.105207  0  0.955881  0  0  0.114049  0  1.017701  0  0  0.116388  0  1.017767  0  0  0.104981  0.112208  0  1.018045  0
H  H20  1  0.38191593  0.32534533  0.71018707  1  0  0.104083  0  0.96072  0  0  0.112305  0  1.02397  0  0  0.114671  0  1.024054  0  0  0.104214  0.110451  0  1.024245  0
H  H21  1  0.38409758  0.17378583  0.28905145  1  0  0.10523  0  0.95574  0  0  0.114071  0  1.017591  0  0  0.116412  0  1.017658  0  0  0.105016  0.112233  0  1.017928  0
C  C22  1  0.40003715  0.58566740  0.12905592  1  0  0.683758  0  3.850205  0  0  0.627391  0  4.143268  0  0  0.663909  0  4.133185  0  0  0.225235  0.602513  0  4.149432  0
C  C23  1  0.41110436  0.90544033  0.87154262  1  0  0.681869  0  3.853659  0  0  0.627158  0  4.143617  0  0  0.663595  0  4.133991  0  0  0.224953  0.602305  0  4.149456  0
C  C24  1  0.60009034  0.41435468  0.87093581  1  0  0.683775  0  3.850157  0  0  0.627108  0  4.143834  0  0  0.663662  0  4.133702  0  0  0.225009  0.602198  0  4.150027  0
C  C25  1  0.58882474  0.09462542  0.12847052  1  0  0.681984  0  3.851991  0  0  0.62707  0  4.142205  0  0  0.663541  0  4.132542  0  0  0.22484  0.602224  0  4.148033  0
C  C26  1  0.31887591  0.56255076  0.22383692  1  0  -0.067346  0  3.729964  0  0  -0.044937  0  3.962429  0  0  -0.054483  0  3.986123  0  0  -0.013821  -0.03875  0  3.946465  0
C  C27  1  0.32949259  0.93231278  0.77644181  1  0  -0.067743  0  3.730754  0  0  -0.046256  0  3.963883  0  0  -0.055914  0  3.987567  0  0  -0.014761  -0.039957  0  3.947853  0
C  C28  1  0.68120829  0.43745521  0.77614470  1  0  -0.067983  0  3.730554  0  0  -0.045346  0  3.962996  0  0  -0.05492  0  3.986702  0  0  -0.013966  -0.039114  0  3.946968  0
C  C29  1  0.67044999  0.06769553  0.22358609  1  0  -0.067469  0  3.730566  0  0  -0.045829  0  3.96354  0  0  -0.055481  0  3.987204  0  0  -0.014662  -0.039537  0  3.947516  0
C  C30  1  0.10680500  0.48662863  0.23685196  1  0  -0.041459  0  3.706872  0  0  -0.065066  0  3.955504  0  0  -0.064229  0  3.974854  0  0  -0.076225  -0.06534  0  3.942335  0
C  C31  1  0.12345939  0.00709114  0.76329314  1  0  -0.0406  0  3.701943  0  0  -0.064331  0  3.95123  0  0  -0.063271  0  3.969906  0  0  -0.075315  -0.064731  0  3.938522  0
C  C32  1  0.89328015  0.51330991  0.76310772  1  0  -0.041112  0  3.707428  0  0  -0.064766  0  3.956067  0  0  -0.063919  0  3.975411  0  0  -0.075998  -0.065055  0  3.9429  0
C  C33  1  0.87646246  0.99290066  0.23670684  1  0  -0.040763  0  3.702573  0  0  -0.064513  0  3.951812  0  0  -0.063462  0  3.970489  0  0  -0.075375  -0.064912  0  3.939098  0
C  C34  1  0.02858270  0.46874804  0.32497743  1  0  -0.130434  0  3.706252  0  0  -0.148961  0  3.954392  0  0  -0.1532  0  3.977056  0  0  -0.081979  -0.146208  0  3.939355  0
C  C35  1  0.04241492  0.02811355  0.67503666  1  0  -0.133697  0  3.703467  0  0  -0.151142  0  3.950419  0  0  -0.155425  0  3.972438  0  0  -0.082235  -0.148397  0  3.935808  0
C  C36  1  0.97145732  0.53116627  0.67497335  1  0  -0.130436  0  3.706039  0  0  -0.149064  0  3.954257  0  0  -0.153298  0  3.976894  0  0  -0.082002  -0.146322  0  3.93924  0
C  C37  1  0.95750942  0.97185363  0.32495803  1  0  -0.133497  0  3.70359  0  0  -0.150893  0  3.95047  0  0  -0.155165  0  3.972507  0  0  -0.082251  -0.148152  0  3.935858  0
C  C38  1  0.16486008  0.52370379  0.40179314  1  0  0.16737  0  3.789984  0  0  0.171722  0  4.038385  0  0  0.173028  0  4.06191  0  0  0.092032  0.170856  0  4.022433  0
C  C39  1  0.16926251  0.97662232  0.59848844  1  0  0.168625  0  3.793163  0  0  0.172757  0  4.041674  0  0  0.174089  0  4.065328  0  0  0.092796  0.171903  0  4.025642  0
C  C40  1  0.83512770  0.47621013  0.59816912  1  0  0.167419  0  3.789914  0  0  0.17187  0  4.038247  0  0  0.173174  0  4.061771  0  0  0.092095  0.17101  0  4.022294  0
C  C41  1  0.83070334  0.02335294  0.40151964  1  0  0.168414  0  3.793512  0  0  0.172588  0  4.041983  0  0  0.173906  0  4.065651  0  0  0.092903  0.171729  0  4.025965  0
C  C42  1  0.37935358  0.59375215  0.38895141  1  0  -0.123531  0  3.70409  0  0  -0.145138  0  3.958764  0  0  -0.150242  0  3.979933  0  0  -0.077498  -0.141725  0  3.944416  0
C  C43  1  0.37845387  0.90848330  0.61160626  1  0  -0.124616  0  3.706538  0  0  -0.147728  0  3.963466  0  0  -0.152799  0  3.984399  0  0  -0.078439  -0.144386  0  3.949329  0
C  C44  1  0.62063122  0.40621303  0.61103591  1  0  -0.123736  0  3.704081  0  0  -0.145351  0  3.958684  0  0  -0.150458  0  3.979852  0  0  -0.077619  -0.14194  0  3.944343  0
C  C45  1  0.62152039  0.09149767  0.38840472  1  0  -0.124452  0  3.706612  0  0  -0.147699  0  3.96356  0  0  -0.152768  0  3.984512  0  0  -0.07843  -0.144363  0  3.949427  0
C  C46  1  0.45413515  0.61659018  0.30054214  1  0  -0.05337  0  3.719631  0  0  -0.075768  0  3.96406  0  0  -0.074834  0  3.985657  0  0  -0.078704  -0.076183  0  3.949652  0
C  C47  1  0.45631850  0.88308013  0.70007428  1  0  -0.055867  0  3.718803  0  0  -0.077099  0  3.96294  0  0  -0.07593  0  3.984046  0  0  -0.078844  -0.077708  0  3.948837  0
C  C48  1  0.54590626  0.38339683  0.69945683  1  0  -0.053288  0  3.719496  0  0  -0.075644  0  3.963935  0  0  -0.074721  0  3.985517  0  0  -0.078664  -0.076065  0  3.949517  0
C  C49  1  0.54363363  0.11692650  0.29994262  1  0  -0.056157  0  3.718663  0  0  -0.077462  0  3.962909  0  0  -0.07631  0  3.98403  0  0  -0.079037  -0.078072  0  3.9488  0
N  N50  1  0.10259072  0.50877739  0.49427588  1  0  -0.141617  0  2.982321  0  0  -0.117603  0  3.265257  0  0  -0.117143  0  3.273324  0  0  -0.139604  -0.117603  0  3.259404  0
N  N51  1  0.10245401  0.99333664  0.50602870  1  0  -0.142757  0  2.979823  0  0  -0.118751  0  3.262605  0  0  -0.11822  0  3.270447  0  0  -0.140727  -0.118801  0  3.256927  0
N  N52  1  0.89736895  0.49112922  0.50568544  1  0  -0.142034  0  2.982568  0  0  -0.118056  0  3.265496  0  0  -0.117598  0  3.273561  0  0  -0.139885  -0.118058  0  3.259638  0
N  N53  1  0.89753289  0.00663974  0.49396573  1  0  -0.142598  0  2.980115  0  0  -0.118556  0  3.262844  0  0  -0.118018  0  3.270691  0  0  -0.140654  -0.118604  0  3.257165  0
O  O54  1  0.28401565  0.52112427  0.05916465  1  0  -0.710288  0  2.118717  0  0  -0.642333  0  2.382463  0  0  -0.667725  0  2.363165  0  0  -0.328605  -0.624592  0  2.395362  0
O  O55  1  0.30161347  0.96385028  0.94050697  1  0  -0.698295  0  2.141406  0  0  -0.627602  0  2.398958  0  0  -0.65375  0  2.381876  0  0  -0.321878  -0.609323  0  2.410331  0
O  O56  1  0.71612713  0.47899211  0.94080627  1  0  -0.710295  0  2.118685  0  0  -0.642307  0  2.382657  0  0  -0.667647  0  2.363257  0  0  -0.328651  -0.624573  0  2.395597  0
O  O57  1  0.69828995  0.03624824  0.05949019  1  0  -0.697949  0  2.14069  0  0  -0.627435  0  2.3985  0  0  -0.653603  0  2.381422  0  0  -0.321717  -0.609139  0  2.409835  0
O  O58  1  0.58185634  0.67512692  0.12172420  1  0  -0.626233  0  2.071794  0  0  -0.55195  0  2.340119  0  0  -0.582054  0  2.327027  0  0  -0.298881  -0.530968  0  2.348435  0
O  O59  1  0.58763390  0.81988050  0.87996582  1  0  -0.630936  0  2.062826  0  0  -0.558648  0  2.332718  0  0  -0.588806  0  2.31867  0  0  -0.302248  -0.53758  0  2.341724  0
O  O60  1  0.41827844  0.32489798  0.87829789  1  0  -0.626028  0  2.071784  0  0  -0.551786  0  2.340463  0  0  -0.581898  0  2.327332  0  0  -0.29871  -0.530799  0  2.348801  0
O  O61  1  0.41226223  0.18016387  0.12006742  1  0  -0.631355  0  2.062302  0  0  -0.558768  0  2.332057  0  0  -0.588912  0  2.317942  0  0  -0.302179  -0.537699  0  2.341037  0
O  O62  1  0.98609334  0.22978392  0.97640795  1  0  -0.849623  0  1.910017  0  0  -0.778436  0  2.124089  0  0  -0.801893  0  2.088292  0  0  -0.580996  -0.761867  0  2.148799  0
O  O63  1  0.01395237  0.77030144  0.02366587  1  0  -0.849808  0  1.909909  0  0  -0.778482  0  2.123833  0  0  -0.80193  0  2.088016  0  0  -0.580919  -0.76193  0  2.148588  0
