# generated using pymatgen
data_CdH4C6(N2O)2
_symmetry_space_group_name_H-M   'P 1'
_cell_length_a   6.61475473
_cell_length_b   9.86402028
_cell_length_c   24.28192723
_cell_angle_alpha   89.99994656
_cell_angle_beta   89.99987128
_cell_angle_gamma   89.99996110
_symmetry_Int_Tables_number   1
_chemical_formula_structural   CdH4C6(N2O)2
_chemical_formula_sum   'Cd8 H32 C48 N32 O16'
_cell_volume   1584.34900334
_cell_formula_units_Z   8
loop_
 _symmetry_equiv_pos_site_id
 _symmetry_equiv_pos_as_xyz
  1  'x, y, z'
loop_
 _atom_site_type_symbol
 _atom_site_label
 _atom_site_symmetry_multiplicity
 _atom_site_fract_x
 _atom_site_fract_y
 _atom_site_fract_z
 _atom_site_occupancy
 _atom_site_hle17_bader_spin_density
 _atom_site_hle17_ddec_charge
 _atom_site_hle17_ddec_spin_density
 _atom_site_hle17_ddec_sum_bond_order
 _atom_site_hle17_magmom
 _atom_site_hse06_10hf_bader_spin_density
 _atom_site_hse06_10hf_ddec_charge
 _atom_site_hse06_10hf_ddec_spin_density
 _atom_site_hse06_10hf_ddec_sum_bond_order
 _atom_site_hse06_10hf_magmom
 _atom_site_hse06_bader_spin_density
 _atom_site_hse06_ddec_charge
 _atom_site_hse06_ddec_spin_density
 _atom_site_hse06_ddec_sum_bond_order
 _atom_site_hse06_magmom
 _atom_site_pbe_bader_spin_density
 _atom_site_pbe_cm5_charge
 _atom_site_pbe_ddec_charge
 _atom_site_pbe_ddec_spin_density
 _atom_site_pbe_ddec_sum_bond_order
 _atom_site_pbe_magmom
Cd  Cd0  1  0.86067605  0.86492697  0.96045999  1  0  1.154071  0  1.741682  0  0  0.974726  0  2.201014  0  0  1.025052  0  2.153343  0  0  0.799379  0.939311  0  2.233097  0
Cd  Cd1  1  0.13932570  0.63507214  0.46045999  1  0  1.154103  0  1.741682  0  0  0.974757  0  2.201015  0  0  1.025085  0  2.15334  0  0  0.799395  0.939345  0  2.233093  0
Cd  Cd2  1  0.63932343  0.36492607  0.03954025  1  0  1.154094  0  1.741736  0  0  0.974729  0  2.201073  0  0  1.025055  0  2.1534  0  0  0.799387  0.93932  0  2.233151  0
Cd  Cd3  1  0.36067473  0.13507505  0.53953982  1  0  1.154061  0  1.741721  0  0  0.97471  0  2.201059  0  0  1.025038  0  2.153386  0  0  0.799369  0.939293  0  2.233145  0
Cd  Cd4  1  0.13932164  0.13507467  0.03954045  1  0  1.154036  0  1.741719  0  0  0.974693  0  2.20105  0  0  1.025019  0  2.153379  0  0  0.799366  0.939279  0  2.233137  0
Cd  Cd5  1  0.86067652  0.36492544  0.53954045  1  0  1.154051  0  1.741733  0  0  0.974698  0  2.201069  0  0  1.025026  0  2.153396  0  0  0.799365  0.939283  0  2.233157  0
Cd  Cd6  1  0.36067576  0.63507253  0.96045978  1  0  1.154112  0  1.74172  0  0  0.974751  0  2.201061  0  0  1.025077  0  2.153388  0  0  0.7994  0.939338  0  2.233145  0
Cd  Cd7  1  0.63932296  0.86492456  0.46045980  1  0  1.154093  0  1.741698  0  0  0.974748  0  2.201028  0  0  1.025075  0  2.153356  0  0  0.799385  0.939336  0  2.233113  0
H  H8  1  0.75262136  0.32343188  0.85175170  1  0  0.119782  0  0.966751  0  0  0.122965  0  1.036999  0  0  0.126411  0  1.035564  0  0  0.108515  0.121038  0  1.036948  0
H  H9  1  0.24737876  0.17656852  0.35175204  1  0  0.119752  0  0.966842  0  0  0.122955  0  1.037032  0  0  0.126405  0  1.035594  0  0  0.108497  0.12101  0  1.037033  0
H  H10  1  0.74737816  0.82343268  0.14824814  1  0  0.119777  0  0.96677  0  0  0.122959  0  1.037024  0  0  0.126403  0  1.035592  0  0  0.108503  0.121039  0  1.036958  0
H  H11  1  0.25262162  0.67656715  0.64824859  1  0  0.119765  0  0.966763  0  0  0.122956  0  1.036997  0  0  0.126405  0  1.035561  0  0  0.108519  0.121021  0  1.036982  0
H  H12  1  0.24737783  0.67656773  0.14824874  1  0  0.119768  0  0.966755  0  0  0.122964  0  1.036978  0  0  0.126414  0  1.035541  0  0  0.108518  0.121028  0  1.036965  0
H  H13  1  0.75262346  0.82343210  0.64824799  1  0  0.11977  0  0.966777  0  0  0.122969  0  1.036983  0  0  0.126419  0  1.035544  0  0  0.108512  0.121031  0  1.036971  0
H  H14  1  0.25262406  0.17656693  0.85175106  1  0  0.11976  0  0.966772  0  0  0.122962  0  1.036976  0  0  0.126413  0  1.035539  0  0  0.10851  0.12102  0  1.036974  0
H  H15  1  0.74737908  0.32343347  0.35175186  1  0  0.119771  0  0.966762  0  0  0.122948  0  1.037032  0  0  0.126392  0  1.035598  0  0  0.108505  0.12103  0  1.036955  0
H  H16  1  0.80867226  0.23558342  0.75512181  1  0  0.089361  0  0.942241  0  0  0.102454  0  0.999241  0  0  0.104637  0  0.998507  0  0  0.106676  0.100753  0  0.99999  0
H  H17  1  0.19133017  0.26441822  0.25512173  1  0  0.089366  0  0.942268  0  0  0.102464  0  0.99926  0  0  0.104645  0  0.998529  0  0  0.106699  0.100764  0  1.00001  0
H  H18  1  0.69132735  0.73558301  0.24487848  1  0  0.089357  0  0.942242  0  0  0.102457  0  0.999233  0  0  0.104639  0  0.998499  0  0  0.106683  0.100757  0  0.999985  0
H  H19  1  0.30867163  0.76441863  0.74487844  1  0  0.089338  0  0.94231  0  0  0.102438  0  0.999294  0  0  0.104618  0  0.998563  0  0  0.106685  0.100741  0  1.000048  0
H  H20  1  0.19132845  0.76441822  0.24487863  1  0  0.089417  0  0.942236  0  0  0.102524  0  0.999202  0  0  0.104704  0  0.998472  0  0  0.106728  0.100822  0  0.999957  0
H  H21  1  0.80867356  0.73558240  0.74487789  1  0  0.089356  0  0.942269  0  0  0.102458  0  0.999255  0  0  0.10464  0  0.998522  0  0  0.106663  0.100755  0  1.000012  0
H  H22  1  0.30867336  0.26441762  0.75512114  1  0  0.089373  0  0.942264  0  0  0.102507  0  0.999209  0  0  0.104669  0  0.998498  0  0  0.10672  0.100807  0  0.99996  0
H  H23  1  0.69132907  0.23558301  0.25512159  1  0  0.089405  0  0.942231  0  0  0.102505  0  0.999211  0  0  0.104689  0  0.998477  0  0  0.106715  0.1008  0  0.999968  0
H  H24  1  0.92891977  0.99827750  0.74258515  1  0  0.107537  0  0.980428  0  0  0.113641  0  1.047461  0  0  0.116443  0  1.047003  0  0  0.10444  0.111603  0  1.047935  0
H  H25  1  0.07108226  0.50172313  0.24258565  1  0  0.107463  0  0.980544  0  0  0.113588  0  1.047548  0  0  0.11639  0  1.047094  0  0  0.10441  0.111548  0  1.04802  0
H  H26  1  0.57108109  0.49827714  0.25741422  1  0  0.107514  0  0.980552  0  0  0.113643  0  1.047536  0  0  0.116442  0  1.047095  0  0  0.104435  0.111606  0  1.048006  0
H  H27  1  0.42891830  0.00172348  0.75741421  1  0  0.107492  0  0.980565  0  0  0.113622  0  1.047555  0  0  0.116422  0  1.047103  0  0  0.104427  0.111582  0  1.048027  0
H  H28  1  0.07108094  0.00172312  0.25741488  1  0  0.107544  0  0.980527  0  0  0.113672  0  1.047511  0  0  0.116477  0  1.047042  0  0  0.104473  0.111634  0  1.047985  0
H  H29  1  0.92891845  0.49827648  0.75741438  1  0  0.107445  0  0.980578  0  0  0.113574  0  1.047579  0  0  0.116377  0  1.04712  0  0  0.104408  0.111533  0  1.048055  0
H  H30  1  0.42891811  0.50172450  0.74258539  1  0  0.107553  0  0.980435  0  0  0.113679  0  1.047436  0  0  0.116479  0  1.046983  0  0  0.104462  0.111642  0  1.047907  0
H  H31  1  0.57108241  0.99827714  0.24258582  1  0  0.107502  0  0.98056  0  0  0.113636  0  1.047538  0  0  0.116435  0  1.04709  0  0  0.104427  0.111595  0  1.048014  0
H  H32  1  0.98129936  0.85302019  0.82716123  1  0  0.070545  0  0.949909  0  0  0.076415  0  1.019987  0  0  0.078367  0  1.018724  0  0  0.113327  0.075243  0  1.020545  0
H  H33  1  0.01870197  0.64697923  0.32716171  1  0  0.070559  0  0.949905  0  0  0.076422  0  1.019992  0  0  0.078374  0  1.018729  0  0  0.11335  0.07525  0  1.020551  0
H  H34  1  0.51870164  0.35302106  0.17283820  1  0  0.070569  0  0.949912  0  0  0.07643  0  1.020003  0  0  0.078383  0  1.018739  0  0  0.113349  0.07526  0  1.020561  0
H  H35  1  0.48129694  0.14698077  0.67283810  1  0  0.070553  0  0.94991  0  0  0.076415  0  1.019999  0  0  0.078368  0  1.018735  0  0  0.113337  0.075244  0  1.020556  0
H  H36  1  0.01869983  0.14697942  0.17283880  1  0  0.070533  0  0.949935  0  0  0.076403  0  1.020013  0  0  0.078356  0  1.01875  0  0  0.113317  0.075229  0  1.020574  0
H  H37  1  0.98129723  0.35302038  0.67283832  1  0  0.070607  0  0.949979  0  0  0.076463  0  1.020057  0  0  0.078416  0  1.018795  0  0  0.113367  0.075291  0  1.020616  0
H  H38  1  0.48129756  0.64697957  0.82716183  1  0  0.070554  0  0.949915  0  0  0.076416  0  1.020002  0  0  0.078369  0  1.018738  0  0  0.113344  0.075246  0  1.020561  0
H  H39  1  0.51870075  0.85301985  0.32716193  1  0  0.070541  0  0.94993  0  0  0.076402  0  1.02002  0  0  0.078355  0  1.018756  0  0  0.113339  0.075229  0  1.020581  0
C  C40  1  0.79065269  0.17707055  0.94680843  1  0  0.635696  0  3.883771  0  0  0.578231  0  4.179262  0  0  0.61331  0  4.172021  0  0  0.21363  0.554332  0  4.183624  0
C  C41  1  0.20934816  0.32292761  0.44680831  1  0  0.635492  0  3.883568  0  0  0.578072  0  4.179053  0  0  0.61315  0  4.171814  0  0  0.213558  0.554173  0  4.183412  0
C  C42  1  0.70934849  0.67707361  0.05319230  1  0  0.635717  0  3.88369  0  0  0.578275  0  4.179206  0  0  0.613354  0  4.171964  0  0  0.213666  0.554368  0  4.183577  0
C  C43  1  0.29065358  0.82292948  0.55319308  1  0  0.635634  0  3.883848  0  0  0.578214  0  4.179309  0  0  0.613294  0  4.172065  0  0  0.213595  0.554309  0  4.183675  0
C  C44  1  0.20934651  0.82293007  0.05319202  1  0  0.635579  0  3.883929  0  0  0.578157  0  4.179406  0  0  0.613236  0  4.172166  0  0  0.213598  0.554254  0  4.18377  0
C  C45  1  0.79065103  0.67707099  0.55319213  1  0  0.635703  0  3.883804  0  0  0.578238  0  4.1793  0  0  0.613316  0  4.172055  0  0  0.213612  0.55433  0  4.183674  0
C  C46  1  0.29065373  0.32292600  0.94680773  1  0  0.635615  0  3.883813  0  0  0.578191  0  4.179307  0  0  0.61327  0  4.172068  0  0  0.213649  0.55429  0  4.183667  0
C  C47  1  0.70934863  0.17707013  0.44680736  1  0  0.635759  0  3.883696  0  0  0.57834  0  4.179139  0  0  0.613419  0  4.171894  0  0  0.213675  0.554441  0  4.183499  0
C  C48  1  0.82643508  0.13114512  0.88822246  1  0  0.102628  0  3.726496  0  0  0.106818  0  3.967044  0  0  0.107491  0  3.986295  0  0  0.113449  0.106202  0  3.954221  0
C  C49  1  0.17356776  0.36885419  0.38822277  1  0  0.102785  0  3.726177  0  0  0.106854  0  3.966869  0  0  0.107526  0  3.986118  0  0  0.113454  0.106235  0  3.954049  0
C  C50  1  0.67356312  0.63114501  0.11177746  1  0  0.10271  0  3.726269  0  0  0.106775  0  3.966993  0  0  0.107449  0  3.986243  0  0  0.113422  0.106159  0  3.954177  0
C  C51  1  0.32643545  0.86885388  0.61177778  1  0  0.102631  0  3.726377  0  0  0.106743  0  3.967015  0  0  0.107415  0  3.986265  0  0  0.113408  0.106133  0  3.954187  0
C  C52  1  0.17356411  0.86885449  0.11177715  1  0  0.102708  0  3.726209  0  0  0.106761  0  3.966939  0  0  0.107434  0  3.986187  0  0  0.113426  0.106143  0  3.954119  0
C  C53  1  0.82643597  0.63114542  0.61177767  1  0  0.10261  0  3.726338  0  0  0.106792  0  3.966902  0  0  0.107465  0  3.986152  0  0  0.11342  0.106175  0  3.954083  0
C  C54  1  0.32643759  0.36885358  0.88822257  1  0  0.102712  0  3.726218  0  0  0.106775  0  3.96695  0  0  0.107447  0  3.986202  0  0  0.113419  0.106167  0  3.954121  0
C  C55  1  0.67356526  0.13114573  0.38822184  1  0  0.102617  0  3.726374  0  0  0.106751  0  3.966988  0  0  0.107425  0  3.986238  0  0  0.113426  0.10614  0  3.954158  0
C  C56  1  0.79766015  0.21918433  0.84387507  1  0  -0.101547  0  3.688673  0  0  -0.125357  0  3.939347  0  0  -0.129532  0  3.96079  0  0  -0.072504  -0.122542  0  3.924198  0
C  C57  1  0.20233701  0.28081508  0.34387539  1  0  -0.101596  0  3.688702  0  0  -0.125364  0  3.939396  0  0  -0.12954  0  3.960838  0  0  -0.072506  -0.122553  0  3.924239  0
C  C58  1  0.70233947  0.71918513  0.15612482  1  0  -0.101656  0  3.688677  0  0  -0.125431  0  3.939383  0  0  -0.129605  0  3.960823  0  0  -0.072518  -0.122615  0  3.924237  0
C  C59  1  0.29766024  0.78081469  0.65612561  1  0  -0.101603  0  3.688507  0  0  -0.125402  0  3.939211  0  0  -0.129577  0  3.960651  0  0  -0.07253  -0.12259  0  3.924064  0
C  C60  1  0.20233904  0.78081528  0.15612578  1  0  -0.101575  0  3.688515  0  0  -0.125349  0  3.939234  0  0  -0.129524  0  3.960672  0  0  -0.072541  -0.122538  0  3.92409  0
C  C61  1  0.79766067  0.71918554  0.65612505  1  0  -0.101579  0  3.688615  0  0  -0.125389  0  3.939306  0  0  -0.129564  0  3.960747  0  0  -0.072511  -0.122576  0  3.924152  0
C  C62  1  0.29766124  0.28081448  0.84387439  1  0  -0.101609  0  3.688562  0  0  -0.12538  0  3.939289  0  0  -0.129555  0  3.960724  0  0  -0.072522  -0.122569  0  3.924129  0
C  C63  1  0.70234046  0.21918492  0.34387525  1  0  -0.101578  0  3.688628  0  0  -0.125375  0  3.939319  0  0  -0.129548  0  3.960757  0  0  -0.07252  -0.122556  0  3.924171  0
C  C64  1  0.83243569  0.17044360  0.79083192  1  0  -0.009118  0  3.714354  0  0  -0.023838  0  3.958876  0  0  -0.022802  0  3.978927  0  0  -0.065812  -0.024412  0  3.9455  0
C  C65  1  0.16756343  0.32955694  0.29083224  1  0  -0.009153  0  3.714429  0  0  -0.02388  0  3.958955  0  0  -0.022843  0  3.979006  0  0  -0.065839  -0.024454  0  3.945581  0
C  C66  1  0.66756399  0.67044328  0.20916758  1  0  -0.009104  0  3.714379  0  0  -0.023826  0  3.958904  0  0  -0.022787  0  3.978952  0  0  -0.065837  -0.024406  0  3.945531  0
C  C67  1  0.33243680  0.82955742  0.70916874  1  0  -0.009061  0  3.714297  0  0  -0.023777  0  3.958821  0  0  -0.02274  0  3.97887  0  0  -0.065802  -0.024358  0  3.945454  0
C  C68  1  0.16756351  0.82955702  0.20916853  1  0  -0.009285  0  3.714355  0  0  -0.024015  0  3.958906  0  0  -0.022978  0  3.978957  0  0  -0.065891  -0.02459  0  3.945531  0
C  C69  1  0.83243577  0.67044166  0.70916779  1  0  -0.009116  0  3.714327  0  0  -0.023843  0  3.958867  0  0  -0.022808  0  3.978919  0  0  -0.065797  -0.024418  0  3.945493  0
C  C70  1  0.33243672  0.32955937  0.79083204  1  0  -0.009149  0  3.714427  0  0  -0.023901  0  3.958975  0  0  -0.02285  0  3.97903  0  0  -0.06585  -0.02448  0  3.945601  0
C  C71  1  0.66756542  0.17044118  0.29083211  1  0  -0.009178  0  3.714346  0  0  -0.023904  0  3.958886  0  0  -0.022867  0  3.978934  0  0  -0.065853  -0.024486  0  3.945517  0
C  C72  1  0.89887967  0.03747753  0.78370769  1  0  -0.115019  0  3.719893  0  0  -0.127566  0  3.968862  0  0  -0.133425  0  3.990724  0  0  -0.080118  -0.123891  0  3.954649  0
C  C73  1  0.10112102  0.46252202  0.28370759  1  0  -0.114847  0  3.719915  0  0  -0.127409  0  3.968853  0  0  -0.133267  0  3.990709  0  0  -0.080044  -0.123738  0  3.954648  0
C  C74  1  0.60112014  0.53747823  0.21629268  1  0  -0.114916  0  3.719973  0  0  -0.127481  0  3.968922  0  0  -0.133343  0  3.990779  0  0  -0.080062  -0.123802  0  3.954707  0
C  C75  1  0.39887908  0.96252245  0.71629292  1  0  -0.114922  0  3.719946  0  0  -0.1275  0  3.968908  0  0  -0.133359  0  3.990767  0  0  -0.080083  -0.12382  0  3.954696  0
C  C76  1  0.10111953  0.96252512  0.21629316  1  0  -0.114923  0  3.719816  0  0  -0.12748  0  3.968758  0  0  -0.133335  0  3.99062  0  0  -0.080098  -0.123803  0  3.954546  0
C  C77  1  0.89887969  0.53747658  0.71629244  1  0  -0.114861  0  3.719935  0  0  -0.127431  0  3.968881  0  0  -0.133288  0  3.990742  0  0  -0.080079  -0.123754  0  3.95467  0
C  C78  1  0.39888057  0.46252239  0.78370735  1  0  -0.115014  0  3.719903  0  0  -0.127587  0  3.968885  0  0  -0.133443  0  3.990737  0  0  -0.080133  -0.12391  0  3.954677  0
C  C79  1  0.60112163  0.03747716  0.28370670  1  0  -0.114954  0  3.719958  0  0  -0.127524  0  3.968907  0  0  -0.133384  0  3.990768  0  0  -0.08009  -0.123845  0  3.954698  0
C  C80  1  0.92694354  0.95708426  0.83032654  1  0  0.134903  0  3.726353  0  0  0.101824  0  3.987904  0  0  0.107521  0  4.006625  0  0  0.048285  0.097981  0  3.975052  0
C  C81  1  0.07305625  0.54291515  0.33032744  1  0  0.134896  0  3.726324  0  0  0.101829  0  3.987859  0  0  0.107529  0  4.006576  0  0  0.048274  0.097982  0  3.975017  0
C  C82  1  0.57305584  0.45708511  0.16967284  1  0  0.134828  0  3.726435  0  0  0.101755  0  3.987978  0  0  0.107454  0  4.006696  0  0  0.048236  0.097905  0  3.975135  0
C  C83  1  0.42694276  0.04291571  0.66967364  1  0  0.134873  0  3.726379  0  0  0.1018  0  3.987937  0  0  0.107498  0  4.006658  0  0  0.048274  0.097952  0  3.975088  0
C  C84  1  0.07305565  0.04291535  0.16967390  1  0  0.134903  0  3.726331  0  0  0.101831  0  3.987876  0  0  0.107528  0  4.006596  0  0  0.048295  0.097985  0  3.97503  0
C  C85  1  0.92694446  0.45708243  0.66967300  1  0  0.134805  0  3.72651  0  0  0.101744  0  3.988044  0  0  0.10744  0  4.006765  0  0  0.048258  0.097902  0  3.975193  0
C  C86  1  0.42694335  0.54291551  0.83032677  1  0  0.134872  0  3.726383  0  0  0.101816  0  3.987918  0  0  0.107514  0  4.006637  0  0  0.048279  0.097966  0  3.975077  0
C  C87  1  0.57305795  0.95708491  0.33032680  1  0  0.134918  0  3.726356  0  0  0.101862  0  3.987893  0  0  0.107559  0  4.006616  0  0  0.048305  0.098016  0  3.975049  0
N  N88  1  0.04076078  0.68971872  0.92370454  1  0  -0.637516  0  2.769965  0  0  -0.594001  0  3.090799  0  0  -0.621345  0  3.095218  0  0  -0.337226  -0.575561  0  3.087778  0
N  N89  1  0.95923976  0.81027946  0.42370480  1  0  -0.637598  0  2.769971  0  0  -0.594105  0  3.090799  0  0  -0.621454  0  3.095221  0  0  -0.33722  -0.575665  0  3.087779  0
N  N90  1  0.45924111  0.18971961  0.07629525  1  0  -0.637519  0  2.769954  0  0  -0.594001  0  3.090766  0  0  -0.621346  0  3.095183  0  0  -0.337227  -0.575564  0  3.087748  0
N  N91  1  0.54075977  0.31028041  0.57629505  1  0  -0.637542  0  2.769899  0  0  -0.594038  0  3.090742  0  0  -0.621386  0  3.095163  0  0  -0.337223  -0.575597  0  3.087721  0
N  N92  1  0.95923993  0.31028089  0.07629507  1  0  -0.637521  0  2.769961  0  0  -0.594016  0  3.090805  0  0  -0.621362  0  3.095223  0  0  -0.337203  -0.575575  0  3.08778  0
N  N93  1  0.04075944  0.18971913  0.57629564  1  0  -0.637493  0  2.770006  0  0  -0.593982  0  3.090813  0  0  -0.621325  0  3.095234  0  0  -0.337197  -0.575543  0  3.087791  0
N  N94  1  0.54075809  0.81028000  0.92370560  1  0  -0.637531  0  2.769959  0  0  -0.594024  0  3.090795  0  0  -0.621372  0  3.095212  0  0  -0.337217  -0.575581  0  3.087772  0
N  N95  1  0.45924094  0.68971920  0.42370456  1  0  -0.63746  0  2.769986  0  0  -0.593954  0  3.090816  0  0  -0.621295  0  3.095232  0  0  -0.337192  -0.575513  0  3.087791  0
N  N96  1  0.96709312  0.62517692  0.88646629  1  0  0.409901  0  4.23676  0  0  0.44126  0  4.520752  0  0  0.457394  0  4.550383  0  0  0.082809  0.430311  0  4.500926  0
N  N97  1  0.03290924  0.87482541  0.38646544  1  0  0.410031  0  4.237076  0  0  0.441424  0  4.521031  0  0  0.457557  0  4.550666  0  0  0.082877  0.430477  0  4.501201  0
N  N98  1  0.53290812  0.12517589  0.11353405  1  0  0.409879  0  4.23673  0  0  0.441256  0  4.520711  0  0  0.457388  0  4.550339  0  0  0.082793  0.430308  0  4.500884  0
N  N99  1  0.46708943  0.37482506  0.61353428  1  0  0.409939  0  4.236899  0  0  0.441311  0  4.520888  0  0  0.457445  0  4.55052  0  0  0.082816  0.430362  0  4.501059  0
N  N100  1  0.03290910  0.37482472  0.11353333  1  0  0.410018  0  4.23673  0  0  0.441392  0  4.520704  0  0  0.457528  0  4.550333  0  0  0.082871  0.430445  0  4.500875  0
N  N101  1  0.96709147  0.12517724  0.61353335  1  0  0.409958  0  4.236596  0  0  0.44134  0  4.520566  0  0  0.457474  0  4.550199  0  0  0.082853  0.430394  0  4.500738  0
N  N102  1  0.46709108  0.87482473  0.88646598  1  0  0.409931  0  4.236958  0  0  0.441304  0  4.520943  0  0  0.457439  0  4.550573  0  0  0.082821  0.430353  0  4.501114  0
N  N103  1  0.53290825  0.62517658  0.38646657  1  0  0.409919  0  4.2366  0  0  0.441293  0  4.520576  0  0  0.45743  0  4.550205  0  0  0.082841  0.430344  0  4.500754  0
N  N104  1  0.89862817  0.56355099  0.85005941  1  0  -0.37847  0  2.414686  0  0  -0.375684  0  2.64615  0  0  -0.382066  0  2.656786  0  0  -0.182453  -0.37105  0  2.638594  0
N  N105  1  0.10136843  0.93644838  0.35006014  1  0  -0.378529  0  2.415054  0  0  -0.375779  0  2.646535  0  0  -0.382148  0  2.657158  0  0  -0.18252  -0.371141  0  2.638978  0
N  N106  1  0.60137161  0.06355086  0.14994054  1  0  -0.378449  0  2.414688  0  0  -0.375675  0  2.646147  0  0  -0.382052  0  2.65678  0  0  -0.182438  -0.371038  0  2.638585  0
N  N107  1  0.39862715  0.43644900  0.64993956  1  0  -0.378477  0  2.414952  0  0  -0.375693  0  2.646405  0  0  -0.382065  0  2.657035  0  0  -0.18245  -0.371054  0  2.638846  0
N  N108  1  0.10137102  0.43645167  0.14994021  1  0  -0.378579  0  2.414728  0  0  -0.375804  0  2.646191  0  0  -0.382187  0  2.656829  0  0  -0.182519  -0.371168  0  2.638635  0
N  N109  1  0.89862774  0.06355022  0.64994153  1  0  -0.378553  0  2.414549  0  0  -0.375776  0  2.645995  0  0  -0.382151  0  2.656619  0  0  -0.182525  -0.371145  0  2.638442  0
N  N110  1  0.39862759  0.93644774  0.85005990  1  0  -0.37849  0  2.414931  0  0  -0.37571  0  2.646387  0  0  -0.38209  0  2.657026  0  0  -0.182467  -0.371075  0  2.638833  0
N  N111  1  0.60137507  0.56354859  0.35005800  1  0  -0.378566  0  2.414557  0  0  -0.375781  0  2.646004  0  0  -0.382166  0  2.656642  0  0  -0.18253  -0.371152  0  2.638449  0
N  N112  1  0.88990087  0.00278365  0.88124650  1  0  -0.344541  0  3.283155  0  0  -0.279126  0  3.543455  0  0  -0.296346  0  3.563431  0  0  -0.322556  -0.267329  0  3.529403  0
N  N113  1  0.11009448  0.49721567  0.38124721  1  0  -0.344653  0  3.283062  0  0  -0.279212  0  3.543411  0  0  -0.296432  0  3.563383  0  0  -0.322603  -0.267416  0  3.529363  0
N  N114  1  0.61009595  0.50278357  0.11875347  1  0  -0.344567  0  3.283147  0  0  -0.279106  0  3.543472  0  0  -0.296325  0  3.563447  0  0  -0.322554  -0.267311  0  3.529428  0
N  N115  1  0.38990256  0.99721735  0.61875371  1  0  -0.344529  0  3.283136  0  0  -0.279086  0  3.543438  0  0  -0.296306  0  3.563415  0  0  -0.322536  -0.267288  0  3.529383  0
N  N116  1  0.11009681  0.99721697  0.11875271  1  0  -0.344559  0  3.283039  0  0  -0.279112  0  3.543385  0  0  -0.296333  0  3.563361  0  0  -0.322559  -0.267318  0  3.529338  0
N  N117  1  0.88990321  0.50278191  0.61875365  1  0  -0.344526  0  3.283128  0  0  -0.279117  0  3.54343  0  0  -0.296337  0  3.563405  0  0  -0.322546  -0.26732  0  3.529379  0
N  N118  1  0.38990173  0.49721807  0.88124697  1  0  -0.344546  0  3.283066  0  0  -0.279105  0  3.543408  0  0  -0.296326  0  3.563385  0  0  -0.322575  -0.267311  0  3.529364  0
N  N119  1  0.61009815  0.00278226  0.38124715  1  0  -0.344542  0  3.283082  0  0  -0.279129  0  3.543405  0  0  -0.29635  0  3.563383  0  0  -0.322584  -0.267338  0  3.529359  0
O  O120  1  0.82164238  0.09298916  0.98607344  1  0  -0.652226  0  2.067937  0  0  -0.575921  0  2.329547  0  0  -0.605122  0  2.315827  0  0  -0.325955  -0.555467  0  2.33821  0
O  O121  1  0.17835512  0.40701093  0.48607455  1  0  -0.652104  0  2.067638  0  0  -0.575771  0  2.329189  0  0  -0.604972  0  2.315473  0  0  -0.325895  -0.555319  0  2.337851  0
O  O122  1  0.67835586  0.59298928  0.01392567  1  0  -0.652265  0  2.067816  0  0  -0.57593  0  2.329406  0  0  -0.605125  0  2.315669  0  0  -0.325993  -0.555474  0  2.338068  0
O  O123  1  0.32164351  0.90700883  0.51392640  1  0  -0.652181  0  2.067892  0  0  -0.575882  0  2.329482  0  0  -0.60508  0  2.315757  0  0  -0.325947  -0.555425  0  2.338143  0
O  O124  1  0.17835681  0.90700943  0.01392700  1  0  -0.652188  0  2.067988  0  0  -0.575869  0  2.329562  0  0  -0.60506  0  2.315822  0  0  -0.325944  -0.555414  0  2.338223  0
O  O125  1  0.82164407  0.59298969  0.51392589  1  0  -0.65226  0  2.067914  0  0  -0.575944  0  2.329513  0  0  -0.605144  0  2.315791  0  0  -0.325981  -0.555486  0  2.338179  0
O  O126  1  0.32164485  0.40701033  0.98607353  1  0  -0.652217  0  2.067864  0  0  -0.575887  0  2.329444  0  0  -0.605082  0  2.31571  0  0  -0.325964  -0.555434  0  2.338111  0
O  O127  1  0.67835719  0.09298876  0.48607404  1  0  -0.652304  0  2.067863  0  0  -0.575994  0  2.329442  0  0  -0.605195  0  2.315719  0  0  -0.326007  -0.555544  0  2.338105  0
O  O128  1  0.76697417  0.79839939  0.04683898  1  0  -0.585955  0  2.01031  0  0  -0.516832  0  2.253207  0  0  -0.545987  0  2.244814  0  0  -0.303859  -0.496501  0  2.2581  0
O  O129  1  0.23302342  0.70160067  0.54683983  1  0  -0.585953  0  2.010238  0  0  -0.516835  0  2.253107  0  0  -0.545994  0  2.244722  0  0  -0.303841  -0.496502  0  2.258001  0
O  O130  1  0.73302537  0.29840040  0.95316047  1  0  -0.585977  0  2.010216  0  0  -0.51683  0  2.253088  0  0  -0.545982  0  2.244688  0  0  -0.30387  -0.496503  0  2.25798  0
O  O131  1  0.26697392  0.20159977  0.45316037  1  0  -0.585928  0  2.010237  0  0  -0.516815  0  2.253115  0  0  -0.545966  0  2.244716  0  0  -0.30388  -0.496483  0  2.258007  0
O  O132  1  0.23302653  0.20160124  0.95316023  1  0  -0.585889  0  2.010297  0  0  -0.516787  0  2.253193  0  0  -0.54594  0  2.244797  0  0  -0.303862  -0.496452  0  2.258082  0
O  O133  1  0.76697578  0.29839995  0.45316061  1  0  -0.585959  0  2.010218  0  0  -0.516833  0  2.25307  0  0  -0.545996  0  2.244697  0  0  -0.303858  -0.496506  0  2.25796  0
O  O134  1  0.26697383  0.70160124  0.04683997  1  0  -0.585939  0  2.010294  0  0  -0.516781  0  2.253119  0  0  -0.545941  0  2.244737  0  0  -0.303852  -0.496447  0  2.258013  0
O  O135  1  0.73302528  0.79839679  0.54683884  1  0  -0.585954  0  2.010293  0  0  -0.516814  0  2.253161  0  0  -0.545972  0  2.244776  0  0  -0.303836  -0.496477  0  2.258054  0
