# generated using pymatgen
data_Rb3H4C6N3O8
_symmetry_space_group_name_H-M   'P 1'
_cell_length_a   6.87995352
_cell_length_b   10.39942037
_cell_length_c   18.15961915
_cell_angle_alpha   92.69210123
_cell_angle_beta   90.00003329
_cell_angle_gamma   89.99993459
_symmetry_Int_Tables_number   1
_chemical_formula_structural   Rb3H4C6N3O8
_chemical_formula_sum   'Rb12 H16 C24 N12 O32'
_cell_volume   1297.84193976
_cell_formula_units_Z   4
loop_
 _symmetry_equiv_pos_site_id
 _symmetry_equiv_pos_as_xyz
  1  'x, y, z'
loop_
 _atom_site_type_symbol
 _atom_site_label
 _atom_site_symmetry_multiplicity
 _atom_site_fract_x
 _atom_site_fract_y
 _atom_site_fract_z
 _atom_site_occupancy
 _atom_site_hle17_bader_spin_density
 _atom_site_hle17_ddec_charge
 _atom_site_hle17_ddec_spin_density
 _atom_site_hle17_ddec_sum_bond_order
 _atom_site_hle17_magmom
 _atom_site_hse06_10hf_bader_spin_density
 _atom_site_hse06_10hf_ddec_charge
 _atom_site_hse06_10hf_ddec_spin_density
 _atom_site_hse06_10hf_ddec_sum_bond_order
 _atom_site_hse06_10hf_magmom
 _atom_site_hse06_bader_spin_density
 _atom_site_hse06_ddec_charge
 _atom_site_hse06_ddec_spin_density
 _atom_site_hse06_ddec_sum_bond_order
 _atom_site_hse06_magmom
 _atom_site_pbe_bader_spin_density
 _atom_site_pbe_cm5_charge
 _atom_site_pbe_ddec_charge
 _atom_site_pbe_ddec_spin_density
 _atom_site_pbe_ddec_sum_bond_order
 _atom_site_pbe_magmom
Rb  Rb0  1  0.96479579  0.70737042  0.81993465  1  0  0.931561  0  0.523639  0  0  0.877329  0  0.740362  0  0  0.893858  0  0.715762  0  0  0.816315  0.865013  0  0.758057  0
Rb  Rb1  1  0.46479659  0.79263321  0.68006484  1  0  0.931569  0  0.52363  0  0  0.877333  0  0.740351  0  0  0.893859  0  0.715752  0  0  0.816319  0.865018  0  0.758044  0
Rb  Rb2  1  0.03520507  0.29263135  0.18006555  1  0  0.931575  0  0.523631  0  0  0.877341  0  0.740338  0  0  0.893872  0  0.715736  0  0  0.816314  0.865026  0  0.758033  0
Rb  Rb3  1  0.53520282  0.20736663  0.31993641  1  0  0.931577  0  0.523628  0  0  0.877325  0  0.740367  0  0  0.893856  0  0.715768  0  0  0.816331  0.865025  0  0.758037  0
Rb  Rb4  1  0.67917407  0.85696355  0.21292522  1  0  0.9462  0  0.47613  0  0  0.8971  0  0.677263  0  0  0.912468  0  0.6547  0  0  0.801461  0.885627  0  0.693601  0
Rb  Rb5  1  0.17917530  0.64303314  0.28707498  1  0  0.94621  0  0.476135  0  0  0.89712  0  0.677278  0  0  0.912484  0  0.65471  0  0  0.801479  0.885645  0  0.693616  0
Rb  Rb6  1  0.32082533  0.14303628  0.78707438  1  0  0.946207  0  0.476149  0  0  0.897114  0  0.677293  0  0  0.912481  0  0.654725  0  0  0.801488  0.885638  0  0.69363  0
Rb  Rb7  1  0.82081975  0.35696477  0.71292513  1  0  0.946212  0  0.476127  0  0  0.897117  0  0.677265  0  0  0.912486  0  0.654697  0  0  0.801476  0.885642  0  0.693602  0
Rb  Rb8  1  0.72709107  0.39648599  0.94894662  1  0  0.937871  0  0.511528  0  0  0.887381  0  0.720254  0  0  0.90284  0  0.69714  0  0  0.824604  0.876342  0  0.736542  0
Rb  Rb9  1  0.22709199  0.10351514  0.55105452  1  0  0.937876  0  0.511528  0  0  0.887377  0  0.720258  0  0  0.902834  0  0.697149  0  0  0.824591  0.876334  0  0.73655  0
Rb  Rb10  1  0.27290834  0.60351577  0.05105358  1  0  0.937888  0  0.511498  0  0  0.887388  0  0.720232  0  0  0.902853  0  0.69711  0  0  0.824592  0.876346  0  0.736523  0
Rb  Rb11  1  0.77290741  0.89648277  0.44894613  1  0  0.937873  0  0.511509  0  0  0.887365  0  0.720269  0  0  0.902829  0  0.697136  0  0  0.824584  0.876324  0  0.73656  0
H  H12  1  0.52241791  0.61962583  0.85640202  1  0  0.415702  0  0.894794  0  0  0.386588  0  0.956837  0  0  0.398499  0  0.939247  0  0  0.286426  0.378084  0  0.969408  0
H  H13  1  0.02241705  0.88037331  0.64359836  1  0  0.415771  0  0.894697  0  0  0.386618  0  0.956794  0  0  0.39853  0  0.939203  0  0  0.286428  0.378114  0  0.969364  0
H  H14  1  0.47758150  0.38037401  0.14359868  1  0  0.415683  0  0.894822  0  0  0.386564  0  0.956864  0  0  0.398471  0  0.939283  0  0  0.286429  0.37806  0  0.969435  0
H  H15  1  0.97758236  0.11962460  0.35640174  1  0  0.415711  0  0.894775  0  0  0.386597  0  0.956819  0  0  0.398507  0  0.939229  0  0  0.286431  0.378093  0  0.96939  0
H  H16  1  0.51678416  0.53959158  0.78124331  1  0  0.401218  0  0.915617  0  0  0.373778  0  0.976447  0  0  0.384129  0  0.960852  0  0  0.287109  0.366472  0  0.98746  0
H  H17  1  0.01678182  0.96040853  0.71875709  1  0  0.401278  0  0.915557  0  0  0.373834  0  0.97639  0  0  0.384185  0  0.960792  0  0  0.287125  0.366524  0  0.987403  0
H  H18  1  0.48321525  0.46040729  0.21875736  1  0  0.401263  0  0.915571  0  0  0.373828  0  0.97639  0  0  0.384179  0  0.960792  0  0  0.287136  0.36652  0  0.987403  0
H  H19  1  0.98321758  0.03959227  0.28124308  1  0  0.401282  0  0.915551  0  0  0.373836  0  0.976388  0  0  0.384187  0  0.960792  0  0  0.287133  0.366526  0  0.987402  0
H  H20  1  0.19173853  0.41082160  0.86269308  1  0  0.420364  0  0.886287  0  0  0.392952  0  0.945478  0  0  0.40415  0  0.928791  0  0  0.2925  0.384943  0  0.957435  0
H  H21  1  0.69173911  0.08917666  0.63730742  1  0  0.420399  0  0.886237  0  0  0.392982  0  0.945437  0  0  0.404181  0  0.92875  0  0  0.292506  0.384974  0  0.957394  0
H  H22  1  0.80825942  0.58917823  0.13730707  1  0  0.420372  0  0.886275  0  0  0.392958  0  0.945474  0  0  0.404155  0  0.928788  0  0  0.292494  0.384948  0  0.957432  0
H  H23  1  0.30825885  0.91082029  0.36269210  1  0  0.420372  0  0.886276  0  0  0.392959  0  0.945466  0  0  0.404158  0  0.928779  0  0  0.292498  0.38495  0  0.957423  0
H  H24  1  0.22343341  0.46587615  0.78390975  1  0  0.396179  0  0.92172  0  0  0.368722  0  0.982558  0  0  0.379271  0  0.966749  0  0  0.286683  0.361204  0  0.993824  0
H  H25  1  0.72343420  0.03412594  0.71609141  1  0  0.39624  0  0.921653  0  0  0.368755  0  0.982545  0  0  0.379305  0  0.966734  0  0  0.286687  0.361233  0  0.993819  0
H  H26  1  0.77656309  0.53412368  0.21609040  1  0  0.396215  0  0.921684  0  0  0.368726  0  0.982582  0  0  0.379277  0  0.966771  0  0  0.286682  0.361206  0  0.993853  0
H  H27  1  0.27656521  0.96587582  0.28390879  1  0  0.396242  0  0.921642  0  0  0.368758  0  0.982529  0  0  0.379309  0  0.966718  0  0  0.28669  0.361237  0  0.993802  0
C  C28  1  0.76889980  0.86387670  0.00385945  1  0  0.324618  0  3.670205  0  0  0.311156  0  3.936434  0  0  0.32262  0  3.945724  0  0  0.263073  0.303402  0  3.93047  0
C  C29  1  0.26889846  0.63612570  0.49613981  1  0  0.324729  0  3.670119  0  0  0.311175  0  3.936412  0  0  0.32264  0  3.945703  0  0  0.263089  0.303424  0  3.930444  0
C  C30  1  0.23110397  0.13612698  0.99613914  1  0  0.324673  0  3.670477  0  0  0.311113  0  3.93681  0  0  0.322579  0  3.946106  0  0  0.263121  0.303371  0  3.930826  0
C  C31  1  0.73110240  0.36387125  0.50386027  1  0  0.324738  0  3.67009  0  0  0.311161  0  3.936479  0  0  0.322624  0  3.945774  0  0  0.263092  0.303413  0  3.930505  0
C  C32  1  0.78557723  0.02419065  0.92380875  1  0  0.311621  0  3.680739  0  0  0.300124  0  3.944446  0  0  0.310783  0  3.954709  0  0  0.261557  0.292974  0  3.937664  0
C  C33  1  0.28557464  0.47581140  0.57619133  1  0  0.311752  0  3.680632  0  0  0.300271  0  3.944315  0  0  0.310935  0  3.954566  0  0  0.261562  0.293123  0  3.937534  0
C  C34  1  0.21442363  0.97581207  0.07619038  1  0  0.311762  0  3.680668  0  0  0.300261  0  3.944412  0  0  0.310929  0  3.954657  0  0  0.261507  0.29311  0  3.937635  0
C  C35  1  0.71442476  0.52418459  0.42380872  1  0  0.311674  0  3.680627  0  0  0.300173  0  3.944354  0  0  0.310843  0  3.954593  0  0  0.261451  0.293024  0  3.937578  0
C  C36  1  0.70197855  0.06968320  0.04282303  1  0  0.313419  0  3.677552  0  0  0.300163  0  3.944892  0  0  0.311193  0  3.955147  0  0  0.257282  0.292744  0  3.938159  0
C  C37  1  0.20197664  0.43031850  0.45717741  1  0  0.313466  0  3.677547  0  0  0.300174  0  3.944916  0  0  0.311198  0  3.955184  0  0  0.257319  0.292754  0  3.938186  0
C  C38  1  0.29802376  0.93031953  0.95717720  1  0  0.313526  0  3.677587  0  0  0.300221  0  3.944974  0  0  0.311249  0  3.955235  0  0  0.257284  0.292802  0  3.938244  0
C  C39  1  0.79802422  0.56967941  0.54282214  1  0  0.313663  0  3.677706  0  0  0.300415  0  3.944979  0  0  0.311447  0  3.955231  0  0  0.257376  0.292994  0  3.938248  0
C  C40  1  0.78852071  0.72069891  0.01965103  1  0  0.600994  0  3.972566  0  0  0.552057  0  4.277232  0  0  0.584095  0  4.267734  0  0  0.199083  0.530406  0  4.282772  0
C  C41  1  0.28851764  0.77930251  0.48034656  1  0  0.600813  0  3.972911  0  0  0.551972  0  4.277443  0  0  0.584013  0  4.267947  0  0  0.199096  0.53032  0  4.282981  0
C  C42  1  0.21148306  0.27930477  0.98034591  1  0  0.600905  0  3.972888  0  0  0.552013  0  4.27753  0  0  0.584047  0  4.268046  0  0  0.199074  0.530359  0  4.283068  0
C  C43  1  0.71148177  0.22069347  0.51965295  1  0  0.601017  0  3.972665  0  0  0.552103  0  4.277353  0  0  0.584143  0  4.267855  0  0  0.199117  0.530452  0  4.282892  0
C  C44  1  0.81807735  0.06936321  0.84524932  1  0  0.591004  0  3.962244  0  0  0.541253  0  4.266688  0  0  0.572366  0  4.258348  0  0  0.206991  0.520286  0  4.271561  0
C  C45  1  0.31807642  0.43064073  0.65475081  1  0  0.590912  0  3.962414  0  0  0.541132  0  4.266917  0  0  0.572245  0  4.258577  0  0  0.206947  0.520164  0  4.27179  0
C  C46  1  0.18192351  0.93064336  0.15475046  1  0  0.590928  0  3.962285  0  0  0.541117  0  4.266855  0  0  0.572228  0  4.258515  0  0  0.206983  0.52015  0  4.271726  0
C  C47  1  0.68192008  0.56935622  0.34524981  1  0  0.590908  0  3.962508  0  0  0.54114  0  4.266991  0  0  0.572252  0  4.25865  0  0  0.206969  0.520172  0  4.271864  0
C  C48  1  0.64290254  0.16777041  0.10505388  1  0  0.576644  0  3.995034  0  0  0.527535  0  4.30326  0  0  0.558434  0  4.29586  0  0  0.185407  0.506727  0  4.307378  0
C  C49  1  0.14290215  0.33222941  0.39494815  1  0  0.576778  0  3.994863  0  0  0.527706  0  4.303049  0  0  0.558606  0  4.295647  0  0  0.185484  0.506899  0  4.307169  0
C  C50  1  0.35709978  0.83223135  0.89494632  1  0  0.576617  0  3.995176  0  0  0.52752  0  4.303405  0  0  0.558421  0  4.296009  0  0  0.185432  0.506711  0  4.307524  0
C  C51  1  0.85709726  0.66776658  0.60505246  1  0  0.576436  0  3.995495  0  0  0.527375  0  4.303637  0  0  0.558276  0  4.296244  0  0  0.185261  0.506569  0  4.30775  0
N  N52  1  0.71524825  0.94564680  0.05946617  1  0  -0.418968  0  3.045526  0  0  -0.389207  0  3.31025  0  0  -0.403248  0  3.322628  0  0  -0.365963  -0.380244  0  3.302485  0
N  N53  1  0.21524696  0.55435468  0.44053361  1  0  -0.418978  0  3.045544  0  0  -0.389186  0  3.310313  0  0  -0.40323  0  3.322696  0  0  -0.365981  -0.380225  0  3.302549  0
N  N54  1  0.28475697  0.05435592  0.94053295  1  0  -0.418935  0  3.045637  0  0  -0.389124  0  3.31041  0  0  -0.403168  0  3.322792  0  0  -0.36594  -0.380162  0  3.302637  0
N  N55  1  0.78475390  0.44564227  0.55946592  1  0  -0.419095  0  3.045454  0  0  -0.389299  0  3.310227  0  0  -0.403343  0  3.322606  0  0  -0.366006  -0.380338  0  3.302461  0
N  N56  1  0.80904903  0.89894291  0.93534065  1  0  -0.40112  0  3.033127  0  0  -0.371765  0  3.295166  0  0  -0.385223  0  3.307371  0  0  -0.352947  -0.363165  0  3.287555  0
N  N57  1  0.30904707  0.60105987  0.56465879  1  0  -0.401265  0  3.032914  0  0  -0.371877  0  3.294964  0  0  -0.38534  0  3.307167  0  0  -0.352989  -0.363281  0  3.287354  0
N  N58  1  0.19095038  0.10106077  0.06465740  1  0  -0.401262  0  3.033185  0  0  -0.371861  0  3.295232  0  0  -0.385323  0  3.307434  0  0  -0.352975  -0.363265  0  3.287619  0
N  N59  1  0.69094943  0.39893612  0.43534182  1  0  -0.401173  0  3.033003  0  0  -0.37177  0  3.295057  0  0  -0.385232  0  3.307258  0  0  -0.352903  -0.363175  0  3.287446  0
N  N60  1  0.73369603  0.11346906  0.97568415  1  0  -0.395281  0  3.046088  0  0  -0.369322  0  3.313649  0  0  -0.382235  0  3.325833  0  0  -0.355121  -0.36091  0  3.305622  0
N  N61  1  0.23369497  0.38653398  0.52431649  1  0  -0.39538  0  3.046146  0  0  -0.369415  0  3.313707  0  0  -0.382325  0  3.325888  0  0  -0.355155  -0.361003  0  3.305681  0
N  N62  1  0.26630628  0.88653462  0.02431610  1  0  -0.395421  0  3.046225  0  0  -0.369447  0  3.31381  0  0  -0.382361  0  3.325989  0  0  -0.355145  -0.361036  0  3.305785  0
N  N63  1  0.76630589  0.61346297  0.47568359  1  0  -0.395375  0  3.046129  0  0  -0.369436  0  3.313724  0  0  -0.382355  0  3.325902  0  0  -0.355111  -0.361025  0  3.305699  0
O  O64  1  0.69158844  0.68294217  0.07421638  1  0  -0.698685  0  2.00344  0  0  -0.650534  0  2.237733  0  0  -0.67438  0  2.226169  0  0  -0.400475  -0.633634  0  2.245208  0
O  O65  1  0.19158232  0.81705450  0.42578051  1  0  -0.69868  0  2.003584  0  0  -0.650578  0  2.237887  0  0  -0.67441  0  2.226281  0  0  -0.400552  -0.633678  0  2.245362  0
O  O66  1  0.30841823  0.31705862  0.92578104  1  0  -0.698667  0  2.003579  0  0  -0.65055  0  2.237889  0  0  -0.674383  0  2.226299  0  0  -0.400489  -0.633652  0  2.245366  0
O  O67  1  0.80841709  0.18293956  0.57421839  1  0  -0.69873  0  2.003517  0  0  -0.650591  0  2.237833  0  0  -0.674432  0  2.226254  0  0  -0.400508  -0.633692  0  2.245308  0
O  O68  1  0.89987692  0.65501063  0.97775082  1  0  -0.686987  0  1.974689  0  0  -0.647218  0  2.216149  0  0  -0.670506  0  2.207464  0  0  -0.459109  -0.630541  0  2.221371  0
O  O69  1  0.39986721  0.84499593  0.52224654  1  0  -0.686864  0  1.974801  0  0  -0.647107  0  2.216198  0  0  -0.670397  0  2.207512  0  0  -0.459055  -0.63043  0  2.22142  0
O  O70  1  0.10013266  0.34499498  0.02224728  1  0  -0.686913  0  1.97478  0  0  -0.647129  0  2.216202  0  0  -0.670415  0  2.207518  0  0  -0.459065  -0.630454  0  2.221425  0
O  O71  1  0.60012929  0.15500487  0.47775309  1  0  -0.68698  0  1.974692  0  0  -0.647189  0  2.216137  0  0  -0.670477  0  2.207449  0  0  -0.459087  -0.630516  0  2.221361  0
O  O72  1  0.85803173  0.98133893  0.79633797  1  0  -0.675337  0  2.033159  0  0  -0.617647  0  2.257922  0  0  -0.642139  0  2.247832  0  0  -0.357505  -0.600411  0  2.264361  0
O  O73  1  0.35803014  0.51866958  0.70365997  1  0  -0.675293  0  2.033307  0  0  -0.617607  0  2.258068  0  0  -0.6421  0  2.247982  0  0  -0.357489  -0.600371  0  2.264506  0
O  O74  1  0.14197203  0.01866956  0.20366020  1  0  -0.675365  0  2.033258  0  0  -0.61765  0  2.258043  0  0  -0.642142  0  2.247954  0  0  -0.357554  -0.600414  0  2.26448  0
O  O75  1  0.64196927  0.48132832  0.29633958  1  0  -0.675342  0  2.033314  0  0  -0.617645  0  2.258068  0  0  -0.642139  0  2.247982  0  0  -0.357542  -0.600409  0  2.264508  0
O  O76  1  0.79913961  0.18765962  0.83565073  1  0  -0.694321  0  1.983576  0  0  -0.654356  0  2.222432  0  0  -0.676467  0  2.213822  0  0  -0.432407  -0.639108  0  2.228062  0
O  O77  1  0.29914471  0.31234531  0.66435272  1  0  -0.694276  0  1.983581  0  0  -0.654291  0  2.222438  0  0  -0.676404  0  2.213828  0  0  -0.432357  -0.639043  0  2.228068  0
O  O78  1  0.20085398  0.81234696  0.16435235  1  0  -0.694265  0  1.983537  0  0  -0.654271  0  2.222428  0  0  -0.676384  0  2.213818  0  0  -0.43234  -0.639022  0  2.228057  0
O  O79  1  0.70085033  0.68765068  0.33564953  1  0  -0.694262  0  1.983665  0  0  -0.654272  0  2.222515  0  0  -0.676385  0  2.213908  0  0  -0.432318  -0.639023  0  2.228145  0
O  O80  1  0.59819137  0.27901745  0.08475705  1  0  -0.642534  0  1.996544  0  0  -0.591059  0  2.222889  0  0  -0.615403  0  2.214077  0  0  -0.36148  -0.574082  0  2.228573  0
O  O81  1  0.09819120  0.22098336  0.41524445  1  0  -0.642558  0  1.996559  0  0  -0.591093  0  2.222876  0  0  -0.615443  0  2.214076  0  0  -0.361474  -0.574118  0  2.228562  0
O  O82  1  0.40181095  0.72098527  0.91524262  1  0  -0.642507  0  1.996706  0  0  -0.591028  0  2.223044  0  0  -0.615373  0  2.214231  0  0  -0.361454  -0.574051  0  2.228729  0
O  O83  1  0.90180820  0.77901359  0.58475453  1  0  -0.642473  0  1.9967  0  0  -0.591019  0  2.223064  0  0  -0.615353  0  2.214216  0  0  -0.361424  -0.574044  0  2.228747  0
O  O84  1  0.64758434  0.12894187  0.16974929  1  0  -0.696812  0  1.976268  0  0  -0.65775  0  2.220081  0  0  -0.680642  0  2.212099  0  0  -0.45064  -0.641356  0  2.224856  0
O  O85  1  0.14758669  0.37105698  0.33025162  1  0  -0.696908  0  1.976104  0  0  -0.657853  0  2.219922  0  0  -0.680743  0  2.211931  0  0  -0.450712  -0.64146  0  2.224699  0
O  O86  1  0.35241507  0.87105893  0.83025034  1  0  -0.696831  0  1.976254  0  0  -0.657773  0  2.220082  0  0  -0.68066  0  2.212084  0  0  -0.450675  -0.641376  0  2.224856  0
O  O87  1  0.85241417  0.62894189  0.66974851  1  0  -0.69677  0  1.976279  0  0  -0.657724  0  2.220086  0  0  -0.680615  0  2.212097  0  0  -0.450609  -0.641329  0  2.224859  0
O  O88  1  0.60112632  0.55802852  0.82431070  1  0  -0.934782  0  1.769296  0  0  -0.889929  0  1.932683  0  0  -0.90841  0  1.901331  0  0  -0.719264  -0.876787  0  1.954813  0
O  O89  1  0.10112540  0.94196961  0.67569078  1  0  -0.934872  0  1.769118  0  0  -0.889974  0  1.932573  0  0  -0.90846  0  1.901213  0  0  -0.719273  -0.876826  0  1.954716  0
O  O90  1  0.39887309  0.44197132  0.17569000  1  0  -0.934805  0  1.769278  0  0  -0.889942  0  1.932693  0  0  -0.908424  0  1.901336  0  0  -0.719301  -0.876801  0  1.954824  0
O  O91  1  0.89887401  0.05802831  0.32430987  1  0  -0.934835  0  1.769206  0  0  -0.889969  0  1.9326  0  0  -0.908451  0  1.901249  0  0  -0.719285  -0.876823  0  1.954741  0
O  O92  1  0.12147782  0.44357376  0.81949489  1  0  -0.922597  0  1.781697  0  0  -0.877362  0  1.941367  0  0  -0.896072  0  1.911143  0  0  -0.71359  -0.863993  0  1.96272  0
O  O93  1  0.62147852  0.05642455  0.68050561  1  0  -0.922695  0  1.78158  0  0  -0.877447  0  1.94127  0  0  -0.896159  0  1.911045  0  0  -0.713612  -0.864076  0  1.962627  0
O  O94  1  0.87851868  0.55642607  0.18050581  1  0  -0.922643  0  1.781628  0  0  -0.877399  0  1.941301  0  0  -0.896109  0  1.911075  0  0  -0.713583  -0.864028  0  1.962657  0
O  O95  1  0.37852089  0.94357336  0.31949450  1  0  -0.922663  0  1.781589  0  0  -0.877412  0  1.941284  0  0  -0.896123  0  1.911057  0  0  -0.7136  -0.864042  0  1.962641  0
