# generated using pymatgen
data_CuH18C26N4O5
_symmetry_space_group_name_H-M   'P 1'
_cell_length_a   12.62315630
_cell_length_b   14.95880912
_cell_length_c   16.56867500
_cell_angle_alpha   110.19427929
_cell_angle_beta   89.99980543
_cell_angle_gamma   90.00053208
_symmetry_Int_Tables_number   1
_chemical_formula_structural   CuH18C26N4O5
_chemical_formula_sum   'Cu4 H72 C104 N16 O20'
_cell_volume   2936.29549777
_cell_formula_units_Z   4
loop_
 _symmetry_equiv_pos_site_id
 _symmetry_equiv_pos_as_xyz
  1  'x, y, z'
loop_
 _atom_site_type_symbol
 _atom_site_label
 _atom_site_symmetry_multiplicity
 _atom_site_fract_x
 _atom_site_fract_y
 _atom_site_fract_z
 _atom_site_occupancy
 _atom_site_pbe_bader_charge
 _atom_site_pbe_bader_spin_density
 _atom_site_pbe_cm5_charge
 _atom_site_pbe_ddec_charge
 _atom_site_pbe_ddec_spin_density
 _atom_site_pbe_ddec_sum_bond_order
 _atom_site_pbe_magmom
Cu  Cu0  1  0.04252409  0.10093008  0.62285927  1  1.094924  -0.575438  0.739203  0.80062  -0.73613  2.189687  -0.574
Cu  Cu1  1  0.54250888  0.89905342  0.87711123  1  1.094922  -0.575436  0.739154  0.800516  -0.736159  2.189521  -0.574
Cu  Cu2  1  0.95747047  0.89903383  0.37712697  1  1.094838  -0.575461  0.739251  0.800543  -0.736205  2.189985  -0.574
Cu  Cu3  1  0.45750785  0.10096931  0.12290387  1  1.094953  -0.575459  0.739212  0.800581  -0.736227  2.189803  -0.574
H  H4  1  0.27927541  0.08163995  0.61539553  1  0.151219  -0.001702  0.123923  0.103041  -0.000753  1.027971  -0.002
H  H5  1  0.77927067  0.91840008  0.88460384  1  0.151119  -0.001704  0.123856  0.102942  -0.000753  1.027844  -0.002
H  H6  1  0.72071518  0.91837117  0.38461022  1  0.151215  -0.001703  0.123842  0.10295  -0.000754  1.027978  -0.002
H  H7  1  0.22072863  0.08159674  0.11539601  1  0.151566  -0.001702  0.123832  0.102958  -0.000753  1.02777  -0.002
H  H8  1  0.39001446  0.26404185  0.47969663  1  0.12621  -0.00016  0.111669  0.11326  -5.5e-05  1.034569  0.0
H  H9  1  0.89001663  0.73592364  0.02024392  1  0.125118  -0.00016  0.111526  0.113025  -5.5e-05  1.034541  0.0
H  H10  1  0.60998009  0.73597510  0.52031440  1  0.126136  -0.00016  0.111602  0.11317  -5.5e-05  1.034537  0.0
H  H11  1  0.11000724  0.26405981  0.97973703  1  0.125648  -0.00016  0.111545  0.112951  -5.5e-05  1.034783  0.0
H  H12  1  0.18667954  0.50829108  0.97883748  1  0.085986  -0.000204  0.107612  0.121766  -0.000108  0.99159  0.0
H  H13  1  0.68667751  0.49171336  0.52117248  1  0.086209  -0.000204  0.107612  0.121789  -0.000108  0.991556  0.0
H  H14  1  0.81333561  0.49171749  0.02117539  1  0.08636  -0.000204  0.107682  0.12182  -0.000108  0.991652  0.0
H  H15  1  0.31332021  0.50829592  0.47882126  1  0.086336  -0.000204  0.107595  0.12176  -0.000108  0.99148  0.0
H  H16  1  0.22096817  0.62452700  0.88428934  1  0.088061  -0.000224  0.103283  0.118257  -0.000115  1.008152  0.0
H  H17  1  0.72097316  0.37547415  0.61568096  1  0.088519  -0.000224  0.103373  0.118369  -0.000115  1.008218  0.0
H  H18  1  0.77903906  0.37545804  0.11569689  1  0.088389  -0.000224  0.103329  0.118333  -0.000115  1.008192  0.0
H  H19  1  0.27903010  0.62454474  0.38432519  1  0.088681  -0.000224  0.103329  0.118284  -0.000115  1.008193  0.0
H  H20  1  0.06495043  0.78733807  0.12097285  1  0.098191  -1.3e-05  0.103365  0.128711  -1e-05  1.029231  0.0
H  H21  1  0.56493977  0.21265147  0.37904290  1  0.098134  -1.4e-05  0.103324  0.128782  -1e-05  1.029224  0.0
H  H22  1  0.93505997  0.21267103  0.87901601  1  0.098102  -1.3e-05  0.103439  0.128794  -1e-05  1.029165  0.0
H  H23  1  0.43507538  0.78735104  0.62095857  1  0.097972  -1.3e-05  0.103419  0.128873  -1e-05  1.029211  0.0
H  H24  1  0.17446165  0.33852861  0.87819447  1  0.068422  -6.5e-05  0.101113  0.100154  -3.1e-05  1.024624  0.0
H  H25  1  0.67446808  0.66146377  0.62179698  1  0.068467  -6.5e-05  0.101161  0.100175  -3.1e-05  1.02454  0.0
H  H26  1  0.82553766  0.66147634  0.12179684  1  0.068633  -6.5e-05  0.101131  0.100165  -3e-05  1.024427  0.0
H  H27  1  0.32553043  0.33854430  0.37820246  1  0.068607  -6.5e-05  0.10114  0.100112  -3.1e-05  1.024507  0.0
H  H28  1  0.56319243  0.97181108  0.64940893  1  0.095076  -0.000733  0.118838  0.085881  -0.000384  0.989893  0.0
H  H29  1  0.06317885  0.02819448  0.85058230  1  0.094807  -0.000734  0.118785  0.085843  -0.000384  0.989794  0.0
H  H30  1  0.43680371  0.02820060  0.35059274  1  0.094845  -0.000733  0.118797  0.085877  -0.000384  0.989776  0.0
H  H31  1  0.93680699  0.97179221  0.14941044  1  0.094626  -0.000733  0.118828  0.085874  -0.000384  0.989791  0.0
H  H32  1  0.80509414  0.11054034  0.61319153  1  0.133267  -0.002268  0.123132  0.098677  -0.001023  1.024462  -0.002
H  H33  1  0.30508800  0.88948955  0.88681395  1  0.134029  -0.002264  0.123129  0.09864  -0.001021  1.024345  -0.002
H  H34  1  0.19488378  0.88947581  0.38681686  1  0.133707  -0.002266  0.123102  0.098691  -0.001021  1.024515  -0.002
H  H35  1  0.69489150  0.11050729  0.11320583  1  0.134053  -0.002264  0.123152  0.098707  -0.001021  1.024601  -0.002
H  H36  1  0.90016352  0.40684313  0.75884401  1  0.081925  -0.000482  0.106182  0.112301  -0.000335  0.987205  0.0
H  H37  1  0.40014619  0.59315400  0.74115011  1  0.081803  -0.000482  0.106296  0.112462  -0.000334  0.987189  0.0
H  H38  1  0.09984609  0.59315889  0.24114404  1  0.081712  -0.000482  0.106252  0.112385  -0.000334  0.987244  0.0
H  H39  1  0.59986896  0.40684411  0.25884649  1  0.081521  -0.000482  0.106246  0.112359  -0.000335  0.987045  0.0
H  H40  1  0.52155386  0.17292924  0.52671736  1  0.123347  -0.00054  0.113621  0.081553  -0.000272  1.037124  0.0
H  H41  1  0.02155061  0.82703307  0.97323687  1  0.123557  -0.00054  0.113624  0.081543  -0.000272  1.036999  0.0
H  H42  1  0.47843831  0.82709278  0.47329753  1  0.123246  -0.00054  0.113638  0.081371  -0.000272  1.037326  0.0
H  H43  1  0.97845662  0.17293182  0.02673757  1  0.123776  -0.00054  0.113587  0.081485  -0.000272  1.037218  0.0
H  H44  1  0.87940654  0.86731004  0.74370580  1  0.096328  -0.001072  0.108297  0.112107  -0.000566  1.013565  -0.001
H  H45  1  0.37940165  0.13269375  0.75628241  1  0.096068  -0.001072  0.10822  0.111909  -0.000566  1.013855  -0.001
H  H46  1  0.12058088  0.13267518  0.25630463  1  0.096188  -0.001072  0.108359  0.112192  -0.000566  1.013694  -0.001
H  H47  1  0.62059528  0.86731072  0.24371480  1  0.096051  -0.001073  0.108276  0.111949  -0.000567  1.013786  -0.001
H  H48  1  0.05969745  0.24190831  0.53962903  1  0.165866  -0.001886  0.124661  0.106895  -0.000888  1.002112  -0.002
H  H49  1  0.55968985  0.75808906  0.96035081  1  0.165846  -0.001885  0.124643  0.106559  -0.000888  1.0019  -0.002
H  H50  1  0.94028839  0.75806890  0.46035496  1  0.166009  -0.001885  0.12473  0.106598  -0.000887  1.001826  -0.002
H  H51  1  0.44031104  0.24191310  0.03966023  1  0.165733  -0.001887  0.124626  0.106858  -0.000888  1.002177  -0.002
H  H52  1  0.69028211  0.89162645  0.70657629  1  0.186766  -0.000122  0.111642  0.134388  -3.1e-05  1.05123  0.0
H  H53  1  0.19027837  0.10837621  0.79342289  1  0.186622  -0.000122  0.111616  0.134375  -3.1e-05  1.051199  0.0
H  H54  1  0.30971165  0.10838596  0.29342620  1  0.186663  -0.000122  0.111679  0.134461  -3.1e-05  1.05112  0.0
H  H55  1  0.80972727  0.89160363  0.20657514  1  0.186338  -0.000122  0.111664  0.13437  -3.1e-05  1.051233  0.0
H  H56  1  0.20903225  0.90953055  0.15164429  1  0.066834  -0.000389  0.097137  0.098587  -0.000327  1.038215  0.0
H  H57  1  0.70902835  0.09043373  0.34834221  1  0.066493  -0.000388  0.097039  0.098472  -0.000327  1.038399  0.0
H  H58  1  0.79097260  0.09047754  0.84835576  1  0.067147  -0.000388  0.097188  0.098623  -0.000327  1.038291  0.0
H  H59  1  0.29097175  0.90955839  0.65164484  1  0.066559  -0.000388  0.097107  0.098552  -0.000327  1.038219  0.0
H  H60  1  0.20025554  0.31163661  0.47159785  1  0.089121  -0.001167  0.112152  0.118061  -0.00061  0.985057  -0.001
H  H61  1  0.70025240  0.68832273  0.02835163  1  0.089924  -0.001166  0.11214  0.118014  -0.00061  0.985051  -0.001
H  H62  1  0.79972793  0.68835208  0.52839183  1  0.089219  -0.001167  0.112118  0.118055  -0.00061  0.984892  -0.001
H  H63  1  0.29975958  0.31166550  0.97164457  1  0.089855  -0.001166  0.112091  0.117994  -0.00061  0.984976  -0.001
H  H64  1  0.02173258  0.96194569  0.70621088  1  0.111527  -0.001601  0.119883  0.091845  -0.000648  1.020761  -0.001
H  H65  1  0.52173710  0.03807554  0.79377464  1  0.111422  -0.001601  0.119923  0.091875  -0.000648  1.020865  -0.001
H  H66  1  0.97825881  0.03804606  0.29378511  1  0.11128  -0.0016  0.119978  0.091893  -0.000648  1.020829  -0.001
H  H67  1  0.47825984  0.96192650  0.20623334  1  0.111303  -0.0016  0.119928  0.091905  -0.000648  1.020771  -0.001
H  H68  1  0.36539458  0.74543999  0.91664168  1  0.108025  -6.3e-05  0.103868  0.11689  -3.4e-05  1.033523  0.0
H  H69  1  0.86541666  0.25458752  0.58336239  1  0.107685  -6.3e-05  0.103883  0.116986  -3.5e-05  1.033462  0.0
H  H70  1  0.63460156  0.25456515  0.08337383  1  0.107819  -6.3e-05  0.103904  0.116938  -3.5e-05  1.033563  0.0
H  H71  1  0.13456680  0.74540629  0.41663238  1  0.1074  -6.2e-05  0.103866  0.116927  -3.4e-05  1.033567  0.0
H  H72  1  0.90938771  0.57633750  0.86063757  1  0.077713  -1.1e-05  0.104632  0.119191  1.2e-05  1.000971  0.0
H  H73  1  0.40939281  0.42365236  0.63936774  1  0.077607  -1.1e-05  0.104658  0.119255  1.2e-05  1.000793  0.0
H  H74  1  0.09062031  0.42366724  0.13936696  1  0.077933  -1.1e-05  0.104636  0.11925  1.1e-05  1.000891  0.0
H  H75  1  0.59059857  0.57633765  0.36061930  1  0.077806  -1.1e-05  0.104676  0.119285  1.2e-05  1.000844  0.0
C  C76  1  0.35069558  0.17225661  0.55180197  1  -0.001477  -0.005539  -0.006689  0.018515  -0.003709  4.019142  -0.005
C  C77  1  0.85068879  0.82774361  0.94817201  1  -0.002303  -0.00554  -0.0069  0.018059  -0.003711  4.019046  -0.005
C  C78  1  0.64928947  0.82775286  0.44819727  1  -0.001831  -0.00554  -0.006811  0.01824  -0.003711  4.019254  -0.005
C  C79  1  0.14931369  0.17225314  0.05182602  1  -0.00157  -0.005541  -0.00698  0.017977  -0.003712  4.019469  -0.005
C  C80  1  0.03696145  0.36259547  0.81313363  1  0.002978  -0.007761  -0.025467  -0.042405  -0.005436  3.984736  -0.006
C  C81  1  0.53696416  0.63740178  0.68686737  1  0.003024  -0.007753  -0.025445  -0.042369  -0.00543  3.98499  -0.006
C  C82  1  0.96303152  0.63740285  0.18686907  1  0.002778  -0.007759  -0.025556  -0.042675  -0.005434  3.985012  -0.006
C  C83  1  0.46304703  0.36259610  0.31312313  1  0.002582  -0.007749  -0.025492  -0.042456  -0.005428  3.985225  -0.006
C  C84  1  0.73303779  0.00355047  0.65736233  1  0.027287  -0.005763  -0.004513  0.022832  -0.003903  4.006718  -0.005
C  C85  1  0.23304568  0.99645926  0.84262790  1  0.026744  -0.005763  -0.004609  0.02271  -0.003902  4.006683  -0.005
C  C86  1  0.26695201  0.99646063  0.34264281  1  0.02643  -0.005764  -0.004483  0.023019  -0.003902  4.006938  -0.005
C  C87  1  0.76696631  0.00353989  0.15737805  1  0.027135  -0.005763  -0.004608  0.022797  -0.003901  4.006828  -0.005
C  C88  1  0.26608968  0.13487127  0.58529749  1  0.480845  0.001447  0.063402  0.069726  0.001956  3.848864  0.001
C  C89  1  0.76607473  0.86515358  0.91469457  1  0.481044  0.001443  0.063521  0.069637  0.001953  3.849253  0.001
C  C90  1  0.73390408  0.86514214  0.41471314  1  0.481114  0.001443  0.06366  0.069938  0.001954  3.849033  0.001
C  C91  1  0.23392616  0.13484332  0.08530773  1  0.480501  0.00144  0.063496  0.06964  0.00195  3.848935  0.001
C  C92  1  0.32673450  0.23557158  0.50846567  1  -0.058848  0.003731  -0.060918  -0.073286  0.00412  3.922916  0.002
C  C93  1  0.82672524  0.76439871  0.99148473  1  -0.057305  0.003731  -0.060558  -0.0727  0.004119  3.922141  0.002
C  C94  1  0.67325926  0.76443047  0.49152300  1  -0.058697  0.003732  -0.060672  -0.073064  0.004121  3.92286  0.002
C  C95  1  0.17328199  0.23557931  0.00850192  1  -0.058298  0.00373  -0.060643  -0.072639  0.004118  3.922848  0.002
C  C96  1  0.12472277  0.48560780  0.93021879  1  0.00334  -0.000718  -0.102148  -0.205427  -0.000462  4.021855  -0.001
C  C97  1  0.62470966  0.51440203  0.56977896  1  0.003205  -0.000717  -0.102216  -0.205541  -0.000462  4.021919  -0.001
C  C98  1  0.87530348  0.51440352  0.06977313  1  0.003279  -0.000718  -0.102354  -0.205594  -0.000462  4.022038  -0.001
C  C99  1  0.37529440  0.48560157  0.43021377  1  0.003306  -0.000717  -0.102269  -0.205689  -0.000461  4.021751  -0.001
C  C100  1  0.21981017  0.68584710  0.94367621  1  -0.038813  -0.000768  -0.109825  -0.217842  -0.000478  4.020066  -0.001
C  C101  1  0.71981796  0.31412953  0.55631729  1  -0.039539  -0.000768  -0.109879  -0.21789  -0.000478  4.020698  -0.001
C  C102  1  0.78020419  0.31413268  0.05631999  1  -0.038574  -0.000769  -0.109946  -0.218066  -0.000479  4.020242  -0.001
C  C103  1  0.28018610  0.68587819  0.44369171  1  -0.039547  -0.000769  -0.109992  -0.218004  -0.000479  4.020484  -0.001
C  C104  1  0.13179985  0.77862256  0.07721807  1  -0.049096  -0.000416  -0.10905  -0.212979  -0.000202  3.98799  0.0
C  C105  1  0.63181285  0.22135838  0.42277879  1  -0.032066  -0.000417  -0.108949  -0.212963  -0.000203  3.988104  0.0
C  C106  1  0.86821213  0.22137748  0.92277365  1  0.010301  -0.000417  -0.108994  -0.212887  -0.000203  3.987768  0.0
C  C107  1  0.36820389  0.77864762  0.57722187  1  -0.048215  -0.000417  -0.109059  -0.213002  -0.000202  3.987924  0.0
C  C108  1  0.04851636  0.55092409  0.92449003  1  0.363981  0.000448  0.084498  0.259907  0.000526  4.047408  0.0
C  C109  1  0.54850649  0.44907639  0.57550039  1  0.363894  0.000449  0.084583  0.259925  0.000527  4.046985  0.0
C  C110  1  0.95150434  0.44908071  0.07549701  1  0.363985  0.000449  0.084563  0.259932  0.000526  4.047225  0.0
C  C111  1  0.45150471  0.55092381  0.42449559  1  0.364169  0.00045  0.08465  0.260051  0.000527  4.046696  0.0
C  C112  1  0.11776138  0.39194063  0.87475574  1  -0.042104  -0.000631  -0.086387  -0.075537  -0.00027  4.002172  -0.001
C  C113  1  0.61775456  0.60806723  0.62524750  1  -0.042052  -0.00063  -0.086321  -0.075394  -0.000269  4.00241  -0.001
C  C114  1  0.88224347  0.60806956  0.12524370  1  -0.042246  -0.00063  -0.086273  -0.075355  -0.00027  4.002265  -0.001
C  C115  1  0.38226535  0.39193524  0.37475276  1  -0.041893  -0.00063  -0.086278  -0.075246  -0.000269  4.002117  -0.001
C  C116  1  0.62307890  0.02101747  0.64033824  1  0.603862  -0.000857  0.073952  0.049234  -0.000561  3.944968  -0.001
C  C117  1  0.12308018  0.97899778  0.85965381  1  0.604274  -0.000857  0.074007  0.04919  -0.000561  3.945468  -0.001
C  C118  1  0.37690853  0.97900716  0.35967076  1  0.604247  -0.000856  0.074007  0.049127  -0.00056  3.945862  -0.001
C  C119  1  0.87692705  0.02099875  0.14033811  1  0.604523  -0.000857  0.073862  0.049027  -0.000561  3.945801  -0.001
C  C120  1  0.29646034  0.83523223  0.03619609  1  -0.043614  -0.009384  -0.033187  -0.067283  -0.006538  3.996728  -0.007
C  C121  1  0.79647729  0.16476360  0.46380525  1  -0.044123  -0.009379  -0.033093  -0.067255  -0.006535  3.996638  -0.007
C  C122  1  0.70355244  0.16477153  0.96382024  1  -0.043435  -0.009386  -0.033112  -0.066908  -0.006539  3.996698  -0.007
C  C123  1  0.20352202  0.83522990  0.53618098  1  -0.044106  -0.009379  -0.033051  -0.067268  -0.006536  3.996497  -0.007
C  C124  1  0.81836304  0.05527178  0.64091936  1  0.487256  0.001347  0.066723  0.080624  0.001637  3.830288  0.001
C  C125  1  0.31836475  0.94473891  0.85907820  1  0.487314  0.001352  0.066659  0.080591  0.001639  3.829694  0.001
C  C126  1  0.18162280  0.94473946  0.35908944  1  0.487816  0.001354  0.066615  0.080306  0.00164  3.830056  0.001
C  C127  1  0.68163614  0.05525564  0.14093670  1  0.48692  0.001351  0.066691  0.080517  0.001641  3.830166  0.001
C  C128  1  0.96249659  0.42939593  0.80722682  1  -0.039548  0.000227  -0.082536  -0.072346  0.000302  3.981237  0.0
C  C129  1  0.46250143  0.57060093  0.69278459  1  -0.039739  0.000228  -0.082592  -0.0725  0.000302  3.981093  0.0
C  C130  1  0.03749480  0.57060109  0.19277852  1  -0.039636  0.000228  -0.082528  -0.072375  0.000303  3.981311  0.0
C  C131  1  0.53751452  0.42939360  0.30721038  1  -0.039553  0.000228  -0.082546  -0.072349  0.000302  3.981089  0.0
C  C132  1  0.46073051  0.14828285  0.56154720  1  0.623073  -0.000614  0.072804  0.055829  -0.000413  3.921623  0.0
C  C133  1  0.96073035  0.85170420  0.93842760  1  0.623407  -0.000615  0.072872  0.05599  -0.000413  3.921276  0.0
C  C134  1  0.53924978  0.85174111  0.43846281  1  0.622923  -0.000615  0.072862  0.056078  -0.000413  3.921554  0.0
C  C135  1  0.03927133  0.14828378  0.06156188  1  0.623633  -0.000616  0.073021  0.056066  -0.000414  3.921755  0.0
C  C136  1  0.85892945  0.91876179  0.71310869  1  -0.056876  -0.004982  -0.082457  -0.121197  -0.003404  3.987533  -0.004
C  C137  1  0.35893971  0.08124537  0.78687993  1  -0.057028  -0.004984  -0.082396  -0.121075  -0.003407  3.98735  -0.004
C  C138  1  0.14105402  0.08122443  0.28689056  1  -0.056806  -0.004984  -0.082487  -0.121236  -0.003406  3.987461  -0.004
C  C139  1  0.64107228  0.91874904  0.21311199  1  -0.058296  -0.004989  -0.082526  -0.121114  -0.003407  3.987486  -0.004
C  C140  1  0.14303942  0.22416154  0.54126232  1  0.425449  0.00066  0.055521  0.109392  0.000976  3.89202  0.0
C  C141  1  0.64302806  0.77583936  0.95871834  1  0.426211  0.000666  0.05553  0.109723  0.00098  3.891157  0.0
C  C142  1  0.85695593  0.77584104  0.45874099  1  0.424975  0.000662  0.055389  0.109817  0.000981  3.891188  0.0
C  C143  1  0.35697363  0.22415688  0.04128497  1  0.425411  0.000664  0.055558  0.109179  0.000982  3.891781  0.0
C  C144  1  0.75471395  0.93327529  0.69343313  1  -0.031452  0.003554  -0.061068  -0.07265  0.003941  3.89363  0.002
C  C145  1  0.25471921  0.06673426  0.80656666  1  -0.031135  0.003557  -0.060993  -0.072504  0.003944  3.893309  0.002
C  C146  1  0.24527822  0.06672943  0.30657079  1  -0.03152  0.003556  -0.061097  -0.072715  0.003943  3.89351  0.002
C  C147  1  0.74529752  0.93326641  0.19344214  1  -0.031105  0.003558  -0.06101  -0.072587  0.003945  3.893478  0.002
C  C148  1  0.21200753  0.84637102  0.09386558  1  -7.7e-05  0.000394  -0.085977  -0.063717  0.000499  3.981116  0.0
C  C149  1  0.71201354  0.15360043  0.40612356  1  0.000228  0.000395  -0.085917  -0.063605  0.000499  3.980815  0.0
C  C150  1  0.78799574  0.15363492  0.90613325  1  -0.059805  0.000395  -0.08616  -0.063995  0.000499  3.980994  0.0
C  C151  1  0.28798180  0.84638894  0.59386511  1  0.000732  0.000395  -0.086016  -0.063796  0.000499  3.980789  0.0
C  C152  1  0.37939797  0.91048849  0.04913602  1  1.573915  0.001815  0.200805  0.570938  0.00208  4.21957  0.004
C  C153  1  0.87939754  0.08951419  0.45088037  1  1.573891  0.001816  0.200561  0.570625  0.00208  4.2202  0.004
C  C154  1  0.62059975  0.08952830  0.95089006  1  1.574286  0.001816  0.200546  0.570453  0.002078  4.220369  0.004
C  C155  1  0.12057800  0.91046476  0.54909325  1  1.572605  0.001815  0.200577  0.571237  0.002082  4.220025  0.004
C  C156  1  0.22186310  0.26211831  0.50407545  1  0.00347  -0.005372  -0.0824  -0.130007  -0.003647  3.997228  -0.004
C  C157  1  0.72185512  0.73784834  0.99587595  1  0.002793  -0.005373  -0.082553  -0.130105  -0.003646  3.996847  -0.004
C  C158  1  0.77812907  0.73788414  0.49592419  1  0.003874  -0.00537  -0.082395  -0.129983  -0.003646  3.996889  -0.004
C  C159  1  0.27814894  0.26213457  0.00410967  1  0.00316  -0.005371  -0.082381  -0.129913  -0.003647  3.996669  -0.004
C  C160  1  0.93875529  0.97217852  0.69416024  1  0.472241  0.001471  0.050192  0.096181  0.001911  3.917249  0.001
C  C161  1  0.43876727  0.02783822  0.80584120  1  0.471707  0.001468  0.050153  0.096121  0.001912  3.917318  0.001
C  C162  1  0.06122579  0.02781725  0.30584958  1  0.472382  0.001469  0.049983  0.095804  0.00191  3.917681  0.001
C  C163  1  0.56123283  0.97214200  0.19414789  1  0.472794  0.00147  0.050144  0.096069  0.001909  3.917273  0.001
C  C164  1  0.03427629  0.25982169  0.75713728  1  1.563327  0.001362  0.190022  0.551446  0.001766  4.251306  0.003
C  C165  1  0.53428141  0.74016802  0.74285070  1  1.563607  0.00136  0.18988  0.551475  0.001766  4.251917  0.003
C  C166  1  0.96571748  0.74017724  0.24286257  1  1.56371  0.001361  0.189957  0.551405  0.001766  4.251546  0.003
C  C167  1  0.46572503  0.25983598  0.25715301  1  1.563723  0.001358  0.189908  0.551615  0.001765  4.251572  0.003
C  C168  1  0.13500721  0.69955665  0.00103375  1  0.379146  0.000404  0.084837  0.257185  0.000472  4.05176  0.0
C  C169  1  0.63502306  0.30042282  0.49896086  1  0.363165  0.000404  0.084788  0.257092  0.000472  4.051907  0.0
C  C170  1  0.86500319  0.30043160  0.99896305  1  0.379754  0.000405  0.084912  0.2574  0.000473  4.05167  0.0
C  C171  1  0.36498417  0.69957550  0.50104184  1  0.3798  0.000405  0.084796  0.257168  0.000473  4.051702  0.0
C  C172  1  0.30027372  0.75358584  0.96195193  1  -0.002927  -0.00065  -0.085939  -0.074116  -0.000311  3.981214  -0.001
C  C173  1  0.80029117  0.24640939  0.53805092  1  -0.00201  -0.000651  -0.08589  -0.074064  -0.000312  3.981231  -0.001
C  C174  1  0.69973351  0.24640673  0.03806664  1  -0.003859  -0.000652  -0.0859  -0.074142  -0.000313  3.981282  -0.001
C  C175  1  0.19970338  0.75358967  0.46193327  1  -0.002254  -0.000652  -0.085838  -0.073971  -0.000313  3.981301  -0.001
C  C176  1  0.96759473  0.52357893  0.86329228  1  -0.005949  -0.000158  -0.102384  -0.20204  -2.7e-05  3.998473  0.0
C  C177  1  0.46759170  0.47641964  0.63670692  1  -0.005673  -0.000157  -0.102434  -0.2021  -2.6e-05  3.998444  0.0
C  C178  1  0.03241963  0.47642541  0.13670126  1  -0.006383  -0.000158  -0.102437  -0.202062  -2.7e-05  3.998591  0.0
C  C179  1  0.53242504  0.52356543  0.36329924  1  -0.006099  -0.000158  -0.10249  -0.202163  -2.7e-05  3.998618  0.0
N  N180  1  0.48741047  0.10111250  0.61081945  1  -0.762366  -0.001013  -0.208734  -0.170913  -0.000648  3.33949  -0.001
N  N181  1  0.98740709  0.89891175  0.88918402  1  -0.76278  -0.001013  -0.208934  -0.171024  -0.000648  3.33951  -0.001
N  N182  1  0.51256428  0.89891671  0.38919930  1  -0.761478  -0.001013  -0.208997  -0.171028  -0.000648  3.34005  -0.001
N  N183  1  0.01259380  0.10109216  0.11081726  1  -0.762929  -0.001012  -0.208922  -0.170894  -0.000648  3.339813  -0.001
N  N184  1  0.91874035  0.03848772  0.65779646  1  -1.208197  -0.082828  -0.339324  -0.214832  -0.055257  3.610818  -0.072
N  N185  1  0.41875024  0.96153897  0.84221208  1  -1.207686  -0.082827  -0.339228  -0.214611  -0.055258  3.610254  -0.072
N  N186  1  0.08123757  0.96151599  0.34221864  1  -1.208137  -0.082827  -0.339264  -0.214428  -0.055254  3.610728  -0.072
N  N187  1  0.58124670  0.03845880  0.15779469  1  -1.207235  -0.082834  -0.339291  -0.214638  -0.055263  3.610523  -0.072
N  N188  1  0.16534165  0.16011061  0.57971438  1  -1.21435  -0.080831  -0.334393  -0.204774  -0.054135  3.56733  -0.07
N  N189  1  0.66533749  0.83990956  0.92028743  1  -1.21488  -0.080824  -0.334166  -0.204183  -0.054129  3.567133  -0.07
N  N190  1  0.83464657  0.83989268  0.42028913  1  -1.214454  -0.080837  -0.334498  -0.204801  -0.054141  3.567124  -0.07
N  N191  1  0.33466657  0.16008877  0.07971527  1  -1.21478  -0.080819  -0.334129  -0.204197  -0.054126  3.567116  -0.07
N  N192  1  0.59571375  0.09192314  0.61716919  1  -0.749635  -0.000956  -0.211261  -0.16398  -0.000604  3.321302  -0.001
N  N193  1  0.09570862  0.90810491  0.88283261  1  -0.74974  -0.000955  -0.211198  -0.163964  -0.000604  3.322271  -0.001
N  N194  1  0.40426971  0.90810725  0.38284325  1  -0.750073  -0.000955  -0.211058  -0.163805  -0.000604  3.322545  -0.001
N  N195  1  0.90429782  0.09189172  0.11716237  1  -0.749684  -0.000954  -0.211122  -0.163877  -0.000603  3.322332  -0.001
O  O196  1  0.04548102  0.64285012  0.98331264  1  -1.109495  0.00026  -0.149043  -0.218391  0.000261  2.613034  0.0
O  O197  1  0.54550530  0.35713902  0.51667636  1  -1.109885  0.000261  -0.14912  -0.218463  0.000261  2.612348  0.0
O  O198  1  0.95452225  0.35714737  0.01668619  1  -1.109363  0.00026  -0.149044  -0.218487  0.000261  2.613007  0.0
O  O199  1  0.45449559  0.64285969  0.48331739  1  -1.110294  0.000261  -0.148997  -0.218381  0.000261  2.612489  0.0
O  O200  1  0.45866344  0.89421422  0.00057276  1  -1.202632  -0.00266  -0.326986  -0.602223  -0.000855  2.371018  -0.004
O  O201  1  0.95867879  0.10579596  0.49943835  1  -1.202514  -0.002661  -0.326935  -0.602217  -0.000855  2.371215  -0.004
O  O202  1  0.54132637  0.10579657  0.99944316  1  -1.202963  -0.002658  -0.326986  -0.602266  -0.000853  2.371649  -0.004
O  O203  1  0.04128724  0.89419438  0.50055784  1  -1.201543  -0.002655  -0.326883  -0.602402  -0.000851  2.371834  -0.004
O  O204  1  0.36264650  0.99035620  0.11122648  1  -1.130188  -0.111839  -0.325918  -0.559039  -0.071028  2.381781  -0.101
O  O205  1  0.86262412  0.00964535  0.38880110  1  -1.130257  -0.111793  -0.325832  -0.5589  -0.071002  2.382148  -0.101
O  O206  1  0.63736469  0.00966487  0.88880082  1  -1.13  -0.111843  -0.325741  -0.55876  -0.071033  2.381854  -0.101
O  O207  1  0.13737598  0.99033074  0.61117110  1  -1.129825  -0.111809  -0.325812  -0.559197  -0.071019  2.382005  -0.101
O  O208  1  0.98641539  0.23723421  0.68392552  1  -1.122466  -0.104425  -0.326067  -0.551134  -0.066749  2.280151  -0.093
O  O209  1  0.48639951  0.76277025  0.81605721  1  -1.122571  -0.104405  -0.325991  -0.551175  -0.066736  2.280347  -0.093
O  O210  1  0.01357838  0.76276187  0.31607352  1  -1.122846  -0.104421  -0.326069  -0.551045  -0.066747  2.280262  -0.093
O  O211  1  0.51361564  0.23723035  0.18394976  1  -1.122457  -0.104387  -0.325983  -0.551254  -0.066723  2.280486  -0.093
O  O212  1  0.08103442  0.20012180  0.78295393  1  -1.189228  -0.000856  -0.334403  -0.588019  0.000519  2.204446  -0.002
O  O213  1  0.58105535  0.79986565  0.71703874  1  -1.189568  -0.000853  -0.334356  -0.58803  0.000521  2.204546  -0.002
O  O214  1  0.91896410  0.79987729  0.21705019  1  -1.189277  -0.000854  -0.334335  -0.587893  0.00052  2.204699  -0.002
O  O215  1  0.41894633  0.20014207  0.28297026  1  -1.189658  -0.000854  -0.334369  -0.588036  0.00052  2.204209  -0.002
