# generated using pymatgen
data_CuH30C24(NO)4
_symmetry_space_group_name_H-M   'P 1'
_cell_length_a   5.35608946
_cell_length_b   9.41101364
_cell_length_c   10.59519017
_cell_angle_alpha   94.96378855
_cell_angle_beta   87.05034010
_cell_angle_gamma   89.72077425
_symmetry_Int_Tables_number   1
_chemical_formula_structural   CuH30C24(NO)4
_chemical_formula_sum   'Cu1 H30 C24 N4 O4'
_cell_volume   531.33238782
_cell_formula_units_Z   1
loop_
 _symmetry_equiv_pos_site_id
 _symmetry_equiv_pos_as_xyz
  1  'x, y, z'
loop_
 _atom_site_type_symbol
 _atom_site_label
 _atom_site_symmetry_multiplicity
 _atom_site_fract_x
 _atom_site_fract_y
 _atom_site_fract_z
 _atom_site_occupancy
 _atom_site_hle17_ddec_charge
 _atom_site_hle17_ddec_spin_density
 _atom_site_hle17_ddec_sum_bond_order
 _atom_site_hle17_magmom
 _atom_site_hse06_10hf_ddec_charge
 _atom_site_hse06_10hf_ddec_spin_density
 _atom_site_hse06_10hf_ddec_sum_bond_order
 _atom_site_hse06_10hf_magmom
 _atom_site_hse06_ddec_charge
 _atom_site_hse06_ddec_spin_density
 _atom_site_hse06_ddec_sum_bond_order
 _atom_site_hse06_magmom
 _atom_site_pbe_cm5_charge
 _atom_site_pbe_ddec_charge
 _atom_site_pbe_ddec_spin_density
 _atom_site_pbe_ddec_sum_bond_order
 _atom_site_pbe_magmom
Cu  Cu0  1  0.50000388  0.99999470  0.50000208  1  0.818749  0.664038  1.781078  0.478  0.790563  0.749634  2.167079  0.586  0.879309  0.815809  2.100144  0.668  0.740628  0.736904  0.704253  2.213216  0.535
H  H1  1  0.91941673  0.30472200  0.92622145  1  0.037525  5.3e-05  0.956339  0.0  0.052261  3.3e-05  1.031216  0.0  0.052619  2.7e-05  1.030866  0.0  0.088135  0.052191  4.8e-05  1.030958  0.0
H  H2  1  0.08057446  0.69528218  0.07377827  1  0.037487  5.5e-05  0.956318  0.0  0.052226  3.4e-05  1.031184  0.0  0.052587  2.7e-05  1.03082  0.0  0.088095  0.052144  4.8e-05  1.030931  0.0
H  H3  1  0.61361615  0.38284433  0.94113139  1  0.061976  -1e-06  0.945075  0.0  0.080193  9e-06  1.010182  0.0  0.080436  5e-06  1.010211  0.0  0.102885  0.079993  8e-06  1.010057  0.0
H  H4  1  0.38638035  0.61716408  0.05886642  1  0.062019  -0.0  0.945003  0.0  0.080192  9e-06  1.010173  0.0  0.080435  5e-06  1.010208  0.0  0.102906  0.079993  8e-06  1.010047  0.0
H  H5  1  0.75188467  0.13838060  0.07574949  1  0.065062  0.000943  0.938131  0.001  0.080474  0.000783  0.99486  0.001  0.080808  0.00055  0.996365  0.001  0.097307  0.080216  0.000952  0.993607  0.001
H  H6  1  0.24811006  0.86162500  0.92425398  1  0.065165  0.000942  0.93807  0.001  0.080526  0.000783  0.994778  0.001  0.080857  0.00055  0.99628  0.001  0.097315  0.080269  0.000952  0.99352  0.001
H  H7  1  0.25836731  0.52010011  0.59053247  1  0.111869  0.000802  0.951493  0.0  0.123573  0.000847  1.009341  0.0  0.126384  0.000618  1.009224  0.0  0.109403  0.121781  0.000782  1.009449  0.001
H  H8  1  0.74164361  0.47989499  0.40945345  1  0.111811  0.000801  0.951976  0.0  0.123617  0.000846  1.009641  0.0  0.126426  0.000618  1.009524  0.0  0.109353  0.121818  0.000782  1.009747  0.001
H  H9  1  0.72312438  0.21987139  0.72747459  1  0.110887  0.000499  0.971234  0.001  0.118115  0.000507  1.037771  0.001  0.122308  0.000335  1.035601  0.0  0.107009  0.115027  0.000628  1.039612  0.001
H  H10  1  0.27689732  0.78012592  0.27252347  1  0.11084  0.000501  0.970831  0.001  0.118009  0.000507  1.037503  0.001  0.122205  0.000335  1.035328  0.0  0.106995  0.114927  0.000628  1.039334  0.001
H  H11  1  0.88029720  0.61131583  0.71044010  1  0.093633  -7e-06  0.919302  0.0  0.107657  2.6e-05  0.980763  0.0  0.109334  1.2e-05  0.979474  0.0  0.110329  0.106186  1.7e-05  0.982039  0.0
H  H12  1  0.11971373  0.38867842  0.28954865  1  0.093634  -1e-06  0.919397  0.0  0.107681  2.7e-05  0.980809  0.0  0.109357  1.2e-05  0.979526  0.0  0.110318  0.106205  1.7e-05  0.982082  0.0
H  H13  1  0.63072074  0.49276189  0.74430989  1  0.07026  -4.9e-05  0.948083  0.0  0.083444  5e-06  1.017877  0.0  0.084452  -1.1e-05  1.017557  0.0  0.102401  0.082576  1.1e-05  1.018235  0.0
H  H14  1  0.36929025  0.50723136  0.25567978  1  0.070311  -4.8e-05  0.948108  0.0  0.083468  5e-06  1.01793  0.0  0.084472  -1.1e-05  1.017617  0.0  0.1024  0.082594  1.1e-05  1.018288  0.0
H  H15  1  0.99566235  0.02533939  0.62902848  1  0.094466  0.000674  0.954162  0.002  0.09777  0.000624  1.025976  0.001  0.100153  0.000349  1.023817  0.001  0.120261  0.095538  0.000869  1.028482  0.002
H  H16  1  0.00434233  0.97465896  0.37097466  1  0.094382  0.000684  0.953929  0.002  0.097717  0.000626  1.025769  0.001  0.100147  0.000351  1.023558  0.001  0.12029  0.095481  0.00087  1.028272  0.002
H  H17  1  0.31368270  0.23153204  0.09464816  1  0.075369  0.000295  0.957287  0.0  0.085964  0.000171  1.02825  0.0  0.08778  0.0001  1.02784  0.0  0.08793  0.084749  0.000242  1.028403  0.0
H  H18  1  0.68631198  0.76847370  0.90535720  1  0.075373  0.000294  0.957286  0.0  0.08597  0.000171  1.028264  0.0  0.087786  0.0001  1.02785  0.0  0.087927  0.084759  0.000242  1.028412  0.0
H  H19  1  0.20169894  0.05945282  0.11946257  1  0.073233  0.000154  0.933127  0.0  0.09311  0.000169  0.992311  0.0  0.09403  0.000117  0.992798  0.0  0.089116  0.092552  0.000224  0.991693  0.0
H  H20  1  0.79829744  0.94055423  0.88054563  1  0.073195  0.000148  0.933199  0.0  0.093112  0.000169  0.992335  0.0  0.094  0.000117  0.992865  0.0  0.089132  0.092553  0.000225  0.991719  0.0
H  H21  1  0.84562089  0.88550165  0.10441738  1  0.055522  0.000192  0.959232  0.0  0.070835  0.000111  1.029743  0.0  0.071642  6.1e-05  1.029603  0.0  0.081967  0.070471  0.000176  1.029439  0.0
H  H22  1  0.15436820  0.11450311  0.89559091  1  0.055623  0.000197  0.959196  0.0  0.070905  0.000111  1.029734  0.0  0.071715  6.1e-05  1.029591  0.0  0.081996  0.070537  0.000177  1.029438  0.0
H  H23  1  0.52353775  0.84986240  0.12266222  1  0.058643  0.000116  0.958787  0.0  0.0758  0.000145  1.027049  0.0  0.076876  8e-05  1.026712  0.0  0.083894  0.075054  0.000206  1.026941  0.0
H  H24  1  0.47645487  0.15014549  0.87734417  1  0.05868  0.000115  0.958809  0.0  0.075861  0.000145  1.027004  0.0  0.076938  8e-05  1.026664  0.0  0.083935  0.075117  0.000206  1.026903  0.0
H  H25  1  0.20600759  0.64607611  0.84780087  1  0.078336  4e-06  0.955597  0.0  0.095496  1.2e-05  1.017681  0.0  0.096195  1.2e-05  1.017679  0.0  0.106283  0.094854  -3e-06  1.017713  0.0
H  H26  1  0.79398526  0.35393116  0.15219699  1  0.078316  8e-06  0.95579  0.0  0.095525  1.3e-05  1.01775  0.0  0.096227  1.3e-05  1.017747  0.0  0.10633  0.094879  -3e-06  1.017779  0.0
H  H27  1  0.27958721  0.46504816  0.87123471  1  0.034057  -1.5e-05  0.951951  0.0  0.04721  -1.4e-05  1.027261  0.0  0.04805  -1.7e-05  1.026327  0.0  0.084936  0.046651  -1.5e-05  1.027632  0.0
H  H28  1  0.72041483  0.53496136  0.12876208  1  0.034112  -1.6e-05  0.951949  0.0  0.047225  -1.4e-05  1.027278  0.0  0.048067  -1.7e-05  1.026345  0.0  0.084917  0.046676  -1.5e-05  1.02762  0.0
H  H29  1  0.50184291  0.30734207  0.48248942  1  0.081277  0.001141  0.970369  0.001  0.084729  0.00113  1.043903  0.001  0.08726  0.000775  1.041319  0.001  0.113245  0.082864  0.001204  1.045569  0.001
H  H30  1  0.49817437  0.69264279  0.51749997  1  0.081436  0.001134  0.970728  0.001  0.084923  0.001128  1.044181  0.001  0.087442  0.000773  1.041609  0.001  0.11337  0.08306  0.001202  1.045851  0.001
C  C31  1  0.81210963  0.40435467  0.95594058  1  -0.020075  5.6e-05  3.689299  0.0  -0.08092  4.4e-05  3.956349  0.0  -0.077044  4.1e-05  3.968584  0.0  -0.069105  -0.083317  5.7e-05  3.947688  0.0
C  C32  1  0.18788721  0.59565120  0.04405150  1  -0.020178  4.9e-05  3.689168  0.0  -0.080942  4.1e-05  3.95616  0.0  -0.077048  4.2e-05  3.968357  0.0  -0.06915  -0.083332  5.7e-05  3.947498  0.0
C  C33  1  0.60356874  0.07288899  0.11636080  1  -0.112628  0.01048  3.632617  0.011  -0.110889  0.005851  3.863348  0.006  -0.117515  0.004011  3.878863  0.005  -0.092948  -0.106425  0.007371  3.852676  0.008
C  C34  1  0.39643141  0.92711806  0.88364638  1  -0.112978  0.010483  3.632907  0.011  -0.111016  0.005852  3.863319  0.006  -0.117629  0.004011  3.878805  0.005  -0.093017  -0.10655  0.007371  3.852644  0.008
C  C35  1  0.19389543  0.41153957  0.59980422  1  -0.168065  0.00814  3.700393  0.008  -0.181374  0.003387  3.940563  0.004  -0.189501  0.00322  3.961137  0.004  -0.082614  -0.176169  0.003651  3.927064  0.004
C  C36  1  0.80610857  0.58842470  0.40018408  1  -0.168205  0.008149  3.699687  0.008  -0.181531  0.003388  3.939894  0.004  -0.189657  0.003222  3.960461  0.004  -0.082721  -0.176324  0.003653  3.926395  0.004
C  C37  1  0.89682906  0.24689905  0.67756137  1  -0.164716  0.008528  3.708894  0.009  -0.182651  0.003544  3.959963  0.004  -0.190596  0.003207  3.978746  0.004  -0.081822  -0.177962  0.003777  3.948392  0.005
C  C38  1  0.10313816  0.75309793  0.32244907  1  -0.164672  0.008508  3.709434  0.009  -0.182511  0.003543  3.960517  0.004  -0.19046  0.003205  3.979322  0.004  -0.081812  -0.177832  0.003774  3.948934  0.005
C  C39  1  0.83345410  0.50924391  0.74882626  1  -0.071684  0.00031  3.694595  0.001  -0.131997  4e-05  3.946975  0.0  -0.128821  -3e-06  3.956346  0.0  -0.064681  -0.13414  0.000104  3.940914  0.0
C  C40  1  0.16654562  0.49074759  0.25117211  1  -0.071738  0.000308  3.694666  0.001  -0.132033  4.1e-05  3.947041  0.0  -0.128858  -5e-06  3.956411  0.0  -0.064686  -0.134167  0.000104  3.940969  0.0
C  C41  1  0.04624898  0.13620362  0.62014707  1  0.124894  -0.011022  3.690905  -0.007  0.092676  -0.003164  3.954078  -0.002  0.101547  -0.004807  3.971333  -0.003  0.047153  0.086522  -0.00175  3.944137  -0.001
C  C42  1  0.95375830  0.86376275  0.37985444  1  0.125021  -0.011032  3.691546  -0.007  0.092749  -0.003163  3.954704  -0.002  0.101588  -0.004802  3.971945  -0.003  0.047141  0.086603  -0.001747  3.944748  -0.001
C  C43  1  0.35003025  0.11703189  0.06967947  1  -0.116676  -0.000257  3.64602  0.0  -0.157939  0.000181  3.901276  0.0  -0.158436  2e-06  3.914104  0.0  -0.167643  -0.157599  0.000382  3.892389  0.0
C  C44  1  0.64996631  0.88297303  0.93032868  1  -0.116627  -0.000247  3.645909  0.0  -0.157948  0.000181  3.901148  0.0  -0.158437  2e-06  3.913975  0.0  -0.167706  -0.157606  0.000382  3.892258  0.0
C  C45  1  0.66083305  0.91543791  0.07358699  1  -0.107175  -5e-05  3.672541  0.0  -0.154527  0.0002  3.935332  0.0  -0.154182  4e-06  3.948565  0.0  -0.167075  -0.154444  0.000402  3.925908  0.0
C  C46  1  0.33915965  0.08456892  0.92641938  1  -0.107229  -6.6e-05  3.672868  0.0  -0.154579  0.000197  3.935494  0.0  -0.154238  5e-06  3.948735  0.0  -0.167114  -0.154495  0.000402  3.926076  0.0
C  C47  1  0.15353792  0.55656125  0.90352040  1  -0.025931  -4.7e-05  3.677314  0.0  -0.084622  -3.5e-05  3.941464  0.0  -0.081184  -2.4e-05  3.953259  0.0  -0.071706  -0.087082  -2.6e-05  3.933379  0.0
C  C48  1  0.84645515  0.44344461  0.09647270  1  -0.026128  -5.3e-05  3.677665  0.0  -0.08474  -3.1e-05  3.94168  0.0  -0.08131  -2.5e-05  3.953485  0.0  -0.071749  -0.087197  -2.6e-05  3.933578  0.0
C  C49  1  0.60711944  0.09906342  0.26063369  1  0.653449  -0.005728  3.840127  -0.006  0.614865  -0.000628  4.145232  -0.002  0.650793  -0.001516  4.138614  -0.002  0.202356  0.590917  8.1e-05  4.148815  -0.002
C  C50  1  0.39288099  0.90094038  0.73937247  1  0.653613  -0.005739  3.839982  -0.006  0.614956  -0.000634  4.145099  -0.002  0.650886  -0.001517  4.13848  -0.002  0.20239  0.591018  7.9e-05  4.148683  -0.002
C  C51  1  0.33053140  0.29593783  0.54102306  1  0.123336  -0.010381  3.695619  -0.007  0.096884  -0.002491  3.945921  -0.001  0.105934  -0.004219  3.964182  -0.003  0.044695  0.091462  -0.001049  3.933471  0.0
C  C52  1  0.66944177  0.70405500  0.45898720  1  0.123153  -0.010385  3.694723  -0.007  0.096643  -0.002495  3.945123  -0.001  0.1057  -0.004224  3.963366  -0.003  0.044564  0.091213  -0.001051  3.932693  0.0
C  C53  1  0.97311026  0.38839374  0.67175864  1  0.129726  -0.011265  3.704271  -0.007  0.145552  -0.004187  3.936036  -0.002  0.151889  -0.004907  3.956907  -0.003  0.010012  0.141002  -0.003418  3.922597  -0.002
C  C54  1  0.02691861  0.61160869  0.32823465  1  0.129732  -0.011256  3.704196  -0.007  0.145454  -0.004186  3.936106  -0.002  0.151792  -0.004908  3.956973  -0.003  0.009995  0.140904  -0.003419  3.922658  -0.002
N  N55  1  0.26069150  0.16039488  0.55389938  1  -0.295142  0.074389  3.344179  0.094  -0.241248  0.054523  3.630153  0.073  -0.26987  0.045932  3.650884  0.066  -0.351527  -0.22381  0.059697  3.617596  0.076
N  N56  1  0.73931901  0.83960297  0.44609512  1  -0.294954  0.074385  3.343703  0.094  -0.241025  0.054519  3.629691  0.073  -0.269645  0.045929  3.650424  0.066  -0.351362  -0.223593  0.059691  3.617144  0.076
N  N57  1  0.89228285  0.52230239  0.88318792  1  -0.210369  -0.000721  3.22731  -0.001  -0.127876  -0.000374  3.479741  0.0  -0.14499  -0.000472  3.501435  0.0  -0.333736  -0.11581  -0.000397  3.464157  0.0
N  N58  1  0.10771777  0.47770256  0.11680502  1  -0.210171  -0.000725  3.227095  -0.001  -0.127683  -0.000377  3.479437  0.0  -0.144796  -0.00047  3.501133  0.0  -0.33356  -0.115617  -0.000398  3.463843  0.0
O  O59  1  0.74845726  0.18872372  0.31391753  1  -0.63024  0.000354  1.87426  0.002  -0.597663  -0.000464  2.102174  0.001  -0.620904  -0.001455  2.092762  0.0  -0.338729  -0.581119  0.000572  2.107455  0.002
O  O60  1  0.25153897  0.81128624  0.68608694  1  -0.630219  0.000359  1.874213  0.002  -0.597632  -0.000465  2.102129  0.001  -0.620877  -0.001457  2.092715  0.0  -0.338643  -0.581092  0.000572  2.107415  0.002
O  O61  1  0.45437500  0.01760265  0.31996308  1  -0.620128  0.100416  2.095098  0.135  -0.590233  0.064207  2.385713  0.094  -0.635172  0.050074  2.380544  0.08  -0.338089  -0.561228  0.073082  2.389329  0.102
O  O62  1  0.54563876  0.98239738  0.68004559  1  -0.620247  0.100407  2.095007  0.135  -0.590348  0.064204  2.385734  0.094  -0.635257  0.050071  2.380499  0.08  -0.33812  -0.561351  0.073071  2.389363  0.102
