# generated using pymatgen
data_TbCoH18C16(N4O3)2
_symmetry_space_group_name_H-M   'P 1'
_cell_length_a   9.08875506
_cell_length_b   9.08374809
_cell_length_c   16.03486047
_cell_angle_alpha   99.05493244
_cell_angle_beta   97.69222906
_cell_angle_gamma   119.20051776
_symmetry_Int_Tables_number   1
_chemical_formula_structural   TbCoH18C16(N4O3)2
_chemical_formula_sum   'Tb2 Co2 H36 C32 N16 O12'
_cell_volume   1106.60891779
_cell_formula_units_Z   2
loop_
 _symmetry_equiv_pos_site_id
 _symmetry_equiv_pos_as_xyz
  1  'x, y, z'
loop_
 _atom_site_type_symbol
 _atom_site_label
 _atom_site_symmetry_multiplicity
 _atom_site_fract_x
 _atom_site_fract_y
 _atom_site_fract_z
 _atom_site_occupancy
 _atom_site_hle17_bader_spin_density
 _atom_site_hle17_ddec_charge
 _atom_site_hle17_ddec_spin_density
 _atom_site_hle17_ddec_sum_bond_order
 _atom_site_hle17_magmom
 _atom_site_hse06_10hf_bader_spin_density
 _atom_site_hse06_10hf_ddec_charge
 _atom_site_hse06_10hf_ddec_spin_density
 _atom_site_hse06_10hf_ddec_sum_bond_order
 _atom_site_hse06_10hf_magmom
 _atom_site_hse06_bader_spin_density
 _atom_site_hse06_ddec_charge
 _atom_site_hse06_ddec_spin_density
 _atom_site_hse06_ddec_sum_bond_order
 _atom_site_hse06_magmom
 _atom_site_pbe_bader_spin_density
 _atom_site_pbe_cm5_charge
 _atom_site_pbe_ddec_charge
 _atom_site_pbe_ddec_spin_density
 _atom_site_pbe_ddec_sum_bond_order
 _atom_site_pbe_magmom
Tb  Tb0  1  0.90248811  0.15271621  0.25003451  1  0  2.29074  0  1.633219  0  0  2.1416  0  2.107118  0  0  2.252458  0  1.935736  0  0  1.517647  2.111062  0  2.1356  0
Tb  Tb1  1  0.09751324  0.84728581  0.74996662  1  0  2.290724  0  1.633259  0  0  2.141548  0  2.107217  0  0  2.25244  0  1.935777  0  0  1.517638  2.111009  0  2.135705  0
Co  Co2  1  0.49999780  0.49999125  0.50000171  1  0  0.032792  0  4.53623  0  0  0.15789  0  4.853447  0  0  0.151429  0  4.848572  0  0  0.502032  0.172836  0  4.848988  0
Co  Co3  1  0.00000029  0.50000366  0.99999924  1  0  0.032861  0  4.533883  0  0  0.157407  0  4.852143  0  0  0.150969  0  4.847308  0  0  0.501935  0.172873  0  4.846591  0
H  H4  1  0.37351015  0.26901961  0.99879194  1  0  0.121869  0  0.951633  0  0  0.131105  0  1.006767  0  0  0.134536  0  1.005085  0  0  0.11499  0.128662  0  1.00798  0
H  H5  1  0.27144165  0.87626672  0.50118857  1  0  0.122561  0  0.951392  0  0  0.132111  0  1.006237  0  0  0.135499  0  1.004616  0  0  0.115588  0.129714  0  1.007364  0
H  H6  1  0.62649374  0.73099151  0.00120765  1  0  0.12196  0  0.951616  0  0  0.131189  0  1.006749  0  0  0.134619  0  1.005072  0  0  0.115056  0.128776  0  1.007926  0
H  H7  1  0.72856266  0.12374307  0.49880970  1  0  0.12252  0  0.951371  0  0  0.132062  0  1.00624  0  0  0.135455  0  1.004619  0  0  0.115531  0.129668  0  1.007368  0
H  H8  1  0.40119532  0.18538583  0.29459139  1  0  0.097734  0  0.996564  0  0  0.10576  0  1.062499  0  0  0.10807  0  1.061521  0  0  0.123048  0.104134  0  1.063013  0
H  H9  1  0.89094128  0.60709659  0.20541931  1  0  0.098909  0  0.997121  0  0  0.107341  0  1.062458  0  0  0.10969  0  1.061409  0  0  0.123516  0.105698  0  1.062975  0
H  H10  1  0.59880688  0.81461353  0.70540770  1  0  0.097704  0  0.996554  0  0  0.105719  0  1.062521  0  0  0.108029  0  1.061543  0  0  0.123041  0.104094  0  1.063034  0
H  H11  1  0.10906440  0.39289879  0.79457785  1  0  0.098943  0  0.997102  0  0  0.107358  0  1.062434  0  0  0.109702  0  1.061391  0  0  0.123544  0.105712  0  1.062959  0
H  H12  1  0.09812828  0.12795032  0.04626958  1  0  0.11851  0  0.935467  0  0  0.129337  0  0.994746  0  0  0.132178  0  0.993035  0  0  0.116859  0.127279  0  0.995948  0
H  H13  1  0.08231537  0.55312484  0.45381300  1  0  0.119216  0  0.934104  0  0  0.129891  0  0.993533  0  0  0.132821  0  0.991773  0  0  0.117194  0.127765  0  0.994806  0
H  H14  1  0.90187629  0.87206212  0.95373143  1  0  0.118453  0  0.935567  0  0  0.129322  0  0.994819  0  0  0.132158  0  0.993122  0  0  0.116909  0.127269  0  0.996011  0
H  H15  1  0.91769008  0.44688503  0.54619035  1  0  0.119292  0  0.934045  0  0  0.129922  0  0.993519  0  0  0.132852  0  0.991758  0  0  0.117186  0.127796  0  0.994793  0
H  H16  1  0.65566244  0.36047663  0.10305281  1  0  0.08972  0  0.973576  0  0  0.096583  0  1.041823  0  0  0.098383  0  1.041005  0  0  0.12309  0.095226  0  1.042486  0
H  H17  1  0.25831832  0.05396680  0.39691819  1  0  0.090111  0  0.973924  0  0  0.097038  0  1.041819  0  0  0.098788  0  1.041058  0  0  0.123171  0.095717  0  1.042439  0
H  H18  1  0.34434087  0.63952274  0.89694700  1  0  0.089687  0  0.973526  0  0  0.096573  0  1.041756  0  0  0.098373  0  1.040939  0  0  0.123085  0.095217  0  1.042419  0
H  H19  1  0.74168121  0.94603382  0.60307769  1  0  0.090097  0  0.973929  0  0  0.097025  0  1.041827  0  0  0.098773  0  1.041072  0  0  0.123165  0.095702  0  1.042447  0
H  H20  1  0.69412654  0.76303061  0.25016068  1  0  0.439688  0  0.81427  0  0  0.419847  0  0.870601  0  0  0.428364  0  0.858458  0  0  0.3258  0.414083  0  0.877813  0
H  H21  1  0.51300909  0.94386685  0.24989945  1  0  0.440264  0  0.812488  0  0  0.42029  0  0.869756  0  0  0.428812  0  0.857639  0  0  0.325806  0.414525  0  0.876382  0
H  H22  1  0.30587396  0.23697404  0.74984123  1  0  0.439648  0  0.814339  0  0  0.419814  0  0.870644  0  0  0.428329  0  0.858504  0  0  0.3258  0.414051  0  0.877866  0
H  H23  1  0.48699107  0.05612861  0.75009979  1  0  0.440301  0  0.812446  0  0  0.420325  0  0.869715  0  0  0.428847  0  0.857593  0  0  0.32582  0.41456  0  0.876342  0
H  H24  1  0.76231726  0.76838850  0.16204351  1  0  0.431332  0  0.874278  0  0  0.39195  0  0.95209  0  0  0.403541  0  0.935197  0  0  0.294603  0.383905  0  0.963914  0
H  H25  1  0.60676558  0.10077424  0.33796723  1  0  0.431636  0  0.873924  0  0  0.392412  0  0.951298  0  0  0.403966  0  0.934469  0  0  0.295006  0.384379  0  0.963099  0
H  H26  1  0.23768393  0.23161746  0.83795856  1  0  0.431379  0  0.874208  0  0  0.391978  0  0.952035  0  0  0.403569  0  0.935143  0  0  0.294612  0.383933  0  0.963858  0
H  H27  1  0.39323058  0.89921994  0.66203222  1  0  0.431625  0  0.873922  0  0  0.392394  0  0.95131  0  0  0.403948  0  0.93448  0  0  0.295008  0.38436  0  0.963113  0
H  H28  1  0.72223925  0.11059204  0.06557354  1  0  0.434552  0  0.838587  0  0  0.409105  0  0.902985  0  0  0.41643  0  0.892906  0  0  0.314127  0.404101  0  0.910027  0
H  H29  1  0.04543467  0.15703861  0.43451836  1  0  0.435869  0  0.836673  0  0  0.410001  0  0.901986  0  0  0.417347  0  0.89187  0  0  0.314647  0.404986  0  0.90904  0
H  H30  1  0.27776677  0.88941253  0.93442567  1  0  0.434582  0  0.83855  0  0  0.409134  0  0.902951  0  0  0.416458  0  0.892872  0  0  0.314137  0.404128  0  0.909994  0
H  H31  1  0.95455162  0.84294517  0.56548070  1  0  0.435819  0  0.83673  0  0  0.409932  0  0.902086  0  0  0.417279  0  0.89197  0  0  0.314578  0.404916  0  0.90914  0
H  H32  1  0.57066719  0.96809410  0.09948259  1  0  0.43619  0  0.870055  0  0  0.398341  0  0.945011  0  0  0.409782  0  0.928534  0  0  0.291993  0.390445  0  0.95644  0
H  H33  1  0.86878258  0.97169201  0.40060433  1  0  0.436397  0  0.869704  0  0  0.398198  0  0.945201  0  0  0.409637  0  0.928718  0  0  0.292433  0.3903  0  0.956642  0
H  H34  1  0.42933729  0.03191178  0.90051661  1  0  0.436159  0  0.870105  0  0  0.39831  0  0.945051  0  0  0.409748  0  0.92858  0  0  0.29197  0.390415  0  0.956479  0
H  H35  1  0.13120702  0.02829173  0.59939311  1  0  0.436419  0  0.869689  0  0  0.398234  0  0.945177  0  0  0.409674  0  0.928693  0  0  0.292409  0.390336  0  0.956618  0
H  H36  1  0.07026855  0.91016144  0.25856267  1  0  0.294783  0  0.922715  0  0  0.2718  0  0.989465  0  0  0.281096  0  0.983063  0  0  0.311744  0.265079  0  0.994721  0
H  H37  1  0.65077446  0.31143646  0.24143565  1  0  0.295609  0  0.921829  0  0  0.272612  0  0.988675  0  0  0.281868  0  0.982301  0  0  0.312458  0.265915  0  0.993921  0
H  H38  1  0.92973271  0.08983397  0.74143477  1  0  0.294759  0  0.922601  0  0  0.271764  0  0.989362  0  0  0.281062  0  0.982951  0  0  0.311691  0.265043  0  0.994624  0
H  H39  1  0.34922748  0.68856030  0.75856383  1  0  0.295563  0  0.921905  0  0  0.27257  0  0.988723  0  0  0.281825  0  0.982355  0  0  0.312452  0.265874  0  0.993969  0
C  C40  1  0.31871023  0.42298249  0.40258853  1  0  0.139535  0  3.509548  0  0  0.097318  0  3.81562  0  0  0.107841  0  3.828868  0  0  0.052082  0.088493  0  3.808536  0
C  C41  1  0.01991127  0.41590212  0.09731705  1  0  0.138063  0  3.508033  0  0  0.095805  0  3.814126  0  0  0.106314  0  3.827353  0  0  0.050883  0.086886  0  3.80701  0
C  C42  1  0.68128658  0.57700661  0.59741802  1  0  0.139441  0  3.509646  0  0  0.097228  0  3.815711  0  0  0.107752  0  3.828959  0  0  0.052042  0.088402  0  3.808631  0
C  C43  1  0.98008411  0.58410118  0.90268123  1  0  0.138133  0  3.507947  0  0  0.095878  0  3.814046  0  0  0.106389  0  3.827275  0  0  0.050907  0.086961  0  3.806931  0
C  C44  1  0.55891048  0.34277251  0.44935222  1  0  0.100627  0  3.500174  0  0  0.054162  0  3.811269  0  0  0.062585  0  3.821367  0  0  0.040854  0.046209  0  3.803727  0
C  C45  1  0.89301155  0.60915488  0.05055675  1  0  0.101103  0  3.498956  0  0  0.054739  0  3.810033  0  0  0.063121  0  3.82022  0  0  0.040953  0.046728  0  3.802372  0
C  C46  1  0.44108613  0.65722045  0.55065152  1  0  0.100628  0  3.500405  0  0  0.054169  0  3.811491  0  0  0.062586  0  3.82159  0  0  0.040903  0.046219  0  3.803948  0
C  C47  1  0.10698656  0.39085367  0.94944343  1  0  0.101075  0  3.499114  0  0  0.054709  0  3.810195  0  0  0.063092  0  3.820384  0  0  0.040884  0.046698  0  3.802529  0
C  C48  1  0.53111536  0.29863507  0.11966254  1  0  0.092646  0  3.656134  0  0  0.04728  0  3.91793  0  0  0.054735  0  3.93243  0  0  0.041464  0.042532  0  3.907881  0
C  C49  1  0.17984331  0.91266726  0.38030943  1  0  0.091518  0  3.656797  0  0  0.045895  0  3.918654  0  0  0.053387  0  3.93313  0  0  0.040861  0.041134  0  3.90861  0
C  C50  1  0.46888888  0.70136820  0.88033705  1  0  0.092654  0  3.656149  0  0  0.047239  0  3.917952  0  0  0.054693  0  3.93245  0  0  0.041481  0.04249  0  3.907913  0
C  C51  1  0.82015939  0.08733730  0.61968827  1  0  0.091553  0  3.656894  0  0  0.045929  0  3.918735  0  0  0.05342  0  3.933213  0  0  0.040856  0.041172  0  3.908688  0
C  C52  1  0.37472713  0.24644455  0.06338456  1  0  -0.083731  0  3.742079  0  0  -0.09505  0  3.996681  0  0  -0.099531  0  4.016138  0  0  -0.075971  -0.092131  0  3.983235  0
C  C53  1  0.18402971  0.81266600  0.43660856  1  0  -0.084098  0  3.741403  0  0  -0.095943  0  3.99659  0  0  -0.100401  0  4.016048  0  0  -0.076607  -0.093043  0  3.983115  0
C  C54  1  0.62527559  0.75356008  0.93661690  1  0  -0.083736  0  3.741994  0  0  -0.095015  0  3.996636  0  0  -0.099494  0  4.016091  0  0  -0.075993  -0.09212  0  3.983181  0
C  C55  1  0.81597215  0.18734122  0.56339179  1  0  -0.084047  0  3.741528  0  0  -0.095886  0  3.996691  0  0  -0.100353  0  4.01616  0  0  -0.076536  -0.092991  0  3.983218  0
C  C56  1  0.22069279  0.16696001  0.08988443  1  0  -0.100721  0  3.620735  0  0  -0.130723  0  3.873509  0  0  -0.130696  0  3.890357  0  0  -0.064037  -0.130296  0  3.861886  0
C  C57  1  0.07769957  0.63195744  0.41016031  1  0  -0.101898  0  3.617428  0  0  -0.131623  0  3.870948  0  0  -0.131693  0  3.887734  0  0  -0.064519  -0.131143  0  3.859372  0
C  C58  1  0.77931306  0.83304847  0.91011447  1  0  -0.100759  0  3.620927  0  0  -0.130896  0  3.873756  0  0  -0.130873  0  3.89061  0  0  -0.064174  -0.130468  0  3.862141  0
C  C59  1  0.92230340  0.36804981  0.58984138  1  0  -0.101996  0  3.61736  0  0  -0.131702  0  3.870913  0  0  -0.131768  0  3.887695  0  0  -0.064537  -0.131224  0  3.859338  0
C  C60  1  0.22124349  0.13823365  0.17413014  1  0  0.343988  0  3.907794  0  0  0.338193  0  4.168801  0  0  0.347815  0  4.189312  0  0  0.097524  0.330918  0  4.157489  0
C  C61  1  0.96440767  0.54792447  0.32592841  1  0  0.346052  0  3.90301  0  0  0.339911  0  4.164877  0  0  0.349543  0  4.185347  0  0  0.097697  0.332624  0  4.153608  0
C  C62  1  0.77875880  0.86177227  0.82587076  1  0  0.344001  0  3.907975  0  0  0.338355  0  4.168802  0  0  0.347977  0  4.189311  0  0  0.097555  0.33108  0  4.15749  0
C  C63  1  0.03559947  0.45208012  0.67407276  1  0  0.34614  0  3.902984  0  0  0.339977  0  4.164846  0  0  0.349611  0  4.185314  0  0  0.097726  0.332694  0  4.153569  0
C  C64  1  0.38471491  0.19646648  0.22813351  1  0  0.000658  0  3.565744  0  0  -0.047356  0  3.820105  0  0  -0.044097  0  3.835073  0  0  0.041093  -0.049144  0  3.80954  0
C  C65  1  0.96864209  0.65727629  0.27189492  1  0  -0.001294  0  3.567288  0  0  -0.049766  0  3.821521  0  0  -0.046512  0  3.836516  0  0  0.040177  -0.051527  0  3.810939  0
C  C66  1  0.61528797  0.80353418  0.77186575  1  0  0.000725  0  3.565741  0  0  -0.047344  0  3.82005  0  0  -0.044085  0  3.835019  0  0  0.041106  -0.049133  0  3.809485  0
C  C67  1  0.03135815  0.34272571  0.72810487  1  0  -0.001373  0  3.567321  0  0  -0.049764  0  3.821454  0  0  -0.046505  0  3.836447  0  0  0.040157  -0.051523  0  3.810868  0
C  C68  1  0.65324573  0.66896251  0.45116519  1  0  0.100045  0  3.527866  0  0  0.056105  0  3.834499  0  0  0.06463  0  3.845531  0  0  0.037444  0.048093  0  3.826245  0
C  C69  1  0.21775285  0.70241948  0.04910790  1  0  0.102251  0  3.531495  0  0  0.058406  0  3.838088  0  0  0.066938  0  3.849172  0  0  0.038885  0.050309  0  3.829728  0
C  C70  1  0.34673466  0.33100573  0.54883835  1  0  0.10009  0  3.528518  0  0  0.056157  0  3.835148  0  0  0.064674  0  3.846186  0  0  0.037523  0.04815  0  3.826892  0
C  C71  1  0.78225820  0.29759687  0.95089455  1  0  0.102295  0  3.530919  0  0  0.058444  0  3.837527  0  0  0.066986  0  3.848608  0  0  0.038889  0.050341  0  3.829169  0
N  N72  1  0.59056088  0.24052422  0.41617728  1  0  -0.436033  0  2.859203  0  0  -0.382053  0  3.121458  0  0  -0.395337  0  3.130259  0  0  -0.34392  -0.371949  0  3.115341  0
N  N73  1  0.82368372  0.67359174  0.08374937  1  0  -0.43671  0  2.859593  0  0  -0.382611  0  3.121928  0  0  -0.395926  0  3.13075  0  0  -0.34399  -0.372496  0  3.115825  0
N  N74  1  0.40943962  0.75946336  0.58382007  1  0  -0.435934  0  2.859533  0  0  -0.381953  0  3.121787  0  0  -0.395236  0  3.130587  0  0  -0.343913  -0.371848  0  3.115668  0
N  N75  1  0.17631865  0.32642072  0.91625146  1  0  -0.436711  0  2.859715  0  0  -0.382599  0  3.122021  0  0  -0.395914  0  3.130843  0  0  -0.343925  -0.37248  0  3.115911  0
N  N76  1  0.19768654  0.36928582  0.34453765  1  0  -0.543691  0  2.948081  0  0  -0.493347  0  3.238423  0  0  -0.516646  0  3.246709  0  0  -0.43625  -0.483164  0  3.231204  0
N  N77  1  0.02404311  0.35290843  0.15535063  1  0  -0.542263  0  2.947077  0  0  -0.491854  0  3.237342  0  0  -0.515122  0  3.245617  0  0  -0.434856  -0.48169  0  3.2302  0
N  N78  1  0.80231239  0.63071370  0.65546870  1  0  -0.543561  0  2.948209  0  0  -0.493205  0  3.238533  0  0  -0.516513  0  3.246823  0  0  -0.436189  -0.483021  0  3.231313  0
N  N79  1  0.97595244  0.64709094  0.84464671  1  0  -0.542287  0  2.946994  0  0  -0.491878  0  3.237279  0  0  -0.515151  0  3.245551  0  0  -0.434863  -0.481716  0  3.230139  0
N  N80  1  0.53083608  0.27295508  0.20003047  1  0  -0.190559  0  3.540836  0  0  -0.115451  0  3.764178  0  0  -0.128594  0  3.781383  0  0  -0.345123  -0.106769  0  3.752598  0
N  N81  1  0.07340229  0.83167931  0.29997296  1  0  -0.189963  0  3.541199  0  0  -0.11422  0  3.763444  0  0  -0.127411  0  3.780697  0  0  -0.344009  -0.10551  0  3.75184  0
N  N82  1  0.46916459  0.72704562  0.79996987  1  0  -0.190526  0  3.540858  0  0  -0.115379  0  3.764199  0  0  -0.128519  0  3.781406  0  0  -0.345115  -0.106697  0  3.752619  0
N  N83  1  0.92659989  0.16832000  0.70002364  1  0  -0.189985  0  3.54092  0  0  -0.114247  0  3.763152  0  0  -0.127436  0  3.780405  0  0  -0.34399  -0.105545  0  3.751542  0
N  N84  1  0.75114322  0.77740598  0.42220135  1  0  -0.45877  0  2.842071  0  0  -0.402363  0  3.098991  0  0  -0.416488  0  3.108961  0  0  -0.354701  -0.391649  0  3.092042  0
N  N85  1  0.35510470  0.82943718  0.07817380  1  0  -0.460616  0  2.847589  0  0  -0.404403  0  3.104638  0  0  -0.418562  0  3.114657  0  0  -0.356198  -0.393671  0  3.097678  0
N  N86  1  0.24885242  0.22258295  0.57779636  1  0  -0.458749  0  2.842865  0  0  -0.40236  0  3.099827  0  0  -0.416485  0  3.109799  0  0  -0.354766  -0.391647  0  3.092876  0
N  N87  1  0.64488167  0.17055314  0.92182519  1  0  -0.460697  0  2.846847  0  0  -0.404487  0  3.103891  0  0  -0.418645  0  3.113911  0  0  -0.356217  -0.393754  0  3.096932  0
O  O88  1  0.73785299  0.83349254  0.20950477  1  0  -0.893619  0  1.869857  0  0  -0.84102  0  2.069907  0  0  -0.866827  0  2.034282  0  0  -0.630533  -0.828403  0  2.089951  0
O  O89  1  0.62422121  0.02861806  0.29050858  1  0  -0.894724  0  1.868081  0  0  -0.842188  0  2.069375  0  0  -0.867971  0  2.03377  0  0  -0.631231  -0.82959  0  2.088883  0
O  O90  1  0.26214752  0.16651210  0.79049651  1  0  -0.893605  0  1.869837  0  0  -0.84098  0  2.069927  0  0  -0.866796  0  2.034309  0  0  -0.630523  -0.828362  0  2.089983  0
O  O91  1  0.37577809  0.97138002  0.70949081  1  0  -0.894785  0  1.868038  0  0  -0.842247  0  2.069333  0  0  -0.868032  0  2.033719  0  0  -0.631269  -0.829653  0  2.088848  0
O  O92  1  0.69952037  0.05455044  0.11325640  1  0  -0.931684  0  1.902951  0  0  -0.882367  0  2.11488  0  0  -0.910167  0  2.080674  0  0  -0.64398  -0.869518  0  2.135033  0
O  O93  1  0.94168023  0.08662189  0.38676898  1  0  -0.933133  0  1.899511  0  0  -0.883143  0  2.111953  0  0  -0.910953  0  2.077728  0  0  -0.644881  -0.870282  0  2.132128  0
O  O94  1  0.30048370  0.94545676  0.88674350  1  0  -0.93164  0  1.902874  0  0  -0.882329  0  2.114848  0  0  -0.910132  0  2.080644  0  0  -0.643961  -0.869475  0  2.134999  0
O  O95  1  0.05831048  0.91336184  0.61322854  1  0  -0.933153  0  1.899527  0  0  -0.883162  0  2.111988  0  0  -0.910977  0  2.077758  0  0  -0.644794  -0.870299  0  2.132164  0
O  O96  1  0.07917642  0.06207080  0.20242139  1  0  -0.764571  0  2.136519  0  0  -0.706617  0  2.391693  0  0  -0.743174  0  2.387097  0  0  -0.442068  -0.68787  0  2.393369  0
O  O97  1  0.85977667  0.37740256  0.29761893  1  0  -0.766983  0  2.134113  0  0  -0.708738  0  2.389205  0  0  -0.745313  0  2.384579  0  0  -0.44279  -0.689974  0  2.390872  0
O  O98  1  0.92082808  0.93793510  0.79757906  1  0  -0.764602  0  2.136542  0  0  -0.706679  0  2.391666  0  0  -0.743237  0  2.387055  0  0  -0.442059  -0.68793  0  2.393341  0
O  O99  1  0.14022648  0.62260080  0.70238432  1  0  -0.766996  0  2.134171  0  0  -0.708743  0  2.389251  0  0  -0.745322  0  2.384622  0  0  -0.442778  -0.689973  0  2.3909  0
