# generated using pymatgen
data_UH8C12(NO3)2
_symmetry_space_group_name_H-M   'P 1'
_cell_length_a   7.68260706
_cell_length_b   7.68262234
_cell_length_c   11.87608807
_cell_angle_alpha   93.74434614
_cell_angle_beta   93.74366116
_cell_angle_gamma   113.03569003
_symmetry_Int_Tables_number   1
_chemical_formula_structural   UH8C12(NO3)2
_chemical_formula_sum   'U2 H16 C24 N4 O12'
_cell_volume   640.52917662
_cell_formula_units_Z   2
loop_
 _symmetry_equiv_pos_site_id
 _symmetry_equiv_pos_as_xyz
  1  'x, y, z'
loop_
 _atom_site_type_symbol
 _atom_site_label
 _atom_site_symmetry_multiplicity
 _atom_site_fract_x
 _atom_site_fract_y
 _atom_site_fract_z
 _atom_site_occupancy
 _atom_site_hle17_bader_spin_density
 _atom_site_hle17_ddec_charge
 _atom_site_hle17_ddec_spin_density
 _atom_site_hle17_ddec_sum_bond_order
 _atom_site_hle17_magmom
 _atom_site_hse06_10hf_bader_spin_density
 _atom_site_hse06_10hf_ddec_charge
 _atom_site_hse06_10hf_ddec_spin_density
 _atom_site_hse06_10hf_ddec_sum_bond_order
 _atom_site_hse06_10hf_magmom
 _atom_site_hse06_bader_spin_density
 _atom_site_hse06_ddec_charge
 _atom_site_hse06_ddec_spin_density
 _atom_site_hse06_ddec_sum_bond_order
 _atom_site_hse06_magmom
 _atom_site_pbe_bader_spin_density
 _atom_site_pbe_cm5_charge
 _atom_site_pbe_ddec_charge
 _atom_site_pbe_ddec_spin_density
 _atom_site_pbe_ddec_sum_bond_order
 _atom_site_pbe_magmom
U  U0  1  0.63730574  0.80391189  0.78943678  1  0  2.376761  0  4.22191  0  0  2.412412  0  4.903579  0  0  2.522743  0  4.867279  0  0  2.182631  2.334442  0  4.929786  0
U  U1  1  0.80391315  0.63731106  0.28944347  1  0  2.376449  0  4.22226  0  0  2.41245  0  4.903762  0  0  2.522681  0  4.867621  0  0  2.182679  2.334425  0  4.930049  0
H  H2  1  0.33570810  0.35548572  0.86098036  1  0  0.075145  0  0.972062  0  0  0.081134  0  1.041016  0  0  0.083485  0  1.03914  0  0  0.119181  0.079318  0  1.04252  0
H  H3  1  0.35549175  0.33570638  0.36098164  1  0  0.075143  0  0.972038  0  0  0.081148  0  1.040961  0  0  0.083501  0  1.039082  0  0  0.119178  0.079337  0  1.042469  0
H  H4  1  0.15621054  0.01678190  0.77992210  1  0  0.120183  0  0.956154  0  0  0.132646  0  1.011022  0  0  0.136015  0  1.008888  0  0  0.119426  0.130216  0  1.012813  0
H  H5  1  0.01678600  0.15622305  0.27991275  1  0  0.120167  0  0.956125  0  0  0.132586  0  1.011053  0  0  0.135959  0  1.008909  0  0  0.11939  0.130147  0  1.012853  0
H  H6  1  0.21895402  0.91669403  0.58633952  1  0  0.113232  0  0.93999  0  0  0.12465  0  0.994279  0  0  0.128011  0  0.991459  0  0  0.121365  0.122107  0  0.996497  0
H  H7  1  0.91670545  0.21898659  0.08633473  1  0  0.113294  0  0.939993  0  0  0.124645  0  0.99435  0  0  0.128006  0  0.991532  0  0  0.121411  0.122104  0  0.996568  0
H  H8  1  0.45058128  0.16297526  0.48000934  1  0  0.116331  0  0.948283  0  0  0.125574  0  1.00922  0  0  0.128619  0  1.008312  0  0  0.116613  0.123318  0  1.010102  0
H  H9  1  0.16299273  0.45061415  0.98001312  1  0  0.116294  0  0.948379  0  0  0.125626  0  1.009239  0  0  0.128671  0  1.008329  0  0  0.116627  0.123374  0  1.010121  0
H  H10  1  0.80261505  0.99157708  0.53190009  1  0  0.104077  0  0.960459  0  0  0.11075  0  1.023359  0  0  0.11474  0  1.018451  0  0  0.12804  0.10779  0  1.027008  0
H  H11  1  0.99159637  0.80264649  0.03190603  1  0  0.103986  0  0.960555  0  0  0.110708  0  1.023397  0  0  0.114695  0  1.018493  0  0  0.128048  0.107786  0  1.027004  0
H  H12  1  0.99983371  0.30015783  0.46006594  1  0  0.1072  0  0.945358  0  0  0.118332  0  1.003177  0  0  0.121269  0  1.002529  0  0  0.11548  0.116276  0  1.003761  0
H  H13  1  0.30018525  0.99986534  0.96008014  1  0  0.107125  0  0.94558  0  0  0.1184  0  1.003237  0  0  0.121338  0  1.00259  0  0  0.115512  0.116343  0  1.003824  0
H  H14  1  0.11619759  0.59832558  0.59129875  1  0  0.114685  0  0.944825  0  0  0.125014  0  1.002802  0  0  0.129305  0  0.998281  0  0  0.116947  0.12189  0  1.006085  0
H  H15  1  0.59834901  0.11622564  0.09131703  1  0  0.114663  0  0.944682  0  0  0.124965  0  1.002711  0  0  0.129257  0  0.998186  0  0  0.116925  0.121846  0  1.005985  0
H  H16  1  0.00163871  0.58067028  0.78786413  1  0  0.130881  0  0.939652  0  0  0.142234  0  0.99543  0  0  0.146114  0  0.993023  0  0  0.121613  0.139514  0  0.997275  0
H  H17  1  0.58067959  0.00165079  0.28787823  1  0  0.130839  0  0.939934  0  0  0.142173  0  0.995734  0  0  0.146055  0  0.993324  0  0  0.121594  0.139452  0  0.997577  0
C  C18  1  0.63226669  0.54454196  0.55262856  1  0  0.67485  0  3.857178  0  0  0.640099  0  4.146116  0  0  0.680315  0  4.130856  0  0  0.255766  0.612344  0  4.155655  0
C  C19  1  0.54456489  0.63227037  0.05263289  1  0  0.674852  0  3.857188  0  0  0.639932  0  4.146337  0  0  0.680148  0  4.13108  0  0  0.255625  0.612175  0  4.155883  0
C  C20  1  0.50309214  0.38647145  0.61300121  1  0  0.082602  0  3.771079  0  0  0.089746  0  4.012082  0  0  0.089702  0  4.032721  0  0  0.116841  0.089605  0  3.998353  0
C  C21  1  0.38648443  0.50309809  0.11300282  1  0  0.08264  0  3.770593  0  0  0.089889  0  4.011612  0  0  0.089844  0  4.032247  0  0  0.116915  0.08975  0  3.997882  0
C  C22  1  0.35385072  0.30690056  0.77619254  1  0  0.141606  0  3.697362  0  0  0.114671  0  3.962485  0  0  0.122328  0  3.980164  0  0  0.060392  0.109577  0  3.950428  0
C  C23  1  0.30690413  0.35385301  0.27619079  1  0  0.141522  0  3.697539  0  0  0.114603  0  3.962634  0  0  0.122256  0  3.980318  0  0  0.060364  0.109502  0  3.95056  0
C  C24  1  0.25614177  0.11856490  0.73094127  1  0  -0.088638  0  3.664231  0  0  -0.10425  0  3.910856  0  0  -0.10947  0  3.929069  0  0  -0.06089  -0.100745  0  3.898494  0
C  C25  1  0.11857331  0.25615613  0.23093554  1  0  -0.088517  0  3.664211  0  0  -0.104091  0  3.910752  0  0  -0.109311  0  3.928969  0  0  -0.060831  -0.100578  0  3.898394  0
C  C26  1  0.28899335  0.06346235  0.62304989  1  0  0.0321  0  3.650674  0  0  0.016166  0  3.895322  0  0  0.020034  0  3.910407  0  0  -0.043536  0.013902  0  3.884967  0
C  C27  1  0.06347309  0.28901766  0.12304672  1  0  0.031933  0  3.650598  0  0  0.016097  0  3.89524  0  0  0.019964  0  3.91032  0  0  -0.043649  0.013829  0  3.88489  0
C  C28  1  0.41578462  0.19978085  0.56315960  1  0  -0.101691  0  3.675983  0  0  -0.123604  0  3.918846  0  0  -0.127559  0  3.93873  0  0  -0.065631  -0.121163  0  3.905764  0
C  C29  1  0.19979370  0.41580899  0.06316153  1  0  -0.101594  0  3.675918  0  0  -0.123662  0  3.918793  0  0  -0.127619  0  3.93868  0  0  -0.065575  -0.121227  0  3.905712  0
C  C30  1  0.85089926  0.12490646  0.58597224  1  0  0.140762  0  3.670145  0  0  0.115084  0  3.930749  0  0  0.12321  0  3.946898  0  0  0.060923  0.109866  0  3.919549  0
C  C31  1  0.12491826  0.85092222  0.08598030  1  0  0.140831  0  3.669936  0  0  0.115097  0  3.930647  0  0  0.123222  0  3.946796  0  0  0.060958  0.109847  0  3.919435  0
C  C32  1  0.96222898  0.29731753  0.54692582  1  0  -0.095295  0  3.681598  0  0  -0.110663  0  3.932198  0  0  -0.116806  0  3.951999  0  0  -0.068515  -0.106696  0  3.91877  0
C  C33  1  0.29733647  0.96225320  0.04693905  1  0  -0.095178  0  3.681646  0  0  -0.110674  0  3.932296  0  0  -0.116814  0  3.952095  0  0  -0.068504  -0.106716  0  3.918898  0
C  C34  1  0.02437561  0.46405153  0.61973109  1  0  0.020476  0  3.65897  0  0  0.001659  0  3.908416  0  0  0.006125  0  3.923249  0  0  -0.052004  -0.001027  0  3.898251  0
C  C35  1  0.46407024  0.02440488  0.11974434  1  0  0.0205  0  3.658814  0  0  0.001671  0  3.908375  0  0  0.00615  0  3.923176  0  0  -0.052072  -0.001017  0  3.898211  0
C  C36  1  0.96449607  0.45470879  0.72841231  1  0  -0.110443  0  3.680564  0  0  -0.134344  0  3.928239  0  0  -0.139931  0  3.947977  0  0  -0.065688  -0.130645  0  3.914914  0
C  C37  1  0.45472383  0.96451667  0.22842208  1  0  -0.110577  0  3.680782  0  0  -0.134473  0  3.928377  0  0  -0.14006  0  3.948123  0  0  -0.065744  -0.130771  0  3.915049  0
C  C38  1  0.85047384  0.27809547  0.76084125  1  0  0.079403  0  3.780303  0  0  0.087844  0  4.027261  0  0  0.08953  0  4.048313  0  0  0.110933  0.086575  0  4.013074  0
C  C39  1  0.27810906  0.85048494  0.26084659  1  0  0.079537  0  3.78012  0  0  0.088135  0  4.026801  0  0  0.089821  0  4.047851  0  0  0.11107  0.086866  0  4.012608  0
C  C40  1  0.77469725  0.25704842  0.87520008  1  0  0.608968  0  3.915663  0  0  0.57065  0  4.222806  0  0  0.605921  0  4.214116  0  0  0.21983  0.546403  0  4.227476  0
C  C41  1  0.25705223  0.77468514  0.37520213  1  0  0.608733  0  3.915507  0  0  0.570421  0  4.222582  0  0  0.605688  0  4.213892  0  0  0.219712  0.546175  0  4.227243  0
N  N42  1  0.47569709  0.43931498  0.71888219  1  0  -0.388497  0  3.265979  0  0  -0.361828  0  3.549662  0  0  -0.38389  0  3.57745  0  0  -0.352405  -0.346403  0  3.530491  0
N  N43  1  0.43931961  0.47569660  0.21888369  1  0  -0.388524  0  3.266004  0  0  -0.361899  0  3.549673  0  0  -0.38395  0  3.57746  0  0  -0.352443  -0.346467  0  3.530504  0
N  N44  1  0.79887298  0.11456518  0.69223326  1  0  -0.39888  0  3.261681  0  0  -0.370105  0  3.545322  0  0  -0.39224  0  3.572503  0  0  -0.361836  -0.354674  0  3.526396  0
N  N45  1  0.11457384  0.79888787  0.19224068  1  0  -0.398863  0  3.26148  0  0  -0.370164  0  3.545093  0  0  -0.392287  0  3.572271  0  0  -0.361884  -0.354726  0  3.52618  0
O  O46  1  0.40643114  0.79173146  0.73696505  1  0  -0.692431  0  1.61183  0  0  -0.701519  0  1.917763  0  0  -0.724936  0  1.907887  0  0  -0.757162  -0.687152  0  1.92523  0
O  O47  1  0.79174413  0.40643221  0.23696107  1  0  -0.692341  0  1.611683  0  0  -0.701513  0  1.917507  0  0  -0.724919  0  1.90766  0  0  -0.757073  -0.687133  0  1.924979  0
O  O48  1  0.87111112  0.81750248  0.83896883  1  0  -0.706955  0  1.59385  0  0  -0.715755  0  1.8971  0  0  -0.737714  0  1.882532  0  0  -0.75906  -0.702296  0  1.90771  0
O  O49  1  0.81751498  0.87111006  0.33897239  1  0  -0.706889  0  1.594216  0  0  -0.715764  0  1.897446  0  0  -0.737702  0  1.882897  0  0  -0.759187  -0.702288  0  1.908052  0
O  O50  1  0.70514117  0.70815570  0.60715500  1  0  -0.620687  0  2.072466  0  0  -0.599818  0  2.337364  0  0  -0.633091  0  2.330708  0  0  -0.333191  -0.575587  0  2.340738  0
O  O51  1  0.70817880  0.70514583  0.10715735  1  0  -0.620686  0  2.072624  0  0  -0.59981  0  2.337603  0  0  -0.633066  0  2.330947  0  0  -0.333148  -0.575576  0  2.340992  0
O  O52  1  0.66065709  0.50487061  0.45159846  1  0  -0.649993  0  2.080146  0  0  -0.628264  0  2.351044  0  0  -0.660662  0  2.341947  0  0  -0.361232  -0.604631  0  2.356256  0
O  O53  1  0.50488588  0.66066140  0.95160546  1  0  -0.649946  0  2.079981  0  0  -0.628141  0  2.351004  0  0  -0.660559  0  2.341912  0  0  -0.361155  -0.604514  0  2.35621  0
O  O54  1  0.69172187  0.07876950  0.89620628  1  0  -0.670254  0  2.06531  0  0  -0.664054  0  2.353589  0  0  -0.703878  0  2.350366  0  0  -0.409499  -0.634875  0  2.354057  0
O  O55  1  0.07877925  0.69172219  0.39621201  1  0  -0.670174  0  2.065409  0  0  -0.664029  0  2.353613  0  0  -0.703831  0  2.350396  0  0  -0.40945  -0.634841  0  2.354079  0
O  O56  1  0.79072810  0.39526683  0.94052416  1  0  -0.515435  0  1.883692  0  0  -0.494448  0  2.104755  0  0  -0.517267  0  2.097958  0  0  -0.275341  -0.477225  0  2.108214  0
O  O57  1  0.39527254  0.79071617  0.44052581  1  0  -0.515283  0  1.883436  0  0  -0.49434  0  2.104491  0  0  -0.517161  0  2.097695  0  0  -0.275281  -0.477127  0  2.107964  0
