# generated using pymatgen
data_AgH8C2BrN2
_symmetry_space_group_name_H-M   'P 1'
_cell_length_a   6.62096695
_cell_length_b   7.62043086
_cell_length_c   11.39197082
_cell_angle_alpha   89.99974724
_cell_angle_beta   97.26688153
_cell_angle_gamma   90.00012405
_symmetry_Int_Tables_number   1
_chemical_formula_structural   AgH8C2BrN2
_chemical_formula_sum   'Ag4 H32 C8 Br4 N8'
_cell_volume   570.16079576
_cell_formula_units_Z   4
loop_
 _symmetry_equiv_pos_site_id
 _symmetry_equiv_pos_as_xyz
  1  'x, y, z'
loop_
 _atom_site_type_symbol
 _atom_site_label
 _atom_site_symmetry_multiplicity
 _atom_site_fract_x
 _atom_site_fract_y
 _atom_site_fract_z
 _atom_site_occupancy
 _atom_site_pbe_bader_charge
 _atom_site_pbe_bader_spin_density
 _atom_site_pbe_cm5_charge
 _atom_site_pbe_ddec_charge
 _atom_site_pbe_ddec_spin_density
 _atom_site_pbe_ddec_sum_bond_order
 _atom_site_pbe_magmom
Ag  Ag0  1  0.62933700  0.46578166  0.61793946  1  0.4351  0  0.334946  0.286609  0  2.061913  0
Ag  Ag1  1  0.62936229  0.03420795  0.11794220  1  0.435035  0  0.334938  0.286587  0  2.061892  0
Ag  Ag2  1  0.37063171  0.53421552  0.38204878  1  0.43528  0  0.335015  0.286673  0  2.062068  0
Ag  Ag3  1  0.37063382  0.96579317  0.88205507  1  0.435172  0  0.33499  0.28669  0  2.06199  0
H  H4  1  0.38372735  0.42572362  0.79893902  1  0.415969  0  0.263544  0.258358  0  0.999733  0
H  H5  1  0.38375089  0.07427136  0.29893772  1  0.416054  0  0.263581  0.258475  0  0.999735  0
H  H6  1  0.61626724  0.57425781  0.20106166  1  0.416228  0  0.263614  0.258438  0  0.999867  0
H  H7  1  0.61625284  0.92574550  0.70105836  1  0.416308  0  0.263637  0.258498  0  0.999738  0
H  H8  1  0.49698559  0.61495615  0.81770826  1  0.415366  0  0.257054  0.245572  0  1.030858  0
H  H9  1  0.49699672  0.88503305  0.31771083  1  0.415228  0  0.25708  0.2456  0  1.031067  0
H  H10  1  0.50300900  0.38504103  0.18228276  1  0.415288  0  0.257008  0.245547  0  1.030919  0
H  H11  1  0.50300549  0.11496544  0.68228075  1  0.415172  0  0.257056  0.245558  0  1.031106  0
H  H12  1  0.15742497  0.54841203  0.62801455  1  0.033883  0  0.091232  0.070442  0  1.01442  0
H  H13  1  0.15744637  0.95159820  0.12801457  1  0.033865  0  0.091213  0.070469  0  1.014315  0
H  H14  1  0.84254983  0.45155759  0.37198291  1  0.034102  0  0.091234  0.070499  0  1.014207  0
H  H15  1  0.84253908  0.04843441  0.87198017  1  0.034139  0  0.091255  0.070515  0  1.014164  0
H  H16  1  0.26810763  0.75412798  0.67176108  1  0.051196  0  0.09314  0.071096  0  0.999663  0
H  H17  1  0.26811650  0.74587417  0.17175434  1  0.051523  0  0.093163  0.071139  0  0.999692  0
H  H18  1  0.73187783  0.24586526  0.32822664  1  0.051118  0  0.093176  0.071069  0  0.999907  0
H  H19  1  0.73187505  0.25413089  0.82822855  1  0.051097  0  0.093198  0.07109  0  1.000005  0
H  H20  1  0.94395216  0.72284091  0.74966188  1  0.067221  0  0.089466  0.070614  0  1.026627  0
H  H21  1  0.94396085  0.77715311  0.24965658  1  0.067295  0  0.089449  0.070591  0  1.026609  0
H  H22  1  0.05602111  0.27715758  0.25033283  1  0.067359  0  0.089448  0.07045  0  1.026879  0
H  H23  1  0.05602156  0.22284932  0.75033881  1  0.06733  0  0.08945  0.070432  0  1.026737  0
H  H24  1  0.01335835  0.51587097  0.81347170  1  0.031623  0  0.084972  0.060227  0  1.017972  0
H  H25  1  0.01336435  0.98413089  0.31346324  1  0.031693  0  0.084936  0.060226  0  1.018032  0
H  H26  1  0.98663624  0.48408947  0.18653951  1  0.031752  0  0.084964  0.060106  0  1.018319  0
H  H27  1  0.98663785  0.01591616  0.68653975  1  0.031572  0  0.084975  0.060099  0  1.018403  0
H  H28  1  0.25329833  0.64975850  0.95233365  1  0.419518  0  0.268708  0.25635  0  0.993068  0
H  H29  1  0.25330661  0.85025534  0.45233022  1  0.419429  0  0.268731  0.256399  0  0.992925  0
H  H30  1  0.74671757  0.35024524  0.04766771  1  0.419461  0  0.268726  0.25645  0  0.993016  0
H  H31  1  0.74671996  0.14975627  0.54766842  1  0.41948  0  0.268724  0.256426  0  0.993032  0
H  H32  1  0.04299687  0.76391016  0.94943196  1  0.424494  0  0.259252  0.257226  0  1.02196  0
H  H33  1  0.04300732  0.73608921  0.44942895  1  0.424646  0  0.259177  0.257126  0  1.021858  0
H  H34  1  0.95700229  0.23610145  0.05056554  1  0.424506  0  0.259203  0.257137  0  1.022074  0
H  H35  1  0.95699793  0.26391322  0.55056636  1  0.424482  0  0.259198  0.257164  0  1.022077  0
C  C36  1  0.22741142  0.62446736  0.70458162  1  0.285114  0  -0.087236  -0.009016  0  3.923416  0
C  C37  1  0.22743021  0.87553484  0.20457695  1  0.285215  0  -0.087308  -0.009221  0  3.923332  0
C  C38  1  0.77258622  0.37551407  0.29541313  1  0.284901  0  -0.08726  -0.009056  0  3.923868  0
C  C39  1  0.77257961  0.12448990  0.79541431  1  0.284933  0  -0.087299  -0.009091  0  3.923891  0
C  C40  1  0.07322234  0.64564587  0.79206306  1  0.245874  0  -0.092061  -0.026584  0  3.949013  0
C  C41  1  0.07323364  0.85435616  0.29205805  1  0.245577  0  -0.091972  -0.026439  0  3.949052  0
C  C42  1  0.92676921  0.35435131  0.20795407  1  0.246173  0  -0.091967  -0.025992  0  3.94952  0
C  C43  1  0.92676400  0.14564889  0.70795250  1  0.246436  0  -0.091932  -0.025929  0  3.949431  0
Br  Br44  1  0.70275871  0.77338474  0.51142722  1  -0.619438  0  -0.265329  -0.487208  0  1.356475  0
Br  Br45  1  0.70270069  0.72659505  0.01141137  1  -0.619342  0  -0.265347  -0.48718  0  1.356443  0
Br  Br46  1  0.29722523  0.22661637  0.48856477  1  -0.619332  0  -0.265298  -0.487144  0  1.356429  0
Br  Br47  1  0.29725583  0.27337064  0.98859792  1  -0.619279  0  -0.265331  -0.487093  0  1.356469  0
N  N48  1  0.41803056  0.53664639  0.75401725  1  -1.098837  0  -0.649519  -0.526924  0  3.423475  0
N  N49  1  0.41805342  0.96334829  0.25401989  1  -1.098953  0  -0.649523  -0.526978  0  3.423579  0
N  N50  1  0.58199905  0.46334161  0.24597635  1  -1.09916  0  -0.64957  -0.527064  0  3.424049  0
N  N51  1  0.58198380  0.03666464  0.74597163  1  -1.099165  0  -0.649635  -0.527135  0  3.423904  0
N  N52  1  0.16076382  0.73606674  0.90147798  1  -1.107235  0  -0.648199  -0.526876  0  3.434852  0
N  N53  1  0.16078172  0.76393293  0.40147612  1  -1.107342  0  -0.648184  -0.526827  0  3.43463  0
N  N54  1  0.83927949  0.26397375  0.09853505  1  -1.107503  0  -0.648252  -0.527125  0  3.43494  0
N  N55  1  0.83927225  0.23603013  0.59853770  1  -1.107622  0  -0.648229  -0.527065  0  3.434882  0
