# generated using pymatgen
data_Zn4H32C36S4O25
_symmetry_space_group_name_H-M   'P 1'
_cell_length_a   17.76929911
_cell_length_b   18.65007207
_cell_length_c   23.32218459
_cell_angle_alpha   66.39988248
_cell_angle_beta   69.73108154
_cell_angle_gamma   89.96925230
_symmetry_Int_Tables_number   1
_chemical_formula_structural   Zn4H32C36S4O25
_chemical_formula_sum   'Zn8 H64 C72 S8 O50'
_cell_volume   6557.56958993
_cell_formula_units_Z   2
loop_
 _symmetry_equiv_pos_site_id
 _symmetry_equiv_pos_as_xyz
  1  'x, y, z'
loop_
 _atom_site_type_symbol
 _atom_site_label
 _atom_site_symmetry_multiplicity
 _atom_site_fract_x
 _atom_site_fract_y
 _atom_site_fract_z
 _atom_site_occupancy
 _atom_site_pbe_bader_charge
 _atom_site_pbe_bader_spin_density
 _atom_site_pbe_cm5_charge
 _atom_site_pbe_ddec_charge
 _atom_site_pbe_ddec_spin_density
 _atom_site_pbe_ddec_sum_bond_order
 _atom_site_pbe_magmom
Zn  Zn0  1  0.11916164  0.53396286  0.94413182  1  1.315083  0  0.682143  0.971468  0  2.31846  0
Zn  Zn1  1  0.97801912  0.56163570  0.04855851  1  1.305342  0  0.681573  0.967007  0  2.343982  0
Zn  Zn2  1  0.97488818  0.38781880  0.04839838  1  1.310723  0  0.681361  0.965729  0  2.355481  0
Zn  Zn3  1  0.93475852  0.52257223  0.93919653  1  1.314914  0  0.682904  0.976875  0  2.296364  0
Zn  Zn4  1  0.38487703  0.98139723  0.04860132  1  1.316477  0  0.683739  0.975552  0  2.308314  0
Zn  Zn5  1  0.52410214  0.11517558  0.94005759  1  1.310324  0  0.680008  0.962146  0  2.363185  0
Zn  Zn6  1  0.52750650  0.94375787  0.93815533  1  1.319122  0  0.682928  0.971474  0  2.338812  0
Zn  Zn7  1  0.57105767  0.96878207  0.04716608  1  1.313454  0  0.681221  0.972931  0  2.305098  0
H  H8  1  0.43460804  0.82017034  0.38894183  1  0.142659  0  0.127551  0.147903  0  0.970941  0
H  H9  1  0.19834567  0.79786527  0.37721293  1  0.159873  0  0.127073  0.147448  0  0.972667  0
H  H10  1  0.31512699  0.67673640  0.61442060  1  0.172663  0  0.126935  0.147088  0  0.973178  0
H  H11  1  0.08050127  0.71325770  0.59980570  1  0.152935  0  0.126236  0.143509  0  0.974753  0
H  H12  1  0.68202050  0.08110920  0.60651945  1  0.157103  0  0.127527  0.147704  0  0.972334  0
H  H13  1  0.70903532  0.31283736  0.60472633  1  0.141349  0  0.127337  0.147542  0  0.971827  0
H  H14  1  0.82227411  0.19183276  0.38269550  1  0.161046  0  0.127347  0.147225  0  0.97203  0
H  H15  1  0.79341964  0.42291432  0.38162826  1  0.159511  0  0.12726  0.147638  0  0.973224  0
H  H16  1  0.19540378  0.30481621  0.91140105  1  0.047851  0  0.095432  0.09505  0  0.972162  0
H  H17  1  0.12420720  0.23333741  0.98926574  1  0.030392  0  0.095084  0.094257  0  0.981988  0
H  H18  1  0.21288708  0.14162396  0.98550313  1  0.01114  0  0.095184  0.093751  0  0.978661  0
H  H19  1  0.28490054  0.21440072  0.90887132  1  0.008206  0  0.09354  0.089338  0  0.976329  0
H  H20  1  0.21212193  0.12865189  0.09723227  1  0.029941  0  0.094769  0.099935  0  0.981238  0
H  H21  1  0.28612318  0.18814499  0.10071356  1  0.013213  0  0.08932  0.083243  0  0.978912  0
H  H22  1  0.12685219  0.22380000  0.10039801  1  0.061157  0  0.096655  0.107352  0  0.981158  0
H  H23  1  0.20307454  0.28458506  0.09986801  1  0.015146  0  0.092102  0.088985  0  0.973878  0
H  H24  1  0.30251123  0.39407648  0.91129440  1  0.060584  0  0.095199  0.102689  0  0.979914  0
H  H25  1  0.30479718  0.38804246  0.98787228  1  0.021134  0  0.090981  0.087692  0  0.979599  0
H  H26  1  0.39103528  0.29338048  0.98993048  1  0.021168  0  0.090465  0.086047  0  0.978586  0
H  H27  1  0.39127400  0.30198788  0.91201976  1  0.061313  0  0.093472  0.096968  0  0.982789  0
H  H28  1  0.89097663  0.79192160  0.90962996  1  0.057269  0  0.094583  0.092072  0  0.974352  0
H  H29  1  0.88378693  0.77738300  0.99139782  1  0.025243  0  0.094808  0.095025  0  0.982589  0
H  H30  1  0.79634197  0.87099847  0.98964820  1  0.03941  0  0.094738  0.094285  0  0.981709  0
H  H31  1  0.80206891  0.88312355  0.90877577  1  0.008051  0  0.092018  0.087297  0  0.977779  0
H  H32  1  0.69187161  0.76620387  0.09463512  1  0.042326  0  0.095064  0.098753  0  0.979406  0
H  H33  1  0.61952878  0.70648490  0.08958592  1  0.034632  0  0.090148  0.08395  0  0.980772  0
H  H34  1  0.77641323  0.66986596  0.09577548  1  0.070446  0  0.097212  0.108868  0  0.984226  0
H  H35  1  0.70576335  0.61324405  0.08667305  1  0.00507  0  0.091529  0.087879  0  0.974419  0
H  H36  1  0.79121091  0.70764902  0.89720718  1  0.054936  0  0.095841  0.103096  0  0.974781  0
H  H37  1  0.71685736  0.63321396  0.96921280  1  0.06148  0  0.090946  0.088273  0  0.981099  0
H  H38  1  0.62667747  0.72378779  0.97258509  1  0.023487  0  0.090337  0.087354  0  0.979506  0
H  H39  1  0.69998569  0.79728731  0.89924058  1  0.043975  0  0.0924  0.095936  0  0.983623  0
H  H40  1  0.16663099  0.79848190  0.93297261  1  0.030482  0  0.092043  0.086372  0  0.978697  0
H  H41  1  0.25092948  0.76101387  0.89338898  1  0.036308  0  0.095178  0.096915  0  0.978882  0
H  H42  1  0.33893688  0.85643347  0.89030559  1  0.076318  0  0.098855  0.107026  0  0.973029  0
H  H43  1  0.25431891  0.89343126  0.92987062  1  0.017542  0  0.092515  0.08727  0  0.978203  0
H  H44  1  0.39714256  0.74828816  0.96059649  1  0.04933  0  0.09623  0.098911  0  0.982655  0
H  H45  1  0.35375244  0.70830241  0.04982875  1  0.017126  0  0.091068  0.085555  0  0.977276  0
H  H46  1  0.30915969  0.65308258  0.96301404  1  0.050702  0  0.096098  0.099352  0  0.981155  0
H  H47  1  0.26671473  0.61330845  0.05223934  1  0.017419  0  0.090874  0.085296  0  0.979207  0
H  H48  1  0.10401288  0.74069626  0.06251404  1  0.035373  0  0.092461  0.09368  0  0.982867  0
H  H49  1  0.14602592  0.66602260  0.11055348  1  0.023776  0  0.09105  0.09022  0  0.975527  0
H  H50  1  0.23263504  0.76290204  0.10738435  1  0.050022  0  0.09456  0.102512  0  0.97592  0
H  H51  1  0.19186120  0.83726424  0.05808853  1  0.042991  0  0.093156  0.094165  0  0.97856  0
H  H52  1  0.89223844  0.26230096  0.93354300  1  0.026916  0  0.092548  0.087237  0  0.978983  0
H  H53  1  0.84662159  0.33869274  0.88957430  1  0.033331  0  0.095886  0.096786  0  0.975307  0
H  H54  1  0.75974148  0.24356497  0.89129214  1  0.05118  0  0.098329  0.108208  0  0.977111  0
H  H55  1  0.80400720  0.16744089  0.93709477  1  0.024089  0  0.092486  0.087216  0  0.978531  0
H  H56  1  0.64081315  0.29299582  0.95362836  1  0.035716  0  0.096402  0.101506  0  0.982644  0
H  H57  1  0.59946332  0.25050370  0.04288737  1  0.020445  0  0.09064  0.085042  0  0.980135  0
H  H58  1  0.72870919  0.38668011  0.95297212  1  0.049131  0  0.095325  0.097834  0  0.981354  0
H  H59  1  0.68780359  0.34292890  0.04227726  1  0.017415  0  0.09023  0.084445  0  0.97989  0
H  H60  1  0.83384614  0.19841029  0.06319180  1  0.048488  0  0.09241  0.09459  0  0.983246  0
H  H61  1  0.75082158  0.23181452  0.10727709  1  0.01258  0  0.090145  0.089244  0  0.977953  0
H  H62  1  0.66171582  0.13837426  0.10906587  1  0.051699  0  0.09386  0.100681  0  0.973954  0
H  H63  1  0.74477435  0.10500448  0.06524499  1  0.025544  0  0.0936  0.095944  0  0.979623  0
H  H64  1  0.55019998  0.85148008  0.18602876  1  0.648099  0  0.316143  0.379415  0  0.938512  0
H  H65  1  0.28700152  0.97810618  0.17782905  1  0.650151  0  0.317422  0.380451  0  0.93229  0
H  H66  1  0.22269539  0.65532332  0.81410992  1  0.653453  0  0.316745  0.379796  0  0.935306  0
H  H67  1  0.96226237  0.53916358  0.80128567  1  0.638435  0  0.316812  0.380284  0  0.93474  0
H  H68  1  0.66087305  0.97047247  0.81081767  1  0.659488  0  0.317744  0.381363  0  0.931673  0
H  H69  1  0.53155042  0.22712643  0.80396517  1  0.659717  0  0.317339  0.381738  0  0.932687  0
H  H70  1  0.84610649  0.28198579  0.17763455  1  0.646577  0  0.31756  0.380661  0  0.934416  0
H  H71  1  0.97277723  0.53464140  0.18328720  1  0.667887  0  0.317896  0.380943  0  0.932801  0
C  C72  1  0.14488255  0.64069404  0.00133555  1  1.517355  0  0.238421  0.607583  0  4.086579  0
C  C73  1  0.91339622  0.41237769  0.17252771  1  1.615411  0  0.238386  0.62056  0  4.123034  0
C  C74  1  0.14486984  0.36837502  0.00038261  1  1.524213  0  0.24197  0.609473  0  4.07779  0
C  C75  1  0.85578448  0.35917749  0.99506267  1  1.521549  0  0.236684  0.604345  0  4.089746  0
C  C76  1  0.08736546  0.59207050  0.81688772  1  1.548147  0  0.241726  0.627669  0  4.106792  0
C  C77  1  0.85916495  0.63529768  0.99192836  1  1.525265  0  0.242852  0.611412  0  4.072502  0
C  C78  1  0.35767786  0.14485887  0.99713468  1  1.547688  0  0.23809  0.60621  0  4.086503  0
C  C79  1  0.59051934  0.09464540  0.81531931  1  1.62751  0  0.238711  0.619256  0  4.122251  0
C  C80  1  0.35873281  0.86925054  0.99486033  1  1.531335  0  0.242164  0.609218  0  4.077191  0
C  C81  1  0.64397616  0.85758518  0.99283018  1  1.531416  0  0.239855  0.610389  0  4.084307  0
C  C82  1  0.42353409  0.91697706  0.17307741  1  1.617588  0  0.23986  0.621905  0  4.117589  0
C  C83  1  0.64054285  0.13489182  0.99773436  1  1.533195  0  0.243378  0.612331  0  4.076484  0
C  C84  1  0.38519902  0.87801255  0.24903524  1  -0.003706  0  0.000215  -0.052792  0  3.894642  0
C  C85  1  0.43170717  0.86463853  0.28982393  1  -0.152296  0  -0.002877  -0.089405  0  3.917817  0
C  C86  1  0.39601697  0.82844117  0.36001866  1  0.040856  0  -0.057234  -0.114019  0  3.872717  0
C  C87  1  0.31134774  0.80375876  0.39304037  1  0.118894  0  0.021636  0.16824  0  4.0786  0
C  C88  1  0.26394836  0.81659444  0.35342637  1  0.050767  0  -0.057882  -0.11488  0  3.874549  0
C  C89  1  0.30015490  0.85285642  0.28330120  1  -0.200698  0  -0.003956  -0.091531  0  3.920349  0
C  C90  1  0.27417261  0.76722363  0.46437940  1  -0.047784  0  -0.020515  -0.078104  0  4.056208  0
C  C91  1  0.24109225  0.73594540  0.52588149  1  -0.29288  0  -0.019328  -0.079025  0  4.055595  0
C  C92  1  0.20312339  0.70011007  0.59718095  1  0.187669  0  0.020448  0.172048  0  4.071728  0
C  C93  1  0.24949738  0.67208120  0.63757296  1  -0.0118  0  -0.055858  -0.113566  0  3.87359  0
C  C94  1  0.21219086  0.63753908  0.70764633  1  -0.183988  0  -0.003281  -0.090803  0  3.919965  0
C  C95  1  0.12703970  0.62899217  0.74105476  1  0.099936  0  -0.001361  -0.057503  0  3.898596  0
C  C96  1  0.08149860  0.65729943  0.69952617  1  -0.013006  0  -0.002699  -0.087627  0  3.915682  0
C  C97  1  0.11829470  0.69194627  0.62938707  1  -0.151195  0  -0.055578  -0.111811  0  3.869666  0
C  C98  1  0.62850994  0.13169211  0.73967810  1  -0.008284  0  -0.001169  -0.054826  0  3.90354  0
C  C99  1  0.64013497  0.08524846  0.70282534  1  -0.184681  0  -0.002663  -0.088072  0  3.9154  0
C  C100  1  0.67495743  0.11919778  0.63265954  1  0.066684  0  -0.056556  -0.114043  0  3.874238  0
C  C101  1  0.70016095  0.20168853  0.59596752  1  0.137144  0  0.021912  0.170752  0  4.081313  0
C  C102  1  0.68935350  0.24892637  0.63165682  1  0.06077  0  -0.056613  -0.114428  0  3.875673  0
C  C103  1  0.65436575  0.21451651  0.70180697  1  -0.144853  0  -0.002603  -0.08922  0  3.919203  0
C  C104  1  0.73597885  0.23653417  0.52468225  1  -0.277201  0  -0.020562  -0.080566  0  4.063073  0
C  C105  1  0.76711294  0.26695827  0.46312333  1  -0.12949  0  -0.019024  -0.074885  0  4.061614  0
C  C106  1  0.80301659  0.30254701  0.39182001  1  0.164665  0  0.021542  0.16815  0  4.08211  0
C  C107  1  0.82890954  0.25597321  0.35593539  1  -0.015707  0  -0.056695  -0.113658  0  3.872839  0
C  C108  1  0.86405296  0.29133623  0.28577965  1  -0.147434  0  -0.00255  -0.088645  0  3.914679  0
C  C109  1  0.87523458  0.37447138  0.24817409  1  0.046581  0  -8.6e-05  -0.05187  0  3.901247  0
C  C110  1  0.84878910  0.42019528  0.28522950  1  -0.134949  0  -0.00318  -0.090517  0  3.921197  0
C  C111  1  0.81345723  0.38533969  0.35536601  1  -0.021987  0  -0.057375  -0.114838  0  3.878589  0
C  C112  1  0.18772425  0.26306297  0.96302662  1  -0.033844  0  -0.152866  -0.170388  0  3.840796  0
C  C113  1  0.24670645  0.20208968  0.96132950  1  0.015306  0  -0.152153  -0.167314  0  3.846381  0
C  C114  1  0.30208340  0.20631082  0.99905735  1  0.028524  0  -0.016469  0.018268  0  3.818683  0
C  C115  1  0.24751927  0.18838731  0.07258221  1  0.000472  0  -0.158246  -0.171414  0  3.858511  0
C  C116  1  0.19092415  0.25145656  0.07334795  1  -0.020204  0  -0.157478  -0.175149  0  3.845529  0
C  C117  1  0.20455025  0.31020842  0.00024066  1  0.075183  0  -0.014988  0.021711  0  3.815909  0
C  C118  1  0.29313199  0.35234454  0.96318902  1  -0.044599  0  -0.162408  -0.178565  0  3.877529  0
C  C119  1  0.35112338  0.29043383  0.96367118  1  -0.033318  0  -0.1628  -0.176062  0  3.876043  0
C  C120  1  0.84801971  0.77752266  0.96127647  1  -0.052143  0  -0.153463  -0.170405  0  3.845331  0
C  C121  1  0.78924273  0.83898379  0.96078534  1  -0.005841  0  -0.15337  -0.167839  0  3.851311  0
C  C122  1  0.70028914  0.79638234  0.99235761  1  0.044147  0  -0.016473  0.015406  0  3.8204  0
C  C123  1  0.68344759  0.73518139  0.06546729  1  -0.041846  0  -0.157173  -0.170994  0  3.858109  0
C  C124  1  0.74089529  0.67277465  0.06491236  1  -0.018011  0  -0.15785  -0.174036  0  3.839483  0
C  C125  1  0.79919776  0.69338539  0.99160045  1  0.029888  0  -0.01492  0.021908  0  3.813355  0
C  C126  1  0.74973059  0.69328309  0.94918751  1  -0.053567  0  -0.16311  -0.180971  0  3.876697  0
C  C127  1  0.68995923  0.75347260  0.95065337  1  -0.028577  0  -0.162315  -0.173586  0  3.874664  0
C  C128  1  0.22301050  0.77615607  0.93625629  1  -0.036296  0  -0.153359  -0.16803  0  3.845949  0
C  C129  1  0.28152407  0.83944596  0.93417599  1  -0.037972  0  -0.154062  -0.172529  0  3.843523  0
C  C130  1  0.29968300  0.80638536  0.99957271  1  0.044581  0  -0.015177  0.021053  0  3.81663  0
C  C131  1  0.33941281  0.73152842  0.00404203  1  -0.028156  0  -0.156336  -0.171466  0  3.85329  0
C  C132  1  0.28114922  0.66828733  0.00575253  1  -0.021466  0  -0.157648  -0.173674  0  3.861578  0
C  C133  1  0.20160459  0.69993157  0.00297496  1  0.058799  0  -0.016079  0.018237  0  3.818831  0
C  C134  1  0.16168327  0.72025160  0.06333909  1  -0.010233  0  -0.162703  -0.175519  0  3.876237  0
C  C135  1  0.21974416  0.78400412  0.06105054  1  -0.03523  0  -0.16349  -0.179537  0  3.868435  0
C  C136  1  0.83384415  0.28276884  0.93490676  1  -0.026466  0  -0.152734  -0.167968  0  3.844005  0
C  C137  1  0.77532231  0.21990538  0.93637569  1  -0.029769  0  -0.153539  -0.171384  0  3.833055  0
C  C138  1  0.69629614  0.19415837  0.00037527  1  0.056241  0  -0.015017  0.020042  0  3.817947  0
C  C139  1  0.65661341  0.26837994  0.99849307  1  -0.019956  0  -0.157995  -0.175025  0  3.861102  0
C  C140  1  0.71530548  0.33032486  0.99787975  1  -0.02215  0  -0.158681  -0.173359  0  3.86504  0
C  C141  1  0.79531243  0.29858987  0.99854780  1  0.0495  0  -0.016129  0.017824  0  3.820582  0
C  C142  1  0.77680032  0.22030355  0.06218723  1  -0.018645  0  -0.162566  -0.174042  0  3.874163  0
C  C143  1  0.71765574  0.15834374  0.06349015  1  -0.0247  0  -0.162657  -0.179685  0  3.870597  0
S  S144  1  0.54002975  0.89809772  0.25564140  1  3.131955  0  0.535767  1.143625  0  6.04462  0
S  S145  1  0.23044528  0.86068858  0.24086782  1  3.135441  0  0.538183  1.145418  0  6.034316  0
S  S146  1  0.28040483  0.60114407  0.75138096  1  3.129076  0  0.535679  1.143818  0  6.038845  0
S  S147  1  0.97291289  0.65608338  0.73258857  1  3.11392  0  0.534717  1.140954  0  6.047475  0
S  S148  1  0.60782069  0.97912350  0.74173192  1  3.124648  0  0.536505  1.143529  0  6.03607  0
S  S149  1  0.65050065  0.28285398  0.73970896  1  3.136224  0  0.537693  1.14648  0  6.041266  0
S  S150  1  0.89829832  0.22344956  0.24795810  1  3.133556  0  0.536996  1.144143  0  6.03703  0
S  S151  1  0.85305156  0.52646788  0.24623603  1  3.128558  0  0.53786  1.145453  0  6.039148  0
O  O152  1  0.00176234  0.50213587  0.99362137  1  -1.222848  0  -0.576871  -1.029736  0  2.551966  0
O  O153  1  0.17502491  0.61133663  0.95881273  1  -1.169263  0  -0.316219  -0.552868  0  2.342388  0
O  O154  1  0.96299821  0.47734878  0.14304345  1  -1.181602  0  -0.293859  -0.545016  0  2.370792  0
O  O155  1  0.07066189  0.33846893  0.03879161  1  -1.16726  0  -0.311554  -0.542319  0  2.384408  0
O  O156  1  0.07049634  0.62563828  0.04109468  1  -1.180362  0  -0.31248  -0.546149  0  2.369024  0
O  O157  1  0.17253681  0.44156605  0.96160654  1  -1.166141  0  -0.305286  -0.533226  0  2.382281  0
O  O158  1  0.89509878  0.37837501  0.14017657  1  -1.17935  0  -0.293927  -0.54519  0  2.37304  0
O  O159  1  0.89550848  0.33325796  0.03352339  1  -1.162677  0  -0.312434  -0.546114  0  2.383792  0
O  O160  1  0.01987601  0.54491438  0.84536431  1  -1.179577  0  -0.291542  -0.543045  0  2.358601  0
O  O161  1  0.86445182  0.43143022  0.95305194  1  -1.17466  0  -0.31513  -0.550619  0  2.327703  0
O  O162  1  0.12305045  0.60932525  0.84984378  1  -1.173442  0  -0.294532  -0.547038  0  2.363458  0
O  O163  1  0.89663790  0.62596492  0.03176630  1  -1.154034  0  -0.311949  -0.544022  0  2.384791  0
O  O164  1  0.86830009  0.60136137  0.95263553  1  -1.151415  0  -0.306174  -0.535921  0  2.363725  0
O  O165  1  0.50134724  0.00078739  0.99505201  1  -1.234921  0  -0.576869  -1.030498  0  2.553816  0
O  O166  1  0.32760608  0.07237626  0.03804570  1  -1.17155  0  -0.314629  -0.550403  0  2.341881  0
O  O167  1  0.54055158  0.13021621  0.84455874  1  -1.178403  0  -0.292303  -0.540091  0  2.368869  0
O  O168  1  0.43016007  0.88527573  0.94949985  1  -1.168613  0  -0.311448  -0.542419  0  2.379577  0
O  O169  1  0.43047218  0.16941759  0.95390326  1  -1.183083  0  -0.313932  -0.547087  0  2.371254  0
O  O170  1  0.33265309  0.90157794  0.03543992  1  -1.158561  0  -0.30554  -0.533206  0  2.388671  0
O  O171  1  0.60902552  0.02860822  0.84816773  1  -1.18181  0  -0.293269  -0.547331  0  2.373361  0
O  O172  1  0.60555411  0.87232372  0.95325479  1  -1.174472  0  -0.31443  -0.54923  0  2.375832  0
O  O173  1  0.49067939  0.89839640  0.14373740  1  -1.167728  0  -0.290697  -0.538231  0  2.355883  0
O  O174  1  0.63923049  0.89061842  0.03240256  1  -1.170012  0  -0.315611  -0.552752  0  2.333266  0
O  O175  1  0.38698049  0.96677614  0.14078968  1  -1.179926  0  -0.29528  -0.550024  0  2.364724  0
O  O176  1  0.60678248  0.16363045  0.95486748  1  -1.162888  0  -0.312623  -0.543825  0  2.389403  0
O  O177  1  0.63306810  0.06169609  0.03673455  1  -1.162623  0  -0.307531  -0.537129  0  2.36367  0
O  O178  1  0.57435647  0.84029993  0.22123756  1  -1.216329  0  -0.360477  -0.516767  0  2.150265  0
O  O179  1  0.56651796  0.87794558  0.31081262  1  -1.282154  0  -0.302647  -0.500013  0  2.103097  0
O  O180  1  0.55549585  0.97861268  0.20529770  1  -1.296758  0  -0.314331  -0.533448  0  2.142263  0
O  O181  1  0.22959192  0.95370640  0.20955216  1  -1.216404  0  -0.358424  -0.515941  0  2.155894  0
O  O182  1  0.15065692  0.82502390  0.29100405  1  -1.289328  0  -0.301081  -0.497081  0  2.106066  0
O  O183  1  0.26602956  0.83492706  0.18813288  1  -1.29566  0  -0.312003  -0.536826  0  2.171389  0
O  O184  1  0.28065936  0.66206969  0.78350523  1  -1.214601  0  -0.359711  -0.516678  0  2.151422  0
O  O185  1  0.36070665  0.61526084  0.70207228  1  -1.287436  0  -0.299958  -0.496064  0  2.105468  0
O  O186  1  0.24356806  0.52257198  0.80357683  1  -1.300503  0  -0.316415  -0.539046  0  2.154252  0
O  O187  1  0.93928290  0.56381897  0.76540600  1  -1.206586  0  -0.360447  -0.516113  0  2.148122  0
O  O188  1  0.94767778  0.69224276  0.67681070  1  -1.286675  0  -0.300526  -0.495607  0  2.106579  0
O  O189  1  0.95528239  0.68465467  0.78407604  1  -1.273178  0  -0.317261  -0.535735  0  2.136273  0
O  O190  1  0.67130110  0.94800098  0.77677553  1  -1.227841  0  -0.359245  -0.517584  0  2.154848  0
O  O191  1  0.62533982  0.95297258  0.68920992  1  -1.28055  0  -0.299205  -0.495347  0  2.106026  0
O  O192  1  0.52683011  0.96178502  0.79194389  1  -1.300043  0  -0.315561  -0.535063  0  2.149574  0
O  O193  1  0.55544532  0.28331379  0.77019194  1  -1.227381  0  -0.359853  -0.516195  0  2.148088  0
O  O194  1  0.68547304  0.36056101  0.68665505  1  -1.286809  0  -0.301295  -0.498787  0  2.10589  0
O  O195  1  0.68099149  0.24824412  0.79293608  1  -1.295528  0  -0.315885  -0.53659  0  2.147492  0
O  O196  1  0.83622393  0.22569576  0.21203999  1  -1.212122  0  -0.358288  -0.516988  0  2.159693  0
O  O197  1  0.88088766  0.14518121  0.30113909  1  -1.285419  0  -0.301039  -0.497358  0  2.103833  0
O  O198  1  0.97960155  0.25675481  0.19852216  1  -1.300081  0  -0.313075  -0.533675  0  2.151658  0
O  O199  1  0.94804625  0.55709907  0.21685121  1  -1.23666  0  -0.358255  -0.514727  0  2.155302  0
O  O200  1  0.81697668  0.55193433  0.29860345  1  -1.284574  0  -0.301208  -0.498264  0  2.105336  0
O  O201  1  0.82396744  0.54476354  0.19223228  1  -1.29377  0  -0.313618  -0.536432  0  2.158008  0
