# generated using pymatgen
data_Zn2H12C26N8F7
_symmetry_space_group_name_H-M   'P 1'
_cell_length_a   14.88613233
_cell_length_b   14.76623380
_cell_length_c   14.98914392
_cell_angle_alpha   99.83426947
_cell_angle_beta   115.62999762
_cell_angle_gamma   112.47174574
_symmetry_Int_Tables_number   1
_chemical_formula_structural   Zn2H12C26N8F7
_chemical_formula_sum   'Zn4 H24 C52 N16 F14'
_cell_volume   2511.71716944
_cell_formula_units_Z   2
loop_
 _symmetry_equiv_pos_site_id
 _symmetry_equiv_pos_as_xyz
  1  'x, y, z'
loop_
 _atom_site_type_symbol
 _atom_site_label
 _atom_site_symmetry_multiplicity
 _atom_site_fract_x
 _atom_site_fract_y
 _atom_site_fract_z
 _atom_site_occupancy
 _atom_site_pbe_bader_charge
 _atom_site_pbe_bader_spin_density
 _atom_site_pbe_cm5_charge
 _atom_site_pbe_ddec_charge
 _atom_site_pbe_ddec_spin_density
 _atom_site_pbe_ddec_sum_bond_order
 _atom_site_pbe_magmom
C  C0  1  0.90559181  0.02246410  0.19407848  1  0.423261  0  0.012198  -0.038816  0  3.94188  0
C  C1  1  0.10662270  0.79326737  0.20765067  1  0.427856  0  0.011788  -0.044544  0  3.988201  0
C  C2  1  0.00101948  0.29124224  0.11191976  1  0.071394  0  -0.040135  -0.132226  0  4.089112  0
C  C3  1  0.00180505  0.14142641  0.69413827  1  0.055366  0  -0.040595  -0.131084  0  4.099252  0
C  C4  1  0.46118405  0.30774079  0.32791619  1  0.081302  0  -0.044082  -0.25753  0  4.095713  0
C  C5  1  0.80817017  0.69796036  0.71863088  1  0.128309  0  -0.046475  -0.263375  0  4.07814  0
C  C6  1  0.54628398  0.84830931  0.85699858  1  0.056095  0  -0.043763  -0.104938  0  4.160733  0
C  C7  1  0.19708837  0.89348302  0.91061122  1  0.059359  0  -0.043309  -0.103583  0  4.142715  0
C  C8  1  0.30044805  0.79614342  0.90341954  1  -0.010227  0  -0.10849  -0.106394  0  4.062812  0
C  C9  1  0.38593241  0.78437399  0.88876805  1  0.002902  0  -0.106449  -0.101597  0  4.060252  0
C  C10  1  0.25450845  0.85694673  0.87015283  1  -0.012092  0  -0.098471  -0.101105  0  4.036826  0
C  C11  1  0.44388771  0.84110133  0.84956079  1  -0.066773  0  -0.097878  -0.103588  0  4.046518  0
C  C12  1  0.10706781  0.49031527  0.19067577  1  -0.080594  0  -0.02534  -0.0619  0  3.936317  0
C  C13  1  0.90134152  0.06788319  0.49272004  1  -0.034429  0  -0.024658  -0.060647  0  3.930606  0
C  C14  1  0.00756527  0.39195871  0.15199761  1  0.046749  0  -0.015221  -0.024122  0  4.061438  0
C  C15  1  0.99710821  0.14470758  0.59578447  1  0.017592  0  -0.016544  -0.027191  0  4.064905  0
C  C16  1  0.91561996  0.40555704  0.14319470  1  0.448093  0  0.094976  0.23802  0  4.044467  0
C  C17  1  0.08736443  0.21728726  0.59002272  1  0.428345  0  0.095301  0.238843  0  4.043741  0
C  C18  1  0.91685082  0.50185062  0.15591112  1  0.028253  0  -0.098919  -0.25487  0  3.971043  0
C  C19  1  0.08795163  0.20858372  0.49615802  1  -0.02779  0  -0.101746  -0.261832  0  3.975793  0
C  C20  1  0.01466415  0.59718585  0.18276384  1  0.065675  0  -0.005685  0.066593  0  4.069126  0
C  C21  1  0.99374110  0.12429489  0.39500234  1  0.097799  0  -0.004325  0.070022  0  4.057355  0
C  C22  1  0.09637756  0.27833162  0.13254523  1  0.459642  0  0.016588  -0.022277  0  3.951376  0
C  C23  1  0.90567678  0.08488976  0.70058035  1  0.455833  0  0.017569  -0.019195  0  3.984976  0
C  C24  1  0.11206107  0.58821895  0.20731018  1  -0.088893  0  -0.016306  0.027832  0  3.915875  0
C  C25  1  0.89905227  0.05769182  0.39770363  1  -0.013865  0  -0.014732  0.030251  0  3.920868  0
C  C26  1  0.23387595  0.64856859  0.23062206  1  -0.005916  0  -0.156373  -0.276059  0  3.883397  0
C  C27  1  0.78077497  0.95532367  0.32821155  1  -0.058308  0  -0.15729  -0.279669  0  3.887858  0
C  C28  1  0.22328161  0.53630508  0.20231561  1  0.515568  0  0.029809  0.195259  0  3.859105  0
C  C29  1  0.77994373  0.97134440  0.43386501  1  0.530695  0  0.03164  0.19778  0  3.860271  0
C  C30  1  0.71001764  0.49513808  0.62004357  1  -0.038198  0  -0.019233  -0.05666  0  3.883988  0
C  C31  1  0.62583586  0.40230337  0.52485920  1  0.011011  0  -0.022013  -0.053185  0  3.923843  0
C  C32  1  0.73960564  0.59865501  0.62258875  1  0.020134  0  -0.002268  0.111297  0  4.020917  0
C  C33  1  0.56303554  0.40218356  0.42318828  1  -0.003726  0  -0.007074  0.10399  0  4.051685  0
C  C34  1  0.68484417  0.59871386  0.51815181  1  -0.026537  0  -0.089046  -0.128914  0  3.947704  0
C  C35  1  0.60079515  0.50590590  0.42370130  1  -0.023523  0  -0.087909  -0.124305  0  3.96006  0
C  C36  1  0.63627736  0.32857257  0.58208892  1  0.51796  0  0.017781  0.111753  0  3.891879  0
C  C37  1  0.73618453  0.43143356  0.68743297  1  0.503829  0  0.025409  0.11986  0  3.871364  0
C  C38  1  0.39325091  0.20446325  0.31795461  1  1.04928  0  0.207717  0.343888  0  4.113015  0
C  C39  1  0.85378811  0.71696064  0.82867345  1  1.024256  0  0.20926  0.351004  0  4.084103  0
C  C40  1  0.61003256  0.90933609  0.82003487  1  0.451199  0  0.01645  -0.030375  0  3.992854  0
C  C41  1  0.16485323  0.96983603  0.89067839  1  0.443804  0  0.014426  -0.033258  0  3.953582  0
C  C42  1  0.39236661  0.29689325  0.22162652  1  1.071075  0  0.208944  0.343711  0  4.10476  0
C  C43  1  0.82598801  0.80043385  0.72421304  1  1.064234  0  0.209717  0.350472  0  4.081766  0
C  C44  1  0.61896026  0.81269606  0.91463893  1  1.005948  0  0.202812  0.326214  0  4.077243  0
C  C45  1  0.18094079  0.88237939  0.99487248  1  1.008604  0  0.205987  0.334728  0  4.042821  0
C  C46  1  0.90694219  0.19232396  0.02675128  1  1.027538  0  0.206308  0.339105  0  4.066552  0
C  C47  1  0.09491702  0.17576366  0.79975126  1  1.042449  0  0.201763  0.326095  0  4.107082  0
C  C48  1  0.09761589  0.11491529  0.29696466  1  0.363419  0  0.011122  -0.042456  0  3.952682  0
C  C49  1  0.91490333  0.70096924  0.11137934  1  0.418528  0  0.014061  -0.041012  0  3.979986  0
C  C50  1  0.99910077  0.09589202  0.30014216  1  0.025022  0  -0.032563  -0.031763  0  4.07021  0
C  C51  1  0.01169976  0.69231396  0.17289270  1  0.071693  0  -0.034447  -0.032389  0  4.088741  0
F  F52  1  0.81589903  0.31816222  0.11596002  1  -0.634129  0  -0.115494  -0.156162  0  1.337463  0
F  F53  1  0.18300918  0.30212854  0.68333777  1  -0.632617  0  -0.116119  -0.156104  0  1.338544  0
F  F54  1  0.31077429  0.52878076  0.28508261  1  -0.640809  0  -0.161111  -0.221952  0  1.23047  0
F  F55  1  0.76925381  0.88529972  0.46593776  1  -0.629837  0  -0.157159  -0.214248  0  1.260469  0
F  F56  1  0.66951270  0.25913425  0.54760062  1  -0.635321  0  -0.168469  -0.212813  0  1.228625  0
F  F57  1  0.71396121  0.43913751  0.76977744  1  -0.624121  0  -0.162426  -0.209645  0  1.26901  0
F  F58  1  0.41184772  0.16510158  0.39463056  1  -0.636058  0  -0.081234  -0.133565  0  1.370571  0
F  F59  1  0.86304739  0.64812723  0.87453981  1  -0.630713  0  -0.072544  -0.114026  0  1.410059  0
F  F60  1  0.41200395  0.37093382  0.18030265  1  -0.63269  0  -0.078961  -0.130133  0  1.348055  0
F  F61  1  0.79957660  0.83313309  0.64298902  1  -0.633322  0  -0.070889  -0.124039  0  1.42049  0
F  F62  1  0.60453900  0.75301639  0.97152586  1  -0.644169  0  -0.089339  -0.144375  0  1.334932  0
F  F63  1  0.20046990  0.82007819  0.04786332  1  -0.64667  0  -0.085273  -0.142493  0  1.362913  0
F  F64  1  0.79358985  0.15970479  0.97056216  1  -0.634642  0  -0.087  -0.136934  0  1.380979  0
F  F65  1  0.20964184  0.22980861  0.84201991  1  -0.6368  0  -0.092303  -0.141847  0  1.365327  0
H  H66  1  0.81291294  0.98604832  0.15904930  1  0.080183  0  0.119651  0.109317  0  1.005526  0
H  H67  1  0.19886159  0.82285061  0.25714953  1  0.062278  0  0.120633  0.110067  0  1.000478  0
H  H68  1  0.27126210  0.89166049  0.81620759  1  0.026242  0  0.101756  0.101033  0  0.991838  0
H  H69  1  0.41877247  0.89427656  0.81669228  1  0.053747  0  0.100948  0.101676  0  0.992442  0
H  H70  1  0.83777741  0.50043030  0.14114741  1  0.093538  0  0.111176  0.136102  0  0.982114  0
H  H71  1  0.16561671  0.26822162  0.50433756  1  0.095585  0  0.11056  0.136872  0  0.982602  0
H  H72  1  0.30213025  0.70337667  0.31552368  1  0.023676  0  0.100598  0.12195  0  0.975811  0
H  H73  1  0.78223454  0.88249308  0.29971057  1  0.066887  0  0.101824  0.125136  0  0.974278  0
H  H74  1  0.22082214  0.50631077  0.12833729  1  0.073267  0  0.103683  0.057955  0  0.953732  0
H  H75  1  0.71304388  0.98752694  0.43221343  1  0.045576  0  0.102228  0.053353  0  0.956103  0
H  H76  1  0.70555908  0.67483148  0.51030941  1  0.10857  0  0.100249  0.110837  0  1.023198  0
H  H77  1  0.55965488  0.51514173  0.34840924  1  0.086353  0  0.100148  0.107242  0  1.013492  0
H  H78  1  0.56275165  0.28083471  0.58734864  1  0.101012  0  0.101534  0.069985  0  0.969452  0
H  H79  1  0.82224900  0.43988536  0.72105582  1  0.088102  0  0.109822  0.078868  0  0.946372  0
H  H80  1  0.18800084  0.33470504  0.19299677  1  0.12304  0  0.116344  0.111185  0  1.01679  0
H  H81  1  0.81411617  0.04207273  0.63720860  1  0.122807  0  0.123705  0.113555  0  0.993687  0
H  H82  1  0.58844110  0.95436257  0.77251070  1  0.105613  0  0.124645  0.116413  0  0.977475  0
H  H83  1  0.16450554  0.00487232  0.83247077  1  0.102791  0  0.122312  0.117053  0  0.988052  0
H  H84  1  0.18896223  0.16505551  0.36129558  1  0.131292  0  0.118162  0.107927  0  0.998881  0
H  H85  1  0.82310500  0.64099601  0.06551602  1  0.087258  0  0.125392  0.116096  0  0.984675  0
H  H86  1  0.27949170  0.75914538  0.95421655  1  0.053843  0  0.091748  0.091482  0  1.015907  0
H  H87  1  0.41232613  0.73174820  0.92134748  1  0.044975  0  0.093098  0.094668  0  1.007201  0
H  H88  1  0.24475844  0.68888571  0.17765617  1  0.071011  0  0.095223  0.113442  0  0.992819  0
H  H89  1  0.71085331  0.95622835  0.26090215  1  0.055982  0  0.096191  0.11157  0  0.985673  0
N  N90  1  0.94615447  0.99910155  0.13408342  1  -0.813313  0  -0.284179  -0.192858  0  3.616866  0
N  N91  1  0.06931137  0.85631799  0.16970277  1  -0.754241  0  -0.275276  -0.186902  0  3.564077  0
N  N92  1  0.05995280  0.18158966  0.06444573  1  -0.778092  0  -0.285356  -0.180672  0  3.6411  0
N  N93  1  0.93956270  0.08663021  0.79983886  1  -0.764428  0  -0.273616  -0.174241  0  3.549975  0
N  N94  1  0.29780830  0.14099545  0.21984134  1  -0.82659  0  -0.280222  -0.283774  0  3.522257  0
N  N95  1  0.89005829  0.81607135  0.89034585  1  -0.787496  0  -0.289371  -0.294025  0  3.560807  0
N  N96  1  0.70946522  0.90915793  0.85325951  1  -0.787033  0  -0.278077  -0.182531  0  3.55503  0
N  N97  1  0.13551726  0.00066328  0.95866475  1  -0.784807  0  -0.28783  -0.182428  0  3.627706  0
N  N98  1  0.29707118  0.20052988  0.15739397  1  -0.805015  0  -0.277251  -0.278506  0  3.502551  0
N  N99  1  0.87307847  0.86947736  0.82314287  1  -0.836793  0  -0.290357  -0.297757  0  3.588883  0
N  N100  1  0.71519413  0.84785753  0.91358940  1  -0.825121  0  -0.282292  -0.289863  0  3.525551  0
N  N101  1  0.14565818  0.94581326  0.02400201  1  -0.827741  0  -0.2867  -0.294034  0  3.604272  0
N  N102  1  0.94160348  0.12767661  0.99845100  1  -0.81573  0  -0.289663  -0.302858  0  3.604242  0
N  N103  1  0.05952062  0.14424850  0.86285741  1  -0.850669  0  -0.282283  -0.294644  0  3.523896  0
N  N104  1  0.06425859  0.05568406  0.19761107  1  -0.759402  0  -0.282623  -0.189111  0  3.63491  0
N  N105  1  0.94972722  0.79866320  0.10952045  1  -0.845687  0  -0.27742  -0.183652  0  3.569337  0
Zn  Zn106  1  0.86777223  0.85746229  0.01261432  1  1.199144  0  0.750076  0.653574  0  2.424894  0
Zn  Zn107  1  0.15021097  0.99679283  0.16021651  1  1.205165  0  0.752359  0.662235  0  2.409406  0
Zn  Zn108  1  0.14555107  0.14018106  0.01020137  1  1.207349  0  0.751942  0.662821  0  2.419726  0
Zn  Zn109  1  0.85699525  0.99914798  0.86013863  1  1.20957  0  0.754544  0.677917  0  2.376857  0
