# generated using pymatgen
data_Zn2H11C17N3O7
_symmetry_space_group_name_H-M   'P 1'
_cell_length_a   8.95159163
_cell_length_b   9.18744347
_cell_length_c   11.35029370
_cell_angle_alpha   101.23478985
_cell_angle_beta   113.20696416
_cell_angle_gamma   99.33667003
_symmetry_Int_Tables_number   1
_chemical_formula_structural   Zn2H11C17N3O7
_chemical_formula_sum   'Zn4 H22 C34 N6 O14'
_cell_volume   811.38778296
_cell_formula_units_Z   2
loop_
 _symmetry_equiv_pos_site_id
 _symmetry_equiv_pos_as_xyz
  1  'x, y, z'
loop_
 _atom_site_type_symbol
 _atom_site_label
 _atom_site_symmetry_multiplicity
 _atom_site_fract_x
 _atom_site_fract_y
 _atom_site_fract_z
 _atom_site_occupancy
 _atom_site_hle17_bader_spin_density
 _atom_site_hle17_ddec_charge
 _atom_site_hle17_ddec_spin_density
 _atom_site_hle17_ddec_sum_bond_order
 _atom_site_hle17_magmom
 _atom_site_hse06_10hf_bader_spin_density
 _atom_site_hse06_10hf_ddec_charge
 _atom_site_hse06_10hf_ddec_spin_density
 _atom_site_hse06_10hf_ddec_sum_bond_order
 _atom_site_hse06_10hf_magmom
 _atom_site_hse06_bader_spin_density
 _atom_site_hse06_ddec_charge
 _atom_site_hse06_ddec_spin_density
 _atom_site_hse06_ddec_sum_bond_order
 _atom_site_hse06_magmom
 _atom_site_pbe_bader_spin_density
 _atom_site_pbe_cm5_charge
 _atom_site_pbe_ddec_charge
 _atom_site_pbe_ddec_spin_density
 _atom_site_pbe_ddec_sum_bond_order
 _atom_site_pbe_magmom
Zn  Zn0  1  0.48721897  0.67034270  0.99445021  1  0  1.102801  0  1.81521  0  0  0.933731  0  2.276039  0  0  0.980683  0  2.216839  0  0  0.672319  0.900547  0  2.317027  0
Zn  Zn1  1  0.51278073  0.32965658  0.00554985  1  0  1.102796  0  1.815205  0  0  0.933722  0  2.276039  0  0  0.980674  0  2.216839  0  0  0.672309  0.900544  0  2.317029  0
Zn  Zn2  1  0.34754120  0.57110450  0.18503542  1  0  1.137107  0  1.741147  0  0  0.966142  0  2.20063  0  0  1.017832  0  2.136701  0  0  0.678234  0.929253  0  2.245769  0
Zn  Zn3  1  0.65246038  0.42889709  0.81496471  1  0  1.137107  0  1.741115  0  0  0.966156  0  2.200592  0  0  1.017845  0  2.136662  0  0  0.67824  0.929266  0  2.24573  0
H  H4  1  0.66760288  0.67438278  0.62125157  1  0  0.128235  0  0.914337  0  0  0.136727  0  0.975162  0  0  0.13964  0  0.971449  0  0  0.155118  0.134396  0  0.978153  0
H  H5  1  0.33239716  0.32561765  0.37874878  1  0  0.128257  0  0.914275  0  0  0.136745  0  0.97511  0  0  0.139659  0  0.971397  0  0  0.155129  0.134413  0  0.978101  0
H  H6  1  0.41878111  0.92058712  0.80686373  1  0  0.135889  0  0.916183  0  0  0.141869  0  0.980645  0  0  0.145019  0  0.976964  0  0  0.155064  0.139487  0  0.983401  0
H  H7  1  0.58121582  0.07941101  0.19313529  1  0  0.135875  0  0.916202  0  0  0.14186  0  0.980659  0  0  0.14501  0  0.976979  0  0  0.155069  0.139478  0  0.983416  0
H  H8  1  0.78341924  0.03835784  0.68564771  1  0  0.116865  0  0.95371  0  0  0.125319  0  1.016748  0  0  0.127501  0  1.016483  0  0  0.113616  0.123534  0  1.017493  0
H  H9  1  0.21657837  0.96164259  0.31435277  1  0  0.116875  0  0.953686  0  0  0.12532  0  1.016737  0  0  0.127503  0  1.016469  0  0  0.11361  0.123533  0  1.01748  0
H  H10  1  0.25035230  0.81735639  0.48454055  1  0  0.112003  0  0.960199  0  0  0.1207  0  1.023103  0  0  0.122323  0  1.024073  0  0  0.11141  0.119705  0  1.022022  0
H  H11  1  0.74964807  0.18264519  0.51546009  1  0  0.11198  0  0.96021  0  0  0.120675  0  1.023117  0  0  0.122299  0  1.024088  0  0  0.111398  0.119683  0  1.022038  0
H  H12  1  0.22099978  0.04193043  0.92102396  1  0  0.096967  0  0.997297  0  0  0.102943  0  1.068948  0  0  0.107017  0  1.065342  0  0  0.097126  0.099973  0  1.071675  0
H  H13  1  0.77899992  0.95806886  0.07897522  1  0  0.09698  0  0.99729  0  0  0.102954  0  1.068946  0  0  0.107031  0  1.065333  0  0  0.09713  0.099982  0  1.071673  0
H  H14  1  0.97891867  0.79221649  0.10955637  1  0  0.116746  0  0.951701  0  0  0.124742  0  1.013318  0  0  0.128486  0  1.011074  0  0  0.105805  0.121841  0  1.015484  0
H  H15  1  0.02108103  0.20778279  0.89044369  1  0  0.116738  0  0.951677  0  0  0.124739  0  1.013291  0  0  0.128484  0  1.011046  0  0  0.105814  0.121841  0  1.015458  0
H  H16  1  0.29797113  0.55068324  0.53735500  1  0  0.087119  0  0.979179  0  0  0.092872  0  1.050811  0  0  0.09665  0  1.048031  0  0  0.095649  0.090058  0  1.05315  0
H  H17  1  0.70202891  0.44931719  0.46264535  1  0  0.087119  0  0.979181  0  0  0.092873  0  1.050813  0  0  0.096651  0  1.048033  0  0  0.095646  0.09006  0  1.053151  0
H  H18  1  0.77667174  0.48272091  0.27775714  1  0  0.090278  0  0.977434  0  0  0.095815  0  1.050562  0  0  0.099627  0  1.047607  0  0  0.098453  0.092839  0  1.053214  0
H  H19  1  0.22332829  0.51727952  0.72224233  1  0  0.090296  0  0.977517  0  0  0.095825  0  1.050638  0  0  0.099636  0  1.047686  0  0  0.098467  0.09285  0  1.05329  0
H  H20  1  0.86250932  0.76366365  0.53235601  1  0  0.092822  0  0.974776  0  0  0.101262  0  1.040307  0  0  0.103785  0  1.039741  0  0  0.099042  0.099522  0  1.040449  0
H  H21  1  0.13749072  0.23633678  0.46764434  1  0  0.092839  0  0.974727  0  0  0.101277  0  1.040266  0  0  0.103792  0  1.03971  0  0  0.099055  0.099537  0  1.040408  0
H  H22  1  0.87284199  0.05932676  0.28343957  1  0  0.100754  0  0.969938  0  0  0.109256  0  1.034317  0  0  0.112392  0  1.032463  0  0  0.103754  0.106651  0  1.036619  0
H  H23  1  0.12715650  0.94067252  0.71656012  1  0  0.100737  0  0.969922  0  0  0.109246  0  1.034295  0  0  0.112383  0  1.032439  0  0  0.103742  0.106642  0  1.036599  0
H  H24  1  0.23115330  0.45953660  0.93218670  1  0  0.430963  0  0.872049  0  0  0.399169  0  0.938014  0  0  0.410295  0  0.921928  0  0  0.28072  0.3911  0  0.949741  0
H  H25  1  0.76884673  0.54046384  0.06781365  1  0  0.430969  0  0.872041  0  0  0.399175  0  0.938005  0  0  0.4103  0  0.92192  0  0  0.280719  0.391105  0  0.949733  0
C  C26  1  0.61278337  0.71187243  0.68760912  1  0  0.195278  0  3.587289  0  0  0.130509  0  3.855609  0  0  0.143995  0  3.866182  0  0  0.182529  0.121708  0  3.848369  0
C  C27  1  0.38721633  0.28812685  0.31239094  1  0  0.195176  0  3.587265  0  0  0.130409  0  3.855587  0  0  0.14389  0  3.866164  0  0  0.182485  0.121607  0  3.848346  0
C  C28  1  0.48144521  0.83675622  0.78083581  1  0  0.207957  0  3.54581  0  0  0.139201  0  3.817902  0  0  0.153313  0  3.828734  0  0  0.186744  0.129862  0  3.810646  0
C  C29  1  0.51855294  0.16324191  0.21916359  1  0  0.207922  0  3.545761  0  0  0.139162  0  3.81789  0  0  0.153274  0  3.82872  0  0  0.186697  0.129822  0  3.810634  0
C  C30  1  0.51857264  0.92080106  0.59271635  1  0  0.164591  0  3.752766  0  0  0.156665  0  4.003247  0  0  0.16037  0  4.025705  0  0  0.094559  0.153973  0  3.9883  0
C  C31  1  0.48142740  0.07919938  0.40728401  1  0  0.164522  0  3.752807  0  0  0.15661  0  4.003266  0  0  0.160315  0  4.025725  0  0  0.094572  0.153918  0  3.988318  0
C  C32  1  0.66072431  0.02100564  0.60331205  1  0  -0.093068  0  3.706065  0  0  -0.11626  0  3.959205  0  0  -0.117827  0  3.978448  0  0  -0.073886  -0.115425  0  3.946603  0
C  C33  1  0.33927572  0.97899479  0.39668831  1  0  -0.09306  0  3.706057  0  0  -0.11625  0  3.959192  0  0  -0.117817  0  3.978433  0  0  -0.073907  -0.115412  0  3.946583  0
C  C34  1  0.35824897  0.89838006  0.49107253  1  0  -0.09872  0  3.709666  0  0  -0.121478  0  3.960663  0  0  -0.123785  0  3.981363  0  0  -0.074023  -0.119785  0  3.946655  0
C  C35  1  0.64175073  0.10161922  0.50892665  1  0  -0.098669  0  3.709717  0  0  -0.121426  0  3.960707  0  0  -0.123736  0  3.981412  0  0  -0.074022  -0.119738  0  3.946707  0
C  C36  1  0.23457366  0.81038746  0.03815579  1  0  0.666172  0  3.890621  0  0  0.615022  0  4.180902  0  0  0.650424  0  4.17255  0  0  0.210585  0.590934  0  4.185636  0
C  C37  1  0.76542759  0.18961298  0.96184317  1  0  0.666283  0  3.890464  0  0  0.615126  0  4.180759  0  0  0.650526  0  4.172409  0  0  0.210624  0.591037  0  4.185497  0
C  C38  1  0.11218154  0.90733926  0.01705824  1  0  -0.065583  0  3.757413  0  0  -0.042918  0  3.989091  0  0  -0.049561  0  4.011127  0  0  -0.023184  -0.038453  0  3.974001  0
C  C39  1  0.88781849  0.09266118  0.98294034  1  0  -0.065607  0  3.757324  0  0  -0.042953  0  3.989041  0  0  -0.049598  0  4.011078  0  0  -0.023181  -0.038483  0  3.973943  0
C  C40  1  0.12313613  0.02325779  0.95460876  1  0  -0.093862  0  3.76103  0  0  -0.12089  0  4.016861  0  0  -0.122279  0  4.037265  0  0  -0.099441  -0.120105  0  4.003396  0
C  C41  1  0.87686323  0.97674034  0.04539013  1  0  -0.093852  0  3.761033  0  0  -0.120883  0  4.016868  0  0  -0.122272  0  4.037276  0  0  -0.099433  -0.120098  0  4.003399  0
C  C42  1  0.98794385  0.88415073  0.06260518  1  0  -0.074802  0  3.712944  0  0  -0.095671  0  3.962412  0  0  -0.096218  0  3.981403  0  0  -0.088597  -0.094734  0  3.949728  0
C  C43  1  0.01205585  0.11584856  0.93739224  1  0  -0.074742  0  3.712819  0  0  -0.09562  0  3.962306  0  0  -0.096166  0  3.981294  0  0  -0.088571  -0.094686  0  3.949624  0
C  C44  1  0.08577198  0.54266040  0.28333991  1  0  0.650868  0  3.908821  0  0  0.602235  0  4.200661  0  0  0.636432  0  4.192826  0  0  0.207054  0.579035  0  4.205177  0
C  C45  1  0.91423171  0.45734003  0.71666245  1  0  0.650949  0  3.908643  0  0  0.602299  0  4.200506  0  0  0.636493  0  4.192672  0  0  0.207077  0.579099  0  4.205025  0
C  C46  1  0.04207424  0.51999032  0.39559144  1  0  -0.068001  0  3.74253  0  0  -0.044657  0  3.972131  0  0  -0.051036  0  3.994303  0  0  -0.020251  -0.040278  0  3.956019  0
C  C47  1  0.95792734  0.48001126  0.60440958  1  0  -0.068014  0  3.742523  0  0  -0.044646  0  3.972095  0  0  -0.051024  0  3.994268  0  0  -0.020269  -0.04027  0  3.955989  0
C  C48  1  0.16748909  0.53008755  0.52194494  1  0  -0.091437  0  3.755941  0  0  -0.113338  0  4.011171  0  0  -0.11385  0  4.030236  0  0  -0.09559  -0.112723  0  3.997278  0
C  C49  1  0.83251095  0.46991288  0.47805541  1  0  -0.09144  0  3.755933  0  0  -0.113341  0  4.011159  0  0  -0.113855  0  4.030227  0  0  -0.095568  -0.112726  0  3.997267  0
C  C50  1  0.87401378  0.48928532  0.37504789  1  0  -0.068135  0  3.744032  0  0  -0.091702  0  3.995336  0  0  -0.093214  0  4.016868  0  0  -0.088785  -0.089889  0  3.979747  0
C  C51  1  0.12598748  0.51071511  0.62495284  1  0  -0.068199  0  3.744124  0  0  -0.09175  0  3.995404  0  0  -0.093263  0  4.016936  0  0  -0.088807  -0.089939  0  3.97982  0
C  C52  1  0.68660706  0.79585364  0.28521337  1  0  0.667389  0  3.86467  0  0  0.614687  0  4.155844  0  0  0.650318  0  4.147484  0  0  0.221429  0.590514  0  4.160702  0
C  C53  1  0.31339143  0.20414564  0.71478632  1  0  0.667302  0  3.864798  0  0  0.614624  0  4.155923  0  0  0.650257  0  4.147564  0  0  0.2214  0.590452  0  4.160783  0
C  C54  1  0.84905528  0.89997260  0.39619338  1  0  -0.059118  0  3.74037  0  0  -0.036587  0  3.970623  0  0  -0.043664  0  3.993099  0  0  -0.015051  -0.031508  0  3.955466  0
C  C55  1  0.15094354  0.10002783  0.60380660  1  0  -0.059097  0  3.740416  0  0  -0.036573  0  3.970656  0  0  -0.043651  0  3.993129  0  0  -0.015065  -0.031493  0  3.955502  0
C  C56  1  0.92260667  0.86774133  0.51882511  1  0  -0.069012  0  3.741635  0  0  -0.091046  0  3.989758  0  0  -0.091892  0  4.011174  0  0  -0.084051  -0.090494  0  3.974856  0
C  C57  1  0.07739249  0.13226025  0.48117603  1  0  -0.069025  0  3.741569  0  0  -0.091058  0  3.989699  0  0  -0.091898  0  4.011117  0  0  -0.084064  -0.090511  0  3.974797  0
C  C58  1  0.92841037  0.03324285  0.37839622  1  0  -0.079845  0  3.722091  0  0  -0.102254  0  3.970543  0  0  -0.103239  0  3.990654  0  0  -0.085347  -0.102002  0  3.957381  0
C  C59  1  0.07158723  0.96675758  0.62160427  1  0  -0.079853  0  3.722116  0  0  -0.102271  0  3.970575  0  0  -0.103256  0  3.990688  0  0  -0.085344  -0.102024  0  3.957418  0
N  N60  1  0.60055951  0.64745047  0.77846530  1  0  -0.230635  0  3.148906  0  0  -0.177837  0  3.434789  0  0  -0.192506  0  3.450953  0  0  -0.213312  -0.168017  0  3.423918  0
N  N61  1  0.39944020  0.35254881  0.22153476  1  0  -0.230635  0  3.148903  0  0  -0.177822  0  3.434793  0  0  -0.19249  0  3.450956  0  0  -0.213304  -0.168001  0  3.42392  0
N  N62  1  0.51894013  0.72625593  0.83732127  1  0  -0.25023  0  3.211505  0  0  -0.183097  0  3.505875  0  0  -0.199737  0  3.520498  0  0  -0.227037  -0.171859  0  3.495999  0
N  N63  1  0.48105924  0.27374220  0.16267850  1  0  -0.250229  0  3.211485  0  0  -0.183133  0  3.5059  0  0  -0.199775  0  3.520523  0  0  -0.227029  -0.171898  0  3.496026  0
N  N64  1  0.53931068  0.83125020  0.68585735  1  0  -0.117643  0  3.565978  0  0  -0.02908  0  3.789943  0  0  -0.045506  0  3.813284  0  0  -0.205818  -0.018218  0  3.774179  0
N  N65  1  0.46068814  0.16875023  0.31414263  1  0  -0.117458  0  3.565826  0  0  -0.028891  0  3.789774  0  0  -0.045317  0  3.813115  0  0  -0.205759  -0.01803  0  3.774008  0
O  O66  1  0.34788149  0.48300323  0.00397684  1  0  -0.991223  0  1.907498  0  0  -0.884948  0  2.203749  0  0  -0.91951  0  2.162928  0  0  -0.567893  -0.860357  0  2.232118  0
O  O67  1  0.65211821  0.51699605  0.99602410  1  0  -0.991219  0  1.907479  0  0  -0.884943  0  2.20373  0  0  -0.919503  0  2.16291  0  0  -0.567888  -0.860348  0  2.232097  0
O  O68  1  0.30783902  0.79796832  0.96168237  1  0  -0.651529  0  2.027694  0  0  -0.589195  0  2.290053  0  0  -0.617403  0  2.278209  0  0  -0.32446  -0.569367  0  2.297436  0
O  O69  1  0.69216289  0.20203442  0.03831717  1  0  -0.651573  0  2.027652  0  0  -0.589221  0  2.289982  0  0  -0.617428  0  2.278138  0  0  -0.324464  -0.569393  0  2.297368  0
O  O70  1  0.25804785  0.75116182  0.13430259  1  0  -0.648455  0  2.11535  0  0  -0.581565  0  2.390015  0  0  -0.609793  0  2.375838  0  0  -0.314339  -0.56138  0  2.399329  0
O  O71  1  0.74195373  0.24883977  0.86569754  1  0  -0.648504  0  2.115299  0  0  -0.581605  0  2.389958  0  0  -0.609833  0  2.375781  0  0  -0.314359  -0.56142  0  2.399276  0
O  O72  1  0.24210698  0.55196965  0.30944373  1  0  -0.678111  0  2.077324  0  0  -0.605944  0  2.352475  0  0  -0.636358  0  2.338181  0  0  -0.332519  -0.584443  0  2.361749  0
O  O73  1  0.75789582  0.44803194  0.69055678  1  0  -0.678187  0  2.077156  0  0  -0.606044  0  2.352348  0  0  -0.636455  0  2.338046  0  0  -0.33257  -0.584542  0  2.361624  0
O  O74  1  0.97550916  0.55165935  0.17695098  1  0  -0.600997  0  1.956456  0  0  -0.549734  0  2.178729  0  0  -0.572709  0  2.168021  0  0  -0.311483  -0.534024  0  2.186511  0
O  O75  1  0.02449121  0.44834224  0.82304966  1  0  -0.600983  0  1.9565  0  0  -0.549708  0  2.178776  0  0  -0.572681  0  2.168069  0  0  -0.311455  -0.533996  0  2.186557  0
O  O76  1  0.59945764  0.69347135  0.31046471  1  0  -0.626795  0  2.018139  0  0  -0.56165  0  2.281174  0  0  -0.589116  0  2.267875  0  0  -0.308943  -0.54273  0  2.290122  0
O  O77  1  0.40054240  0.30652908  0.68953564  1  0  -0.626754  0  2.01815  0  0  -0.561635  0  2.281197  0  0  -0.589103  0  2.267897  0  0  -0.308943  -0.542712  0  2.290141  0
O  O78  1  0.64797760  0.82049277  0.17089751  1  0  -0.643629  0  2.103244  0  0  -0.569046  0  2.372701  0  0  -0.596927  0  2.356791  0  0  -0.315211  -0.549168  0  2.382603  0
O  O79  1  0.35202243  0.17950766  0.82910284  1  0  -0.643595  0  2.10327  0  0  -0.568996  0  2.372681  0  0  -0.596875  0  2.356765  0  0  -0.315171  -0.549124  0  2.382587  0
