# generated using pymatgen
data_Co2H32C52N10O9
_symmetry_space_group_name_H-M   'P 1'
_cell_length_a   11.88045531
_cell_length_b   15.46413420
_cell_length_c   16.51524144
_cell_angle_alpha   98.03934083
_cell_angle_beta   110.11882390
_cell_angle_gamma   113.48721375
_symmetry_Int_Tables_number   1
_chemical_formula_structural   Co2H32C52N10O9
_chemical_formula_sum   'Co4 H64 C104 N20 O18'
_cell_volume   2474.21035543
_cell_formula_units_Z   2
loop_
 _symmetry_equiv_pos_site_id
 _symmetry_equiv_pos_as_xyz
  1  'x, y, z'
loop_
 _atom_site_type_symbol
 _atom_site_label
 _atom_site_symmetry_multiplicity
 _atom_site_fract_x
 _atom_site_fract_y
 _atom_site_fract_z
 _atom_site_occupancy
 _atom_site_pbe_bader_charge
 _atom_site_pbe_bader_spin_density
 _atom_site_pbe_cm5_charge
 _atom_site_pbe_ddec_charge
 _atom_site_pbe_ddec_spin_density
 _atom_site_pbe_ddec_sum_bond_order
 _atom_site_pbe_magmom
Co  Co0  1  0.50000112  0.50000020  0.00000068  1  1.256651  2.557461  0.673165  0.734943  2.78934  2.611114  2.542
Co  Co1  1  0.49999675  0.99999820  0.49999888  1  1.114013  1.000456  0.682892  0.56183  1.080166  2.965189  0.992
Co  Co2  1  0.00000324  0.49999979  0.99999844  1  1.333521  2.648686  0.683799  0.925577  2.890507  2.51679  2.633
Co  Co3  1  0.99999997  0.99999940  0.50000011  1  1.333391  2.648838  0.673294  0.929074  2.889281  2.505803  2.634
H  H4  1  0.27642719  0.29711819  0.97912443  1  0.096587  0.001595  0.11864  0.088128  0.000416  1.023446  0.001
H  H5  1  0.48987320  0.19070048  0.52016994  1  0.127393  6.1e-05  0.123531  0.095185  -0.00014  1.032619  0.0
H  H6  1  0.72357567  0.70288389  0.02087776  1  0.096597  0.001595  0.118606  0.088088  0.000416  1.023399  0.001
H  H7  1  0.51012784  0.80930265  0.47984042  1  0.127387  6.1e-05  0.123549  0.095172  -0.00014  1.032691  0.0
H  H8  1  0.22995368  0.12256237  0.95045504  1  0.052613  0.000952  0.106664  0.108621  0.000448  1.005394  0.0
H  H9  1  0.64669681  0.36612499  0.54990625  1  0.07101  1.9e-05  0.109456  0.113733  3.1e-05  0.998262  0.0
H  H10  1  0.77005176  0.87744073  0.04955394  1  0.052659  0.000952  0.106659  0.108574  0.000448  1.005395  0.0
H  H11  1  0.35330147  0.63387410  0.45009513  1  0.071022  1.9e-05  0.10947  0.113752  3.1e-05  0.998239  0.0
H  H12  1  0.58836510  0.21057814  0.90037918  1  0.094116  0.000595  0.107557  0.114973  0.000216  1.024682  0.0
H  H13  1  0.96718307  0.28498222  0.59331714  1  0.101415  -7.7e-05  0.109285  0.116368  -0.000115  1.024246  0.0
H  H14  1  0.41162976  0.78941997  0.09961643  1  0.094227  0.000595  0.107563  0.115  0.000216  1.024738  0.0
H  H15  1  0.03281417  0.71501531  0.40668200  1  0.101345  -7.7e-05  0.109277  0.116396  -0.000115  1.02428  0.0
H  H16  1  0.62168205  0.38047090  0.93512229  1  0.13336  0.001281  0.119724  0.094603  0.000111  1.054112  0.001
H  H17  1  0.79627272  0.11362216  0.55836006  1  0.15573  0.00014  0.124438  0.104024  -0.000179  1.059556  0.0
H  H18  1  0.37831608  0.61952807  0.06487601  1  0.133351  0.00128  0.119736  0.094634  0.000111  1.054195  0.001
H  H19  1  0.20372166  0.88637521  0.44163536  1  0.155967  0.00014  0.124436  0.104037  -0.000179  1.059569  0.0
H  H20  1  0.49653214  0.88773845  0.76891066  1  0.104529  -9e-05  0.10688  0.117693  -3.1e-05  0.998571  0.0
H  H21  1  0.33138935  0.61383460  0.72270957  1  0.079917  0.000895  0.104775  0.114752  0.000412  1.004946  0.0
H  H22  1  0.50347817  0.11226966  0.23109458  1  0.104699  -9e-05  0.106884  0.117693  -3.1e-05  0.998601  0.0
H  H23  1  0.66861790  0.38616600  0.27729168  1  0.079836  0.000895  0.104781  0.114778  0.000412  1.004838  0.0
H  H24  1  0.54930676  0.90500579  0.63663529  1  0.137066  -6.6e-05  0.115818  0.08618  -0.000233  1.062943  0.0
H  H25  1  0.49858235  0.59743631  0.85290297  1  0.113233  0.001332  0.111772  0.079314  0.000239  1.046432  0.001
H  H26  1  0.45069423  0.09499622  0.36336524  1  0.137041  -6.6e-05  0.115865  0.086273  -0.000233  1.063008  0.0
H  H27  1  0.50142045  0.40256284  0.14709949  1  0.113243  0.001331  0.111733  0.079285  0.000239  1.046444  0.001
H  H28  1  0.43642047  0.12479981  0.61358123  1  0.125311  0.00013  0.127858  0.100478  -6.7e-05  0.998946  0.0
H  H29  1  0.18867293  0.36778456  0.87398193  1  0.108638  0.001418  0.12446  0.098018  0.000444  0.98596  0.001
H  H30  1  0.56356009  0.87518996  0.38640946  1  0.125494  0.00013  0.127872  0.100554  -6.7e-05  0.998996  0.0
H  H31  1  0.81132507  0.63221826  0.12602101  1  0.108629  0.001419  0.124447  0.097979  0.000444  0.985917  0.001
H  H32  1  0.38764203  0.12210221  0.74520315  1  0.111571  0.000139  0.115787  0.134915  8.3e-05  0.995722  0.0
H  H33  1  0.01040449  0.37379908  0.74807963  1  0.106184  0.000955  0.113224  0.130959  0.000422  0.999813  0.0
H  H34  1  0.61234508  0.87789503  0.25478992  1  0.111319  0.000139  0.115781  0.134909  8.3e-05  0.995751  0.0
H  H35  1  0.98959528  0.62620517  0.25192207  1  0.106165  0.000955  0.11321  0.130936  0.000422  0.999872  0.0
H  H36  1  0.21035055  0.88138754  0.04914751  1  0.054514  0.001039  0.104731  0.106788  0.000492  1.005019  0.0
H  H37  1  0.77419709  0.61313449  0.44710374  1  0.048687  0.00095  0.103532  0.107105  0.000458  1.006148  0.0
H  H38  1  0.78964856  0.11861582  0.95085030  1  0.054732  0.001039  0.104701  0.106809  0.000492  1.005041  0.0
H  H39  1  0.22579644  0.38686832  0.55289936  1  0.048617  0.00095  0.103545  0.107113  0.000458  1.006124  0.0
H  H40  1  0.09070687  0.72412608  0.07774007  1  0.121852  0.001461  0.125846  0.105803  0.000302  0.972174  0.001
H  H41  1  0.78547035  0.77023002  0.42124843  1  0.129862  0.001311  0.12471  0.104872  0.000235  0.974878  0.001
H  H42  1  0.90929431  0.27587500  0.92225555  1  0.121826  0.001462  0.125817  0.105754  0.000302  0.97213  0.001
H  H43  1  0.21452508  0.22977288  0.57875694  1  0.130295  0.00131  0.124687  0.104868  0.000234  0.974836  0.001
H  H44  1  0.10725885  0.55580612  0.86940106  1  0.132742  0.001456  0.114915  0.085104  0.0004  1.04342  0.001
H  H45  1  0.17441809  0.94067417  0.63072328  1  0.116205  0.001357  0.113684  0.083611  0.000385  1.042267  0.001
H  H46  1  0.89275471  0.44419742  0.13059959  1  0.132708  0.001456  0.114905  0.085133  0.0004  1.043444  0.001
H  H47  1  0.82558231  0.05932412  0.36927610  1  0.116199  0.001357  0.113671  0.083614  0.000385  1.042219  0.001
H  H48  1  0.22920419  0.70590381  0.83006018  1  0.122754  0.000744  0.107616  0.119511  0.000338  1.030772  0.0
H  H49  1  0.18353057  0.79104260  0.66715711  1  0.12326  0.000685  0.106961  0.119572  0.000324  1.030071  0.0
H  H50  1  0.77080729  0.29410489  0.16994116  1  0.122925  0.000744  0.107622  0.119554  0.000338  1.030781  0.0
H  H51  1  0.81646601  0.20895403  0.33283814  1  0.123483  0.000685  0.106978  0.119642  0.000324  1.030099  0.0
H  H52  1  0.15799232  0.49621076  0.31071128  1  0.061219  7.4e-05  0.092033  0.083107  -7e-06  1.07914  0.0
H  H53  1  0.84903132  0.00354880  0.18783596  1  0.019514  8.8e-05  0.091884  0.08316  -1.2e-05  1.07963  0.0
H  H54  1  0.84200345  0.50378018  0.68928861  1  0.060763  7.4e-05  0.091993  0.083045  -7e-06  1.079128  0.0
H  H55  1  0.15096691  0.99645744  0.81216075  1  0.019575  8.8e-05  0.091858  0.08311  -1.2e-05  1.079668  0.0
H  H56  1  0.18239071  0.34930813  0.34014886  1  0.05382  -7.2e-05  0.095673  0.106499  -0.000112  1.038331  0.0
H  H57  1  0.99468592  0.15282076  0.15952607  1  0.063894  -5.1e-05  0.094869  0.105359  -8.3e-05  1.03491  0.0
H  H58  1  0.81760676  0.65068274  0.65984899  1  0.053479  -7.2e-05  0.095705  0.106521  -0.000112  1.038266  0.0
H  H59  1  0.00532249  0.84718185  0.84047022  1  0.063903  -5.1e-05  0.094918  0.105424  -8.3e-05  1.034901  0.0
H  H60  1  0.28614223  0.31746979  0.11724659  1  0.059972  4e-05  0.103276  0.112962  -4.8e-05  1.033856  0.0
H  H61  1  0.34833543  0.18512017  0.37956788  1  0.018518  -1.9e-05  0.102626  0.113281  -6.7e-05  1.026888  0.0
H  H62  1  0.71385307  0.68252328  0.88275160  1  0.059959  4e-05  0.103268  0.112981  -4.8e-05  1.033869  0.0
H  H63  1  0.65166415  0.81487817  0.62043312  1  0.018549  -1.9e-05  0.102646  0.113308  -6.7e-05  1.026829  0.0
H  H64  1  0.30529808  0.01056836  0.00141015  1  0.480844  0.000191  0.339631  0.295648  2.7e-05  0.9032  0.0
H  H65  1  0.78405680  0.48200554  0.49589161  1  0.465678  0.0001  0.339245  0.296118  -5.3e-05  0.902093  0.0
H  H66  1  0.69470510  0.98943289  0.99858960  1  0.480836  0.000191  0.339631  0.295661  2.7e-05  0.90312  0.0
H  H67  1  0.21594081  0.51799373  0.50411448  1  0.465638  0.0001  0.339209  0.296104  -5.3e-05  0.902104  0.0
C  C68  1  0.34453420  0.27501233  0.96325619  1  0.527594  -0.008448  0.047593  0.103131  -0.008928  3.957719  -0.005
C  C69  1  0.59645496  0.21470388  0.53618824  1  0.45526  -0.004909  0.048945  0.087607  -0.005133  3.931956  -0.003
C  C70  1  0.65546731  0.72498902  0.03674621  1  0.527628  -0.008448  0.047659  0.103248  -0.008929  3.957605  -0.005
C  C71  1  0.40354346  0.78529675  0.46381516  1  0.455393  -0.004909  0.048958  0.087567  -0.005133  3.931958  -0.003
C  C72  1  0.32071117  0.17760040  0.94849162  1  -0.007495  0.003589  -0.087557  -0.174003  0.001473  3.963938  0.003
C  C73  1  0.68533162  0.31289026  0.55096001  1  -0.011887  -0.001776  -0.085785  -0.171009  -0.001957  3.958536  -0.001
C  C74  1  0.67929463  0.82240334  0.05151509  1  -0.007789  0.003589  -0.087539  -0.173933  0.001473  3.963874  0.003
C  C75  1  0.31466858  0.68711038  0.44904321  1  -0.012052  -0.001776  -0.085825  -0.170993  -0.001957  3.958435  -0.001
C  C76  1  0.40798391  0.15060937  0.92498936  1  -0.046049  -0.012984  0.002546  0.076945  -0.013782  4.057257  -0.008
C  C77  1  0.82328716  0.34294840  0.57214628  1  0.004281  -0.006827  0.006159  0.08001  -0.007234  4.040901  -0.004
C  C78  1  0.59201951  0.84939208  0.07501531  1  -0.04576  -0.012982  0.002568  0.076967  -0.01378  4.057302  -0.008
C  C79  1  0.17671252  0.65705147  0.42785613  1  0.004175  -0.006828  0.006141  0.079994  -0.007235  4.040744  -0.004
C  C80  1  0.51645117  0.22564287  0.91818668  1  0.014615  0.003418  -0.080617  -0.159915  0.001259  3.946885  0.003
C  C81  1  0.86257051  0.26869699  0.57722398  1  -0.042374  -0.000467  -0.076106  -0.151245  -0.00087  3.935457  0.0
C  C82  1  0.48354747  0.77435687  0.08181243  1  0.014467  0.003418  -0.080652  -0.16001  0.001259  3.947016  0.003
C  C83  1  0.13742448  0.73129979  0.42277516  1  -0.042282  -0.000467  -0.076115  -0.151355  -0.00087  3.935484  0.0
C  C84  1  0.53444415  0.32154514  0.93633381  1  0.476786  -0.008606  0.049518  0.109126  -0.009311  3.907806  -0.005
C  C85  1  0.76696838  0.17158119  0.55941769  1  0.476571  -0.005577  0.050196  0.09515  -0.005889  3.868482  -0.003
C  C86  1  0.46555260  0.67845307  0.06366408  1  0.476724  -0.008605  0.049507  0.109138  -0.00931  3.907887  -0.005
C  C87  1  0.23302432  0.82841482  0.44058082  1  0.47644  -0.005578  0.050322  0.09532  -0.00589  3.868207  -0.003
C  C88  1  0.38325591  0.04857343  0.90613597  1  0.375925  -0.005099  0.094541  0.074149  -0.005324  3.982488  -0.002
C  C89  1  0.91910540  0.44605268  0.58972120  1  0.38432  -0.006748  0.094699  0.074223  -0.007035  3.960307  -0.004
C  C90  1  0.61674276  0.95142778  0.09386332  1  0.375579  -0.005099  0.094555  0.074187  -0.005323  3.98248  -0.002
C  C91  1  0.08089239  0.55394709  0.41027893  1  0.384404  -0.006748  0.094709  0.074254  -0.007035  3.96023  -0.004
C  C92  1  0.30181194  0.89335833  0.91302502  1  0.975247  -0.002027  0.21499  0.280204  -0.002207  4.053165  0.0
C  C93  1  0.98563173  0.60156499  0.58276281  1  0.963484  -0.001703  0.216049  0.281162  -0.001857  4.03901  0.0
C  C94  1  0.69818946  0.10664437  0.08697448  1  0.975325  -0.002026  0.214897  0.280037  -0.002206  4.053147  0.0
C  C95  1  0.01436649  0.39843405  0.41723734  1  0.963979  -0.001704  0.216097  0.281173  -0.001857  4.038985  0.0
C  C96  1  0.39607643  0.98669604  0.84291355  1  0.401963  -0.002389  0.090067  0.073796  -0.002581  4.015062  -0.001
C  C97  1  0.05711030  0.50991248  0.65139608  1  0.426669  -3.1e-05  0.089404  0.073427  -0.000517  4.012617  0.001
C  C98  1  0.60393184  0.01330755  0.15708888  1  0.401948  -0.002389  0.089975  0.073673  -0.002581  4.015192  -0.001
C  C99  1  0.94289180  0.49008719  0.34860082  1  0.426652  -3.1e-05  0.089433  0.073449  -0.000517  4.012698  0.001
C  C100  1  0.43884320  0.00433017  0.77083936  1  0.029853  -0.007152  0.00749  0.088794  -0.007499  4.017304  -0.004
C  C101  1  0.15494386  0.49368058  0.72180615  1  -0.03718  -0.008296  0.006327  0.088493  -0.00874  4.01478  -0.005
C  C102  1  0.56115494  0.99567025  0.22915850  1  0.029914  -0.007151  0.00753  0.088886  -0.007498  4.017218  -0.004
C  C103  1  0.84505852  0.50632218  0.27819479  1  -0.036845  -0.008295  0.006315  0.088532  -0.008739  4.014789  -0.005
C  C104  1  0.48514052  0.94309793  0.73761004  1  -0.052065  0.00107  -0.08843  -0.174725  0.000194  3.964726  0.001
C  C105  1  0.29588618  0.55690450  0.75344775  1  0.007974  0.004787  -0.092041  -0.182843  0.002295  3.962286  0.004
C  C106  1  0.51486558  0.05690786  0.26239273  1  -0.052493  0.001069  -0.088431  -0.17475  0.000194  3.964746  0.001
C  C107  1  0.70411833  0.44309603  0.24655224  1  0.007718  0.004786  -0.092121  -0.183002  0.002295  3.962184  0.004
C  C108  1  0.51137528  0.95018297  0.66276332  1  0.443055  -0.006082  0.039977  0.082805  -0.006529  3.93396  -0.004
C  C109  1  0.38908544  0.54932821  0.82662340  1  0.468333  -0.004695  0.041297  0.095315  -0.005531  3.956614  -0.003
C  C110  1  0.48862568  0.04981901  0.33723659  1  0.443239  -0.00608  0.039904  0.082694  -0.006527  3.934181  -0.004
C  C111  1  0.61091603  0.45067166  0.17337883  1  0.468312  -0.004695  0.041351  0.095361  -0.005531  3.956486  -0.003
C  C112  1  0.45216654  0.07474300  0.65051893  1  0.502655  -0.005674  0.062583  0.120658  -0.006097  3.880125  -0.004
C  C113  1  0.21738550  0.42081420  0.83855610  1  0.513472  -0.004046  0.062423  0.133305  -0.004676  3.904189  -0.002
C  C114  1  0.54782282  0.92525211  0.34947566  1  0.501943  -0.005674  0.062513  0.120606  -0.006097  3.880194  -0.004
C  C115  1  0.78261517  0.57918718  0.16144732  1  0.513374  -0.004045  0.062456  0.133408  -0.004675  3.904155  -0.002
C  C116  1  0.42577490  0.07309656  0.72616925  1  -0.04509  0.000404  -0.074648  -0.15927  -0.000212  3.902336  0.001
C  C117  1  0.11689648  0.42334917  0.76577347  1  0.001323  0.004859  -0.077521  -0.163994  0.002358  3.90502  0.004
C  C118  1  0.57421636  0.92690153  0.27382612  1  -0.044828  0.000404  -0.074624  -0.159306  -0.000212  3.902355  0.001
C  C119  1  0.88310505  0.57665362  0.23422849  1  0.001219  0.004858  -0.077498  -0.164009  0.002357  3.905141  0.004
C  C120  1  0.23131156  0.80692042  0.93629446  1  -0.023858  -0.014356  0.003788  0.039815  -0.015294  4.046181  -0.009
C  C121  1  0.97975598  0.68814424  0.56056798  1  0.030752  -0.015751  0.001963  0.036239  -0.016777  4.037955  -0.01
C  C122  1  0.76869160  0.19308226  0.06370424  1  -0.023942  -0.014357  0.003749  0.039859  -0.015295  4.046258  -0.009
C  C123  1  0.02024086  0.31185404  0.43943176  1  0.031133  -0.015752  0.001907  0.0363  -0.016777  4.037843  -0.01
C  C124  1  0.18953478  0.81128191  0.00615909  1  -0.041488  0.004337  -0.091589  -0.188544  0.001827  3.98274  0.004
C  C125  1  0.86594654  0.68361552  0.49111101  1  -0.057247  0.004241  -0.093821  -0.191871  0.001672  3.978536  0.004
C  C126  1  0.81046744  0.18872073  0.99383877  1  -0.04169  0.004338  -0.091562  -0.188672  0.001828  3.982899  0.004
C  C127  1  0.13404821  0.31638359  0.50889135  1  -0.05747  0.00424  -0.093825  -0.191869  0.001672  3.97864  0.004
C  C128  1  0.12153505  0.72389185  0.02270601  1  0.518285  -0.008294  0.052158  0.1041  -0.009047  3.936979  -0.005
C  C129  1  0.87018019  0.77118395  0.47605383  1  0.497237  -0.009039  0.052329  0.103972  -0.009691  3.934138  -0.005
C  C130  1  0.87846579  0.27611003  0.97729144  1  0.518235  -0.008294  0.052213  0.104241  -0.009047  3.936755  -0.005
C  C131  1  0.12981865  0.22881884  0.52394809  1  0.496945  -0.009039  0.052315  0.103889  -0.00969  3.934178  -0.005
C  C132  1  0.13240205  0.62986494  0.90658230  1  0.474203  -0.008757  0.049867  0.106456  -0.009222  3.931305  -0.005
C  C133  1  0.08836052  0.86618612  0.59248970  1  0.497498  -0.008896  0.047163  0.100026  -0.009263  3.936107  -0.005
C  C134  1  0.86760568  0.37013928  0.09341765  1  0.473756  -0.008759  0.049799  0.106271  -0.009223  3.931259  -0.005
C  C135  1  0.91163907  0.13381510  0.40750981  1  0.497455  -0.008896  0.047162  0.09998  -0.009263  3.936075  -0.005
C  C136  1  0.20067428  0.71296214  0.88564936  1  -0.017872  0.003996  -0.079904  -0.149043  0.001534  3.912368  0.004
C  C137  1  0.09329746  0.78302959  0.61194439  1  -0.050527  0.003359  -0.080156  -0.149377  0.001167  3.909763  0.003
C  C138  1  0.79933430  0.28704062  0.11435063  1  -0.017932  0.003997  -0.07982  -0.148996  0.001534  3.912452  0.004
C  C139  1  0.90669983  0.21696941  0.38805493  1  -0.050841  0.003358  -0.080166  -0.149481  0.001167  3.909794  0.003
C  C140  1  0.20391837  0.58679601  0.19113682  1  1.619077  0.004847  0.199206  0.580784  0.003358  4.229097  0.003
C  C141  1  0.92036677  0.91234840  0.30681211  1  1.617383  0.004334  0.195152  0.577465  0.003073  4.238317  0.003
C  C142  1  0.79608278  0.41319642  0.80886268  1  1.618454  0.004856  0.199221  0.580877  0.003359  4.228955  0.003
C  C143  1  0.07963037  0.08765048  0.69318413  1  1.617387  0.004333  0.195111  0.577321  0.003072  4.238361  0.003
C  C144  1  0.20650021  0.49032280  0.19722574  1  -0.024775  0.000708  -0.013182  -0.052284  -0.00041  3.936554  0.001
C  C145  1  0.01404997  0.00958745  0.29989807  1  -0.007698  0.000323  -0.013674  -0.054203  -0.000565  3.940481  0.0
C  C146  1  0.79349832  0.50966965  0.80277496  1  -0.024825  0.000709  -0.013246  -0.052371  -0.00041  3.936684  0.001
C  C147  1  0.98594739  0.99041593  0.70010054  1  -0.007822  0.000323  -0.013722  -0.05415  -0.000565  3.940507  0.0
C  C148  1  0.18580102  0.45666274  0.26804321  1  -0.031611  0.000803  -0.096793  -0.090283  0.000453  4.0137  0.001
C  C149  1  0.95873895  0.04369657  0.23011433  1  0.009909  0.000735  -0.098042  -0.09246  0.000434  4.013611  0.001
C  C150  1  0.81419709  0.54333045  0.73195747  1  -0.03117  0.000803  -0.096669  -0.090027  0.000453  4.013582  0.001
C  C151  1  0.04126065  0.95630898  0.76988323  1  0.010003  0.000735  -0.098014  -0.092388  0.000434  4.013682  0.001
C  C152  1  0.19988583  0.37500447  0.28521274  1  -0.014736  -0.000713  -0.110672  -0.202157  -0.000772  4.009037  0.0
C  C153  1  0.03949851  0.12677484  0.21365592  1  -0.078196  -0.001062  -0.111163  -0.203672  -0.00113  4.007248  -0.001
C  C154  1  0.80011360  0.62498943  0.71478713  1  -0.014341  -0.000713  -0.110766  -0.202393  -0.000771  4.008977  0.0
C  C155  1  0.96050640  0.87322781  0.78634197  1  -0.078012  -0.001063  -0.111214  -0.203809  -0.00113  4.007228  -0.001
C  C156  1  0.23914539  0.32672408  0.23100467  1  0.379801  0.00049  0.069406  0.247916  0.000254  4.093643  0.0
C  C157  1  0.18090331  0.17611991  0.26748298  1  0.458484  0.000555  0.069129  0.248509  0.000291  4.092157  0.0
C  C158  1  0.76085683  0.67327281  0.76899619  1  0.380398  0.00049  0.069364  0.247963  0.000254  4.093545  0.0
C  C159  1  0.81910017  0.82388051  0.73251433  1  0.458444  0.000555  0.069206  0.248624  0.000291  4.091951  0.0
C  C160  1  0.25749399  0.35710566  0.15934365  1  0.034676  -0.000656  -0.102571  -0.218006  -0.000694  3.992088  0.0
C  C161  1  0.23806199  0.14511150  0.33804271  1  0.006029  -0.000926  -0.104173  -0.220348  -0.000979  3.99113  -0.001
C  C162  1  0.74250543  0.64288823  0.84065621  1  0.034077  -0.000656  -0.102471  -0.217934  -0.000694  3.992107  0.0
C  C163  1  0.76193766  0.85488977  0.66195803  1  0.00601  -0.000927  -0.104206  -0.220394  -0.00098  3.991026  -0.001
C  C164  1  0.23919555  0.43744472  0.14091700  1  -0.014498  0.006192  -0.015564  -0.040308  0.00271  3.980987  0.005
C  C165  1  0.15542465  0.06333465  0.35565175  1  0.011743  0.00579  -0.015457  -0.036625  0.00256  3.987734  0.005
C  C166  1  0.76080494  0.56255076  0.85908572  1  -0.014294  0.006193  -0.015544  -0.040297  0.00271  3.981066  0.005
C  C167  1  0.84457262  0.93666577  0.64434651  1  0.011564  0.00579  -0.015406  -0.036571  0.00256  3.98741  0.005
C  C168  1  0.25711939  0.46309886  0.06055382  1  1.573155  -0.00209  0.217447  0.584533  -0.002758  4.171525  0.0
C  C169  1  0.22508003  0.03521999  0.43337310  1  1.558753  0.000228  0.213262  0.577471  -0.000484  4.19041  0.002
C  C170  1  0.74288444  0.53690040  0.93945132  1  1.572727  -0.002084  0.217452  0.58453  -0.002757  4.171413  0.0
C  C171  1  0.77491523  0.96477736  0.56662192  1  1.558629  0.00023  0.213198  0.577358  -0.000483  4.190376  0.002
N  N172  1  0.45096517  0.34759964  0.95907550  1  -1.210009  0.049101  -0.31876  -0.236305  0.026077  3.552707  0.047
N  N173  1  0.63407166  0.14296562  0.53848601  1  -1.174777  -0.008811  -0.32064  -0.175266  -0.008189  3.587689  -0.006
N  N174  1  0.54903762  0.65240094  0.04092591  1  -1.20992  0.049102  -0.318776  -0.236378  0.026079  3.552781  0.047
N  N175  1  0.36592249  0.85703264  0.46151370  1  -1.174983  -0.00881  -0.320756  -0.175363  -0.008188  3.587525  -0.006
N  N176  1  0.32405787  0.98733032  0.94931881  1  -1.25014  -0.005321  -0.376374  -0.299508  -0.005491  3.644322  -0.004
N  N177  1  0.87771710  0.50645906  0.54741688  1  -1.230168  -0.005701  -0.375395  -0.30159  -0.005841  3.632243  -0.004
N  N178  1  0.67594634  0.01267249  0.05068318  1  -1.25012  -0.00532  -0.376301  -0.299458  -0.005491  3.644224  -0.004
N  N179  1  0.12228071  0.49353928  0.45258430  1  -1.22995  -0.005701  -0.375384  -0.3016  -0.00584  3.632148  -0.004
N  N180  1  0.34629591  0.89208457  0.84921023  1  -1.150251  -0.004577  -0.328096  -0.380381  -0.004497  3.22213  -0.003
N  N181  1  0.09513643  0.60431423  0.64518604  1  -1.153103  -0.005426  -0.3267  -0.378091  -0.00549  3.223365  -0.004
N  N182  1  0.65370648  0.10791964  0.15079028  1  -1.149767  -0.004577  -0.328068  -0.380293  -0.004497  3.222136  -0.003
N  N183  1  0.90486677  0.39568705  0.35481433  1  -1.153738  -0.005425  -0.326694  -0.378091  -0.005489  3.22341  -0.004
N  N184  1  0.49181833  0.01318590  0.61718575  1  -1.176928  -0.010028  -0.327823  -0.179116  -0.009547  3.60992  -0.007
N  N185  1  0.35166291  0.48374459  0.87045286  1  -1.24286  0.061214  -0.318107  -0.237125  0.033207  3.531304  0.052
N  N186  1  0.50817288  0.98681071  0.38280944  1  -1.176572  -0.010027  -0.327776  -0.179135  -0.009546  3.609929  -0.007
N  N187  1  0.64833821  0.51625752  0.12955013  1  -1.242664  0.061215  -0.318107  -0.237112  0.033207  3.531195  0.052
N  N188  1  0.09278227  0.63421858  0.97372793  1  -1.221973  0.055806  -0.321495  -0.245974  0.030671  3.556427  0.048
N  N189  1  0.97915962  0.86176774  0.52599889  1  -1.216451  0.051816  -0.31192  -0.240861  0.028245  3.51949  0.046
N  N190  1  0.90722581  0.36578341  0.02627125  1  -1.221553  0.05581  -0.321485  -0.245889  0.030672  3.55614  0.048
N  N191  1  0.02083964  0.13823286  0.47400349  1  -1.216499  0.051816  -0.311856  -0.240752  0.028244  3.519373  0.046
O  O192  1  0.09286016  0.58076607  0.13237586  1  -1.148379  0.094318  -0.333641  -0.590988  0.04849  2.358534  0.078
O  O193  1  0.87471954  0.91746671  0.36736783  1  -1.153355  0.085072  -0.334817  -0.593669  0.043756  2.346917  0.07
O  O194  1  0.90714669  0.41923240  0.86762748  1  -1.1478  0.094323  -0.33363  -0.591045  0.048496  2.35856  0.078
O  O195  1  0.12527961  0.08253524  0.63263165  1  -1.15339  0.085062  -0.334807  -0.593619  0.04375  2.347027  0.07
O  O196  1  0.30675586  0.66584062  0.24631125  1  -1.164391  0.029651  -0.337757  -0.53666  0.014625  2.034321  0.025
O  O197  1  0.88918257  0.83384821  0.25122577  1  -1.159475  0.02762  -0.337899  -0.536859  0.013618  2.03678  0.023
O  O198  1  0.69325065  0.33415614  0.75368577  1  -1.164482  0.029647  -0.337697  -0.536643  0.014623  2.03436  0.025
O  O199  1  0.11081658  0.16615662  0.74877222  1  -1.159546  0.027626  -0.337905  -0.536853  0.013621  2.036652  0.023
O  O200  1  0.35471267  0.45606137  0.04894163  1  -1.17095  0.075784  -0.312024  -0.561868  0.040035  2.438806  0.064
O  O201  1  0.33899315  0.04158610  0.44214383  1  -1.174641  0.052576  -0.305967  -0.559552  0.027657  2.408772  0.045
O  O202  1  0.64528936  0.54393932  0.95106264  1  -1.170432  0.075786  -0.312091  -0.561967  0.040038  2.438736  0.064
O  O203  1  0.66099640  0.95840663  0.55784629  1  -1.174403  0.052573  -0.305957  -0.559509  0.027655  2.408687  0.045
O  O204  1  0.17741125  0.48803655  0.00856399  1  -1.164653  0.064462  -0.295737  -0.550199  0.033427  2.366684  0.059
O  O205  1  0.17072662  0.00700305  0.48566132  1  -1.163122  0.060658  -0.306074  -0.558479  0.031816  2.403243  0.054
O  O206  1  0.82259296  0.51196338  0.99143950  1  -1.164793  0.064452  -0.295744  -0.550152  0.033423  2.366662  0.059
O  O207  1  0.82926825  0.99299363  0.51433535  1  -1.163169  0.060655  -0.306051  -0.55842  0.031815  2.40324  0.054
O  O208  1  0.27050743  0.25224184  0.24953267  1  -1.116823  0.00044  -0.174626  -0.239052  0.000227  2.554673  0.0
O  O209  1  0.72949737  0.74775641  0.75046532  1  -1.116796  0.00044  -0.174694  -0.239139  0.000227  2.554457  0.0
