# generated using pymatgen
data_CuH12C10(N6Cl)2
_symmetry_space_group_name_H-M   'P 1'
_cell_length_a   7.66290077
_cell_length_b   8.05364433
_cell_length_c   13.86020782
_cell_angle_alpha   89.99997101
_cell_angle_beta   89.99969331
_cell_angle_gamma   100.03643254
_symmetry_Int_Tables_number   1
_chemical_formula_structural   CuH12C10(N6Cl)2
_chemical_formula_sum   'Cu2 H24 C20 N24 Cl4'
_cell_volume   842.28305809
_cell_formula_units_Z   2
loop_
 _symmetry_equiv_pos_site_id
 _symmetry_equiv_pos_as_xyz
  1  'x, y, z'
loop_
 _atom_site_type_symbol
 _atom_site_label
 _atom_site_symmetry_multiplicity
 _atom_site_fract_x
 _atom_site_fract_y
 _atom_site_fract_z
 _atom_site_occupancy
 _atom_site_hle17_ddec_charge
 _atom_site_hle17_ddec_spin_density
 _atom_site_hle17_ddec_sum_bond_order
 _atom_site_hle17_magmom
 _atom_site_hse06_10hf_ddec_charge
 _atom_site_hse06_10hf_ddec_spin_density
 _atom_site_hse06_10hf_ddec_sum_bond_order
 _atom_site_hse06_10hf_magmom
 _atom_site_hse06_ddec_charge
 _atom_site_hse06_ddec_spin_density
 _atom_site_hse06_ddec_sum_bond_order
 _atom_site_hse06_magmom
 _atom_site_pbe_cm5_charge
 _atom_site_pbe_ddec_charge
 _atom_site_pbe_ddec_spin_density
 _atom_site_pbe_ddec_sum_bond_order
 _atom_site_pbe_magmom
Cu  Cu0  1  0.00000171  0.99999998  0.99999944  1  0.791835  0.759614  1.937419  0.55  0.751792  0.82501  2.311507  0.647  0.828364  0.890564  2.259804  0.721  0.746747  0.704311  0.776813  2.346609  0.597
Cu  Cu1  1  0.50000088  0.00000052  0.49999970  1  0.791846  -0.759608  1.937524  -0.55  0.751778  -0.825017  2.311636  -0.647  0.828387  -0.890564  2.25993  -0.721  0.74675  0.704253  -0.776812  2.346809  -0.597
H  H2  1  0.31148025  0.31964364  0.01173597  1  0.118456  9.8e-05  0.980225  0.0  0.115583  0.00017  1.062388  0.0  0.11931  0.000126  1.056411  0.0  0.129798  0.112984  0.000215  1.066766  0.0
H  H3  1  0.18851632  0.68035728  0.51173581  1  0.118468  -9.7e-05  0.980287  0.0  0.1156  -0.00017  1.062443  0.0  0.119325  -0.000126  1.056464  0.0  0.12981  0.113003  -0.000215  1.066818  0.0
H  H4  1  0.68852016  0.68035909  0.98826472  1  0.118498  9.6e-05  0.980286  0.0  0.115613  0.00017  1.062461  0.0  0.11934  0.000126  1.056484  0.0  0.129809  0.113007  0.000215  1.066844  0.0
H  H5  1  0.81148125  0.31964419  0.48826271  1  0.118509  -9.1e-05  0.98024  0.0  0.115622  -0.00017  1.062404  0.0  0.119349  -0.000126  1.056426  0.0  0.129807  0.113009  -0.000215  1.066795  0.0
H  H6  1  0.96410563  0.10531337  0.23070793  1  0.10571  -2.4e-05  0.939807  0.0  0.110697  0.000111  1.00398  0.0  0.112793  8e-05  1.001426  0.0  0.127196  0.109149  0.000138  1.005775  0.0
H  H7  1  0.53589152  0.89468175  0.73070745  1  0.105663  2.4e-05  0.939825  0.0  0.110672  -0.000111  1.003974  0.0  0.112769  -8e-05  1.001421  0.0  0.127193  0.109126  -0.000138  1.00577  0.0
H  H8  1  0.03589123  0.89468432  0.76929203  1  0.10573  -2e-05  0.939796  0.0  0.110724  0.000111  1.003953  0.0  0.112821  8e-05  1.001399  0.0  0.127225  0.109178  0.000139  1.00575  0.0
H  H9  1  0.46410795  0.10531593  0.26929251  1  0.10565  2.5e-05  0.939816  0.0  0.110679  -0.000111  1.003945  0.0  0.112776  -8e-05  1.001391  0.0  0.127198  0.109131  -0.000138  1.00574  0.0
H  H10  1  0.36763608  0.61107241  0.23953257  1  0.114088  0.000157  0.929098  0.0  0.120811  0.000169  0.997345  0.0  0.122907  0.000106  0.99448  0.0  0.127009  0.119168  0.000225  1.001244  0.0
H  H11  1  0.13235819  0.38892793  0.73953339  1  0.114039  -0.000152  0.929141  0.0  0.120793  -0.000169  0.997344  0.0  0.122886  -0.000106  0.994481  0.0  0.127014  0.119149  -0.000225  1.001242  0.0
H  H12  1  0.63236410  0.38892906  0.76046740  1  0.114041  0.00015  0.929107  0.0  0.120798  0.000169  0.997331  0.0  0.122894  0.000106  0.994467  0.0  0.126994  0.119154  0.000225  1.001229  0.0
H  H13  1  0.86764352  0.61107479  0.26046730  1  0.114041  -0.000146  0.929124  0.0  0.120831  -0.000169  0.997296  0.0  0.122925  -0.000106  0.994431  0.0  0.127021  0.119187  -0.000225  1.001191  0.0
H  H14  1  0.51882886  0.55287802  0.15014480  1  0.109508  0.000125  0.933553  0.0  0.107931  7e-05  1.016539  0.0  0.110213  4.3e-05  1.013129  0.0  0.125995  0.106131  9.7e-05  1.020963  0.0
H  H15  1  0.98116589  0.44712109  0.65014457  1  0.109529  -0.000119  0.933461  0.0  0.10798  -7e-05  1.016428  0.0  0.110264  -4.3e-05  1.013014  0.0  0.126045  0.10618  -9.7e-05  1.020853  0.0
H  H16  1  0.48116824  0.44712093  0.84985444  1  0.10953  0.000124  0.933558  0.0  0.107974  7e-05  1.016539  0.0  0.110256  4.3e-05  1.01313  0.0  0.12601  0.106173  9.7e-05  1.020961  0.0
H  H17  1  0.01883120  0.55287786  0.34985684  1  0.109568  -0.000116  0.933455  0.0  0.107997  -7e-05  1.016464  0.0  0.11028  -4.3e-05  1.013051  0.0  0.126038  0.106197  -9.7e-05  1.020885  0.0
H  H18  1  0.15443520  0.80887717  0.18287425  1  0.120091  -7.1e-05  0.961095  0.0  0.123989  8.1e-05  1.030206  0.0  0.127001  7.7e-05  1.025396  0.0  0.126075  0.121741  8e-05  1.034202  0.0
H  H19  1  0.34556071  0.19112205  0.68287522  1  0.120234  7.6e-05  0.961007  0.0  0.124139  -8.1e-05  1.030088  0.0  0.127151  -7.7e-05  1.025277  0.0  0.126148  0.121885  -8e-05  1.034092  0.0
H  H20  1  0.84556167  0.19112051  0.81712282  1  0.120144  -7.3e-05  0.96099  0.0  0.124068  8.2e-05  1.030067  0.0  0.127077  7.7e-05  1.025264  0.0  0.126124  0.121847  8e-05  1.034035  0.0
H  H21  1  0.65443946  0.80887942  0.31712474  1  0.120258  7.2e-05  0.960979  0.0  0.124157  -8.1e-05  1.030075  0.0  0.127168  -7.7e-05  1.025266  0.0  0.126147  0.121914  -8e-05  1.034062  0.0
H  H22  1  0.28735600  0.81445841  0.88691472  1  0.093907  -0.000131  0.962825  0.0  0.095894  1.4e-05  1.036302  0.0  0.097684  8e-06  1.033709  0.0  0.127238  0.094641  1.7e-05  1.037935  0.0
H  H23  1  0.21265089  0.18554027  0.38691521  1  0.093948  0.000125  0.962779  0.0  0.095932  -1.4e-05  1.03627  0.0  0.097722  -8e-06  1.033678  0.0  0.127232  0.094672  -1.7e-05  1.037906  0.0
H  H24  1  0.71264915  0.18554178  0.11308452  1  0.093945  -0.000125  0.962792  0.0  0.09594  1.5e-05  1.036272  0.0  0.09773  8e-06  1.033682  0.0  0.127246  0.094682  1.7e-05  1.037905  0.0
H  H25  1  0.78734881  0.81445868  0.61308475  1  0.093932  0.000127  0.962776  0.0  0.09592  -1.4e-05  1.036264  0.0  0.097711  -8e-06  1.033671  0.0  0.127236  0.094661  -1.7e-05  1.037902  0.0
C  C26  1  0.24139700  0.29799427  0.07991182  1  0.191294  -0.004086  3.591652  -0.004  0.123459  -0.000735  3.862436  -0.001  0.141483  -0.001535  3.871982  -0.002  0.16725  0.102299  -0.000108  3.852659  0.0
C  C27  1  0.25860126  0.70200521  0.57991145  1  0.191277  0.00408  3.591707  0.004  0.123426  0.000736  3.862477  0.001  0.141454  0.001533  3.872023  0.002  0.167233  0.102276  0.000108  3.852691  0.0
C  C28  1  0.75860248  0.70200341  0.92009103  1  0.191234  -0.004076  3.591585  -0.004  0.123376  -0.000737  3.862348  -0.001  0.141396  -0.001534  3.871893  -0.002  0.167206  0.102237  -0.000108  3.852573  0.0
C  C29  1  0.74139654  0.29799752  0.42008923  1  0.191278  0.004056  3.591565  0.004  0.123461  0.000737  3.862326  0.001  0.141488  0.001534  3.871871  0.002  0.167273  0.102341  0.000108  3.85257  0.0
C  C30  1  0.06549895  0.19309165  0.19334690  1  0.19521  -0.001489  3.689338  -0.001  0.147163  0.00058  3.976712  0.001  0.15987  -0.000107  3.990369  0.0  0.14387  0.138345  0.001063  3.970491  0.001
C  C31  1  0.43449899  0.80690502  0.69334598  1  0.195301  0.001499  3.689328  0.001  0.147213  -0.000578  3.97673  -0.001  0.159921  0.000107  3.990386  0.0  0.143927  0.138396  -0.001062  3.97051  -0.001
C  C32  1  0.93449968  0.80690856  0.80665378  1  0.195229  -0.001503  3.689402  -0.001  0.147152  0.00058  3.976774  0.001  0.159856  -0.000107  3.990428  0.0  0.143847  0.13834  0.001063  3.97056  0.001
C  C33  1  0.56550178  0.19309266  0.30665326  1  0.195342  0.001486  3.689266  0.001  0.147249  -0.000577  3.976655  -0.001  0.159958  0.000105  3.990312  0.0  0.143894  0.138435  -0.001063  3.970423  -0.001
C  C34  1  0.38102301  0.56245312  0.16625732  1  0.060341  0.001507  3.590228  0.002  -0.023558  0.001183  3.842806  0.001  -0.014683  0.000899  3.850253  0.001  0.064825  -0.047594  0.001434  3.833269  0.002
C  C35  1  0.11897545  0.43754487  0.66625672  1  0.060372  -0.001534  3.590078  -0.002  -0.023569  -0.001181  3.84267  -0.001  -0.014702  -0.0009  3.850135  -0.001  0.064777  -0.047607  -0.001433  3.833144  -0.002
C  C36  1  0.61897586  0.43754835  0.83374409  1  0.060396  0.001522  3.590103  0.002  -0.02361  0.001182  3.842832  0.001  -0.014732  0.0009  3.850267  0.001  0.064857  -0.047629  0.001434  3.833296  0.002
C  C37  1  0.88102379  0.56245155  0.33374396  1  0.060315  -0.001544  3.590047  -0.002  -0.023691  -0.001181  3.842741  -0.001  -0.014828  -0.0009  3.850219  -0.001  0.064783  -0.047689  -0.001433  3.833214  -0.002
C  C38  1  0.20769256  0.78397281  0.11264435  1  0.199052  -0.004145  3.589619  -0.004  0.132909  -0.000598  3.855879  -0.001  0.15083  -0.001388  3.866388  -0.002  0.169495  0.111737  -8e-06  3.845452  0.0
C  C39  1  0.29231213  0.21602783  0.61264619  1  0.198904  0.004125  3.589512  0.004  0.132746  0.000599  3.855786  0.001  0.150671  0.001389  3.86629  0.002  0.169342  0.111576  8e-06  3.845363  0.0
C  C40  1  0.79230715  0.21602613  0.88735417  1  0.198951  -0.004142  3.589461  -0.004  0.132785  -0.000599  3.855753  -0.001  0.150706  -0.001389  3.866257  -0.002  0.169425  0.111601  -8e-06  3.845319  0.0
C  C41  1  0.70769089  0.78397489  0.38735449  1  0.198843  0.004145  3.589487  0.004  0.132688  0.000599  3.855735  0.001  0.150613  0.00139  3.866243  0.002  0.169368  0.11153  9e-06  3.845303  0.0
C  C42  1  0.27991295  0.78310307  0.96296699  1  0.213463  -0.002269  3.683606  -0.002  0.164599  -8e-06  3.968089  0.0  0.179013  -0.000636  3.98023  -0.001  0.147554  0.154669  0.000425  3.962749  0.001
C  C43  1  0.22009235  0.21689794  0.46296745  1  0.213451  0.002289  3.683686  0.002  0.164567  9e-06  3.968174  0.0  0.17898  0.000638  3.980319  0.001  0.14756  0.154644  -0.000424  3.962831  -0.001
C  C44  1  0.72009221  0.21689713  0.03703225  1  0.213409  -0.0023  3.683699  -0.002  0.164519  -9e-06  3.968197  0.0  0.178931  -0.000638  3.98034  -0.001  0.147552  0.154595  0.000424  3.962844  0.001
C  C45  1  0.77990913  0.78310352  0.53703324  1  0.213493  0.00228  3.683594  0.002  0.164594  1.1e-05  3.968094  0.0  0.17901  0.000636  3.980236  0.001  0.147557  0.15467  -0.000425  3.962751  -0.001
N  N46  1  0.11375169  0.16761477  0.10017724  1  -0.364031  0.07264  3.286473  0.093  -0.316044  0.053097  3.590111  0.071  -0.349367  0.043799  3.61052  0.061  -0.359336  -0.295392  0.05876  3.580269  0.076
N  N47  1  0.38624636  0.83238465  0.60017717  1  -0.364003  -0.072639  3.286517  -0.093  -0.315972  -0.053097  3.590121  -0.071  -0.349305  -0.043799  3.610548  -0.061  -0.359321  -0.295317  -0.058759  3.580287  -0.076
N  N48  1  0.88624979  0.83238669  0.89982345  1  -0.364052  0.072641  3.286468  0.093  -0.315979  0.0531  3.590022  0.071  -0.349296  0.043801  3.610432  0.061  -0.359325  -0.295348  0.058761  3.580195  0.076
N  N49  1  0.61375204  0.16761429  0.39982279  1  -0.364063  -0.072633  3.286418  -0.093  -0.316062  -0.053099  3.590045  -0.071  -0.349394  -0.0438  3.610469  -0.061  -0.35935  -0.295404  -0.058763  3.580199  -0.076
N  N50  1  0.15514815  0.33378258  0.23123146  1  -0.265997  0.008127  2.838635  0.01  -0.256871  0.004209  3.112993  0.005  -0.265885  0.002977  3.127569  0.004  -0.218205  -0.259557  0.005509  3.097756  0.006
N  N51  1  0.34484811  0.66621399  0.73123013  1  -0.266081  -0.008136  2.838594  -0.01  -0.25695  -0.00421  3.112965  -0.005  -0.265964  -0.002977  3.12754  -0.004  -0.218247  -0.259629  -0.005508  3.097729  -0.006
N  N52  1  0.84484941  0.66621889  0.76876995  1  -0.266077  0.008135  2.838597  0.01  -0.25696  0.004209  3.112971  0.005  -0.265976  0.002978  3.127546  0.004  -0.218227  -0.259643  0.005509  3.097734  0.006
N  N53  1  0.65515267  0.33378369  0.26876839  1  -0.266107  -0.008122  2.838569  -0.01  -0.256972  -0.00421  3.112939  -0.005  -0.265986  -0.002976  3.127513  -0.004  -0.218233  -0.259631  -0.005509  3.097711  -0.006
N  N54  1  0.26717390  0.39786556  0.15823166  1  0.025032  0.002382  3.529438  0.003  0.11414  0.001576  3.756565  0.002  0.100903  0.001203  3.781437  0.002  -0.130527  0.150226  0.001866  3.707898  0.002
N  N55  1  0.23282203  0.60213246  0.65823140  1  0.025019  -0.002372  3.529391  -0.003  0.114122  -0.001578  3.756532  -0.002  0.100885  -0.001202  3.7814  -0.002  -0.130537  0.150202  -0.001866  3.707888  -0.002
N  N56  1  0.73282451  0.60213338  0.84176903  1  0.025089  0.00238  3.529341  0.003  0.114223  0.001577  3.756471  0.002  0.100988  0.001202  3.781345  0.002  -0.13049  0.150309  0.001865  3.707805  0.002
N  N57  1  0.76717553  0.39786901  0.34176785  1  0.025044  -0.002371  3.529405  -0.003  0.114154  -0.001578  3.756548  -0.002  0.100917  -0.001203  3.781415  -0.002  -0.130552  0.150168  -0.001866  3.707959  -0.002
N  N58  1  0.32318934  0.67829489  0.09829232  1  0.024493  0.002224  3.559267  0.003  0.112293  0.001528  3.786283  0.002  0.098881  0.001171  3.812278  0.001  -0.134918  0.1489  0.001794  3.735787  0.002
N  N59  1  0.17680920  0.32170706  0.59829303  1  0.024518  -0.002224  3.559248  -0.003  0.112316  -0.001528  3.786282  -0.002  0.098905  -0.001171  3.812269  -0.001  -0.134914  0.148936  -0.001794  3.73577  -0.002
N  N60  1  0.67681037  0.32170405  0.90170693  1  0.024562  0.002225  3.559154  0.003  0.112385  0.001528  3.786187  0.002  0.098974  0.00117  3.812183  0.001  -0.134949  0.148951  0.001794  3.73574  0.002
N  N61  1  0.82319074  0.67829314  0.40170694  1  0.024598  -0.002226  3.559135  -0.003  0.112418  -0.001529  3.786154  -0.002  0.099006  -0.001171  3.812144  -0.001  -0.134924  0.148981  -0.001794  3.735696  -0.002
N  N62  1  0.17828190  0.85220649  0.02770410  1  -0.366389  0.078915  3.307988  0.1  -0.324178  0.054022  3.618849  0.072  -0.35818  0.044406  3.638458  0.062  -0.363742  -0.303075  0.060079  3.609646  0.078
N  N63  1  0.32172541  0.14779689  0.52770299  1  -0.366465  -0.07891  3.308052  -0.1  -0.324216  -0.054023  3.618884  -0.072  -0.358229  -0.044407  3.638512  -0.062  -0.363725  -0.303104  -0.060081  3.609683  -0.078
N  N64  1  0.82172065  0.14779371  0.97229370  1  -0.366389  0.078922  3.307971  0.1  -0.324164  0.054023  3.618831  0.072  -0.358164  0.044407  3.638437  0.062  -0.363759  -0.303061  0.060082  3.609625  0.078
N  N65  1  0.67827914  0.85220709  0.47229698  1  -0.366464  -0.07892  3.307999  -0.1  -0.324204  -0.054022  3.618814  -0.072  -0.358219  -0.044406  3.638441  -0.062  -0.363744  -0.303094  -0.06008  3.609611  -0.078
N  N66  1  0.36943480  0.67490564  0.00324317  1  -0.262467  0.008809  2.863235  0.01  -0.252776  0.004145  3.141085  0.005  -0.262772  0.002895  3.15503  0.004  -0.215516  -0.254792  0.005537  3.126033  0.006
N  N67  1  0.13056945  0.32509402  0.50324329  1  -0.262446  -0.008807  2.86329  -0.01  -0.252746  -0.004146  3.141144  -0.005  -0.262741  -0.002896  3.155088  -0.004  -0.215484  -0.254766  -0.005538  3.126085  -0.006
N  N68  1  0.63056929  0.32509581  0.99675607  1  -0.262492  0.008821  2.863287  0.01  -0.252784  0.004145  3.141125  0.005  -0.26278  0.002896  3.155071  0.004  -0.215494  -0.254791  0.005538  3.126076  0.006
N  N69  1  0.86943157  0.67490492  0.49675595  1  -0.262506  -0.008802  2.863238  -0.01  -0.252798  -0.004146  3.141083  -0.005  -0.262792  -0.002895  3.155025  -0.004  -0.215487  -0.2548  -0.005538  3.126038  -0.006
Cl  Cl70  1  0.22224593  0.16442805  0.85200202  1  -0.707665  -0.000522  0.642589  0.001  -0.671954  -0.001515  0.860915  -0.001  -0.684196  -0.001578  0.839983  -0.001  -0.407423  -0.661756  -0.001406  0.875452  -0.001
Cl  Cl71  1  0.27774944  0.83557705  0.35200645  1  -0.707668  0.000522  0.642593  -0.001  -0.671938  0.001516  0.860919  0.001  -0.684183  0.001579  0.839985  0.001  -0.407425  -0.661739  0.001406  0.875461  0.001
Cl  Cl72  1  0.77775378  0.83557090  0.14799794  1  -0.707668  -0.000522  0.642588  0.001  -0.671948  -0.001516  0.860917  -0.001  -0.684187  -0.001578  0.839981  -0.001  -0.407421  -0.661754  -0.001407  0.875451  -0.001
Cl  Cl73  1  0.72224681  0.16442442  0.64799424  1  -0.707647  0.000523  0.642591  -0.001  -0.671928  0.001515  0.860912  0.001  -0.684181  0.00158  0.839989  0.001  -0.407419  -0.661731  0.001406  0.875455  0.001
