# generated using pymatgen
data_NaH13C10(NO3)2
_symmetry_space_group_name_H-M   'P 1'
_cell_length_a   8.67407553
_cell_length_b   8.67425906
_cell_length_c   10.15934453
_cell_angle_alpha   91.55789248
_cell_angle_beta   114.56649760
_cell_angle_gamma   118.77066179
_symmetry_Int_Tables_number   1
_chemical_formula_structural   NaH13C10(NO3)2
_chemical_formula_sum   'Na2 H26 C20 N4 O12'
_cell_volume   584.09385761
_cell_formula_units_Z   2
loop_
 _symmetry_equiv_pos_site_id
 _symmetry_equiv_pos_as_xyz
  1  'x, y, z'
loop_
 _atom_site_type_symbol
 _atom_site_label
 _atom_site_symmetry_multiplicity
 _atom_site_fract_x
 _atom_site_fract_y
 _atom_site_fract_z
 _atom_site_occupancy
 _atom_site_hle17_bader_spin_density
 _atom_site_hle17_ddec_charge
 _atom_site_hle17_ddec_spin_density
 _atom_site_hle17_ddec_sum_bond_order
 _atom_site_hle17_magmom
 _atom_site_hse06_10hf_bader_spin_density
 _atom_site_hse06_10hf_ddec_charge
 _atom_site_hse06_10hf_ddec_spin_density
 _atom_site_hse06_10hf_ddec_sum_bond_order
 _atom_site_hse06_10hf_magmom
 _atom_site_hse06_bader_spin_density
 _atom_site_hse06_ddec_charge
 _atom_site_hse06_ddec_spin_density
 _atom_site_hse06_ddec_sum_bond_order
 _atom_site_hse06_magmom
 _atom_site_pbe_bader_spin_density
 _atom_site_pbe_cm5_charge
 _atom_site_pbe_ddec_charge
 _atom_site_pbe_ddec_spin_density
 _atom_site_pbe_ddec_sum_bond_order
 _atom_site_pbe_magmom
Na  Na0  1  0.88068419  0.88076541  0.00008478  1  0  0.907752  0  0.375375  0  0  0.860854  0  0.53534  0  0  0.872675  0  0.511557  0  0  0.678135  0.852133  0  0.552397  0
Na  Na1  1  0.13801594  0.63802769  0.49999410  1  0  0.903793  0  0.384714  0  0  0.855038  0  0.546866  0  0  0.86731  0  0.522873  0  0  0.689408  0.84647  0  0.563476  0
H  H2  1  0.14552351  0.33330080  0.38808233  1  0  0.308563  0  0.905403  0  0  0.288186  0  0.974481  0  0  0.297056  0  0.966721  0  0  0.313501  0.281845  0  0.980192  0
H  H3  1  0.94512745  0.75737279  0.61198293  1  0  0.308415  0  0.905932  0  0  0.288236  0  0.974986  0  0  0.297106  0  0.967167  0  0  0.313226  0.281943  0  0.980585  0
H  H4  1  0.31179238  0.23602743  0.62741122  1  0  0.074358  0  0.901317  0  0  0.086775  0  0.957291  0  0  0.087801  0  0.957314  0  0  0.116788  0.08595  0  0.957541  0
H  H5  1  0.60845146  0.68408244  0.37252913  1  0  0.073145  0  0.900772  0  0  0.085662  0  0.956467  0  0  0.086636  0  0.956562  0  0  0.116186  0.084906  0  0.956624  0
H  H6  1  0.67026542  0.41694557  0.57221153  1  0  0.082474  0  0.955299  0  0  0.097842  0  1.016814  0  0  0.099511  0  1.016624  0  0  0.095178  0.096624  0  1.016996  0
H  H7  1  0.84437612  0.09775324  0.42773890  1  0  0.081746  0  0.957682  0  0  0.097225  0  1.0188  0  0  0.098864  0  1.018629  0  0  0.094711  0.096004  0  1.019047  0
H  H8  1  0.59403905  0.23313563  0.65257772  1  0  0.082502  0  0.953105  0  0  0.096667  0  1.019056  0  0  0.097973  0  1.019346  0  0  0.095216  0.095576  0  1.019182  0
H  H9  1  0.58021913  0.94110665  0.34729390  1  0  0.082793  0  0.95206  0  0  0.096979  0  1.018321  0  0  0.098288  0  1.018563  0  0  0.094797  0.095963  0  1.018262  0
H  H10  1  0.50268072  0.17014750  0.34919964  1  0  0.103526  0  0.943945  0  0  0.121959  0  0.997073  0  0  0.123471  0  0.997203  0  0  0.102596  0.120795  0  0.99718  0
H  H11  1  0.82064281  0.15323925  0.65070693  1  0  0.103427  0  0.94378  0  0  0.122028  0  0.996884  0  0  0.123485  0  0.997078  0  0  0.102849  0.120961  0  0.996798  0
H  H12  1  0.33449721  0.01473706  0.40646429  1  0  0.11531  0  0.939694  0  0  0.128699  0  1.001972  0  0  0.131884  0  1.000293  0  0  0.110476  0.126424  0  1.003283  0
H  H13  1  0.60785546  0.92784500  0.59342609  1  0  0.115806  0  0.939494  0  0  0.129178  0  1.002213  0  0  0.132464  0  1.000375  0  0  0.110766  0.126787  0  1.003632  0
H  H14  1  0.70896167  0.01842340  0.14147397  1  0  0.315335  0  0.928374  0  0  0.293284  0  0.999872  0  0  0.302494  0  0.991943  0  0  0.309142  0.286784  0  1.005529  0
H  H15  1  0.87723668  0.56779688  0.85857141  1  0  0.314742  0  0.930123  0  0  0.292749  0  1.001613  0  0  0.301941  0  0.993697  0  0  0.308697  0.286234  0  1.007285  0
H  H16  1  0.34202691  0.94090250  0.96727215  1  0  0.0773  0  0.892588  0  0  0.089029  0  0.94597  0  0  0.09024  0  0.945836  0  0  0.120747  0.088101  0  0.946289  0
H  H17  1  0.97335154  0.37451678  0.03243496  1  0  0.077587  0  0.891411  0  0  0.089974  0  0.94421  0  0  0.091171  0  0.94402  0  0  0.121448  0.088925  0  0.944561  0
H  H18  1  0.32153542  0.18865003  0.89615119  1  0  0.097228  0  0.957135  0  0  0.11199  0  1.01915  0  0  0.113666  0  1.01893  0  0  0.099583  0.110771  0  1.019368  0
H  H19  1  0.29230925  0.42514852  0.10381442  1  0  0.097595  0  0.955917  0  0  0.112213  0  1.018338  0  0  0.113971  0  1.018023  0  0  0.099414  0.11091  0  1.018615  0
H  H20  1  0.54925531  0.29063501  0.88659537  1  0  0.082502  0  0.953774  0  0  0.096788  0  1.01929  0  0  0.098163  0  1.019458  0  0  0.095053  0.095625  0  1.019507  0
H  H21  1  0.40397376  0.66248419  0.11352848  1  0  0.081531  0  0.954576  0  0  0.096043  0  1.020137  0  0  0.097331  0  1.020421  0  0  0.094067  0.095011  0  1.020112  0
H  H22  1  0.50663536  0.31377287  0.16825757  1  0  0.108709  0  0.935063  0  0  0.125275  0  0.992987  0  0  0.127257  0  0.992494  0  0  0.106918  0.123784  0  0.993632  0
H  H23  1  0.14540855  0.33842403  0.83164971  1  0  0.108478  0  0.935717  0  0  0.124882  0  0.993409  0  0  0.126879  0  0.99284  0  0  0.106348  0.123423  0  0.993923  0
H  H24  1  0.68884740  0.48602202  0.13007844  1  0  0.115512  0  0.958445  0  0  0.129427  0  1.017337  0  0  0.132158  0  1.016674  0  0  0.107049  0.127557  0  1.017768  0
H  H25  1  0.35618217  0.55871725  0.87014216  1  0  0.116389  0  0.957307  0  0  0.130123  0  1.016196  0  0  0.132839  0  1.015519  0  0  0.107055  0.128187  0  1.016722  0
H  H26  1  0.51175149  0.76894488  0.75687297  1  0  0.378516  0  0.933247  0  0  0.346148  0  1.015488  0  0  0.360076  0  1.001926  0  0  0.29472  0.336451  0  1.024832  0
H  H27  1  0.01203794  0.75478459  0.24308041  1  0  0.379142  0  0.933228  0  0  0.346487  0  1.016035  0  0  0.360416  0  1.00239  0  0  0.295304  0.336793  0  1.025407  0
C  C28  1  0.49936521  0.52447994  0.68151028  1  0  0.664537  0  3.829473  0  0  0.61573  0  4.134614  0  0  0.647597  0  4.127382  0  0  0.226438  0.594182  0  4.138777  0
C  C29  1  0.84288503  0.81773402  0.31851668  1  0  0.665245  0  3.830118  0  0  0.616738  0  4.134005  0  0  0.648609  0  4.126701  0  0  0.227974  0.595203  0  4.138142  0
C  C30  1  0.39305626  0.33415884  0.57722257  1  0  0.038866  0  3.613948  0  0  0.019773  0  3.855941  0  0  0.019752  0  3.868516  0  0  0.018156  0.019697  0  3.847409  0
C  C31  1  0.75672930  0.81559395  0.42273768  1  0  0.038988  0  3.612368  0  0  0.021078  0  3.852323  0  0  0.021024  0  3.864871  0  0  0.017475  0.021018  0  3.843644  0
C  C32  1  0.53959558  0.29097673  0.56329053  1  0  -0.128141  0  3.65047  0  0  -0.176112  0  3.909562  0  0  -0.1769  0  3.921495  0  0  -0.16029  -0.175439  0  3.901534  0
C  C33  1  0.72733218  0.97598585  0.43663469  1  0  -0.128284  0  3.650352  0  0  -0.17646  0  3.90932  0  0  -0.177228  0  3.921212  0  0  -0.158879  -0.175736  0  3.901094  0
C  C34  1  0.41510342  0.15823300  0.40520015  1  0  -0.253158  0  3.648784  0  0  -0.289522  0  3.893917  0  0  -0.294594  0  3.901918  0  0  -0.157809  -0.285915  0  3.888415  0
C  C35  1  0.75263484  0.00961522  0.59470591  1  0  -0.253703  0  3.647119  0  0  -0.290926  0  3.893602  0  0  -0.295944  0  3.90143  0  0  -0.158583  -0.287334  0  3.888095  0
C  C36  1  0.25820844  0.20316292  0.31902688  1  0  0.601755  0  3.809535  0  0  0.559393  0  4.105973  0  0  0.588219  0  4.104265  0  0  0.240181  0.53988  0  4.106727  0
C  C37  1  0.88376517  0.93893351  0.68092524  1  0  0.604286  0  3.806197  0  0  0.562333  0  4.102726  0  0  0.591078  0  4.101003  0  0  0.240722  0.542672  0  4.103524  0
C  C38  1  0.46549521  0.95214039  0.82642608  1  0  0.654814  0  3.781659  0  0  0.606384  0  4.086419  0  0  0.637881  0  4.078397  0  0  0.234265  0.584997  0  4.0914  0
C  C39  1  0.12544231  0.63870025  0.17353576  1  0  0.654926  0  3.779029  0  0  0.606118  0  4.083952  0  0  0.63754  0  4.076043  0  0  0.234753  0.584782  0  4.088791  0
C  C40  1  0.47779271  0.04516581  0.96271496  1  0  0.042194  0  3.614331  0  0  0.026889  0  3.850335  0  0  0.026691  0  3.863186  0  0  0.02161  0.026894  0  3.841747  0
C  C41  1  0.08229817  0.51490975  0.03718719  1  0  0.041904  0  3.613206  0  0  0.026615  0  3.849845  0  0  0.026515  0  3.862499  0  0  0.01973  0.026659  0  3.841219  0
C  C42  1  0.47618227  0.22116843  0.95169891  1  0  -0.130596  0  3.635216  0  0  -0.17846  0  3.892631  0  0  -0.179088  0  3.904065  0  0  -0.159085  -0.177748  0  3.884731  0
C  C43  1  0.26938868  0.52431812  0.04833722  1  0  -0.129  0  3.633347  0  0  -0.1773  0  3.890681  0  0  -0.177975  0  3.902175  0  0  -0.156765  -0.176632  0  3.882792  0
C  C44  1  0.60207194  0.33884836  0.11597903  1  0  -0.255124  0  3.643119  0  0  -0.293769  0  3.891965  0  0  -0.298878  0  3.899832  0  0  -0.159372  -0.290247  0  3.886492  0
C  C45  1  0.22298587  0.48612734  0.88410790  1  0  -0.256554  0  3.644324  0  0  -0.294284  0  3.89206  0  0  -0.299332  0  3.899842  0  0  -0.158471  -0.290844  0  3.886742  0
C  C46  1  0.73768404  0.26942432  0.19455712  1  0  0.598822  0  3.796281  0  0  0.555653  0  4.096655  0  0  0.584128  0  4.095582  0  0  0.243269  0.536548  0  4.096514  0
C  C47  1  0.07527869  0.54349413  0.80561710  1  0  0.600635  0  3.795631  0  0  0.557372  0  4.096103  0  0  0.585754  0  4.095044  0  0  0.242248  0.538285  0  4.096275  0
N  N48  1  0.25345239  0.30218106  0.42053353  1  0  -0.435398  0  3.248662  0  0  -0.379878  0  3.489434  0  0  -0.400528  0  3.495807  0  0  -0.410745  -0.365843  0  3.485007  0
N  N49  1  0.88137886  0.83270010  0.57945141  1  0  -0.435996  0  3.247054  0  0  -0.381655  0  3.487986  0  0  -0.402179  0  3.49421  0  0  -0.410985  -0.367453  0  3.4834  0
N  N50  1  0.65987961  0.10452071  0.10485525  1  0  -0.451263  0  3.253623  0  0  -0.398598  0  3.499205  0  0  -0.419661  0  3.505893  0  0  -0.41413  -0.384176  0  3.494439  0
N  N51  1  0.99985836  0.55519275  0.89519284  1  0  -0.451167  0  3.255512  0  0  -0.399195  0  3.502145  0  0  -0.420179  0  3.508708  0  0  -0.413001  -0.385101  0  3.497619  0
O  O52  1  0.41782831  0.61792037  0.64006601  1  0  -0.659882  0  2.049747  0  0  -0.608761  0  2.292412  0  0  -0.633549  0  2.280684  0  0  -0.376474  -0.591621  0  2.299942  0
O  O53  1  0.97785619  0.77776945  0.35999976  1  0  -0.66008  0  2.050494  0  0  -0.609271  0  2.293269  0  0  -0.63405  0  2.281555  0  0  -0.37739  -0.592024  0  2.300657  0
O  O54  1  0.65539855  0.57747691  0.80549405  1  0  -0.649726  0  1.968888  0  0  -0.605151  0  2.207985  0  0  -0.627448  0  2.197971  0  0  -0.348969  -0.589579  0  2.214292  0
O  O55  1  0.77192799  0.84986563  0.19456475  1  0  -0.650473  0  1.96881  0  0  -0.605864  0  2.207264  0  0  -0.628211  0  2.197368  0  0  -0.349232  -0.590341  0  2.21361  0
O  O56  1  0.15049265  0.15609817  0.17929613  1  0  -0.642048  0  1.922494  0  0  -0.605997  0  2.159291  0  0  -0.62495  0  2.148206  0  0  -0.384555  -0.592833  0  2.166622  0
O  O57  1  0.97636226  0.97095042  0.82065437  1  0  -0.643083  0  1.920849  0  0  -0.606885  0  2.15729  0  0  -0.625936  0  2.146332  0  0  -0.385066  -0.593792  0  2.164653  0
O  O58  1  0.57156260  0.87550145  0.85817689  1  0  -0.613948  0  2.126955  0  0  -0.5646  0  2.365779  0  0  -0.587536  0  2.351051  0  0  -0.370543  -0.548614  0  2.375433  0
O  O59  1  0.01727805  0.71326722  0.14183458  1  0  -0.614611  0  2.126184  0  0  -0.565059  0  2.365372  0  0  -0.587928  0  2.350584  0  0  -0.370992  -0.549198  0  2.375062  0
O  O60  1  0.35394468  0.94150745  0.69679922  1  0  -0.590564  0  1.933318  0  0  -0.555191  0  2.169844  0  0  -0.575345  0  2.161464  0  0  -0.32494  -0.54126  0  2.175174  0
O  O61  1  0.24411116  0.65646558  0.30316609  1  0  -0.589986  0  1.932625  0  0  -0.554494  0  2.169445  0  0  -0.574722  0  2.161218  0  0  -0.325493  -0.540772  0  2.174738  0
O  O62  1  0.89264639  0.34765496  0.32161935  1  0  -0.638763  0  1.94941  0  0  -0.597932  0  2.186053  0  0  -0.617616  0  2.175623  0  0  -0.367417  -0.584326  0  2.192566  0
O  O63  1  0.02683442  0.57184420  0.67873501  1  0  -0.639604  0  1.949502  0  0  -0.598449  0  2.186165  0  0  -0.618137  0  2.175721  0  0  -0.367011  -0.584926  0  2.192782  0
