# generated using pymatgen
data_ZnH46C44(NO3)2
_symmetry_space_group_name_H-M   'P 1'
_cell_length_a   8.57047803
_cell_length_b   10.70245166
_cell_length_c   10.99350487
_cell_angle_alpha   81.80378210
_cell_angle_beta   69.59983890
_cell_angle_gamma   78.45820865
_symmetry_Int_Tables_number   1
_chemical_formula_structural   ZnH46C44(NO3)2
_chemical_formula_sum   'Zn1 H46 C44 N2 O6'
_cell_volume   923.10848903
_cell_formula_units_Z   1
loop_
 _symmetry_equiv_pos_site_id
 _symmetry_equiv_pos_as_xyz
  1  'x, y, z'
loop_
 _atom_site_type_symbol
 _atom_site_label
 _atom_site_symmetry_multiplicity
 _atom_site_fract_x
 _atom_site_fract_y
 _atom_site_fract_z
 _atom_site_occupancy
 _atom_site_hle17_bader_spin_density
 _atom_site_hle17_ddec_charge
 _atom_site_hle17_ddec_spin_density
 _atom_site_hle17_ddec_sum_bond_order
 _atom_site_hle17_magmom
 _atom_site_hse06_10hf_bader_spin_density
 _atom_site_hse06_10hf_ddec_charge
 _atom_site_hse06_10hf_ddec_spin_density
 _atom_site_hse06_10hf_ddec_sum_bond_order
 _atom_site_hse06_10hf_magmom
 _atom_site_hse06_bader_spin_density
 _atom_site_hse06_ddec_charge
 _atom_site_hse06_ddec_spin_density
 _atom_site_hse06_ddec_sum_bond_order
 _atom_site_hse06_magmom
 _atom_site_pbe_bader_spin_density
 _atom_site_pbe_cm5_charge
 _atom_site_pbe_ddec_charge
 _atom_site_pbe_ddec_spin_density
 _atom_site_pbe_ddec_sum_bond_order
 _atom_site_pbe_magmom
Zn  Zn0  1  0.00000124  0.99999933  0.49999999  1  0  1.000638  0  1.868349  0  0  0.820625  0  2.307308  0  0  0.867559  0  2.256582  0  0  0.680925  0.787915  0  2.341844  0
H  H1  1  0.50136383  0.23774429  0.41685482  1  0  0.106606  0  0.926346  0  0  0.127104  0  0.98051  0  0  0.128628  0  0.98074  0  0  0.103554  0.12603  0  0.980425  0
H  H2  1  0.49864331  0.76225522  0.58315029  1  0  0.106583  0  0.926379  0  0  0.127051  0  0.980565  0  0  0.128576  0  0.980793  0  0  0.103534  0.125977  0  0.98048  0
H  H3  1  0.56207788  0.18417553  0.26072871  1  0  0.086356  0  0.974463  0  0  0.098279  0  1.046374  0  0  0.100016  0  1.04615  0  0  0.090902  0.097267  0  1.046144  0
H  H4  1  0.43792179  0.81582393  0.73927572  1  0  0.086365  0  0.97449  0  0  0.098293  0  1.046356  0  0  0.100031  0  1.046131  0  0  0.090921  0.097282  0  1.046127  0
H  H5  1  0.74727501  0.35075474  0.35014993  1  0  0.066675  0  0.930846  0  0  0.078352  0  0.996176  0  0  0.080412  0  0.994364  0  0  0.100867  0.076775  0  0.997769  0
H  H6  1  0.25273190  0.64924572  0.64984964  1  0  0.066628  0  0.930889  0  0  0.078357  0  0.99615  0  0  0.080374  0  0.994385  0  0  0.10087  0.076776  0  0.997748  0
H  H7  1  0.60506124  0.54559684  0.40293112  1  0  0.079223  0  0.994854  0  0  0.090361  0  1.0616  0  0  0.092514  0  1.061529  0  0  0.094424  0.088805  0  1.061678  0
H  H8  1  0.39493158  0.45440546  0.59707659  1  0  0.079232  0  0.994932  0  0  0.090424  0  1.061608  0  0  0.09258  0  1.061534  0  0  0.09446  0.088866  0  1.061693  0
H  H9  1  0.37945274  0.73113533  0.39571079  1  0  0.092635  0  0.968245  0  0  0.102474  0  1.030526  0  0  0.105116  0  1.029798  0  0  0.096566  0.100523  0  1.031086  0
H  H10  1  0.62053801  0.26886504  0.60429321  1  0  0.092666  0  0.968229  0  0  0.102518  0  1.030486  0  0  0.105162  0  1.029754  0  0  0.09657  0.100555  0  1.031061  0
H  H11  1  0.21332156  0.73668176  0.24963363  1  0  0.087798  0  0.977695  0  0  0.095244  0  1.045956  0  0  0.097993  0  1.045171  0  0  0.094557  0.093107  0  1.046936  0
H  H12  1  0.78667604  0.26331576  0.75036618  1  0  0.087828  0  0.97769  0  0  0.095266  0  1.045965  0  0  0.098017  0  1.045178  0  0  0.094575  0.093128  0  1.046946  0
H  H13  1  0.27457461  0.55740346  0.10909389  1  0  0.080157  0  0.982574  0  0  0.09016  0  1.0473  0  0  0.092357  0  1.047407  0  0  0.093832  0.088497  0  1.047322  0
H  H14  1  0.72543045  0.44259411  0.89090387  1  0  0.080198  0  0.982532  0  0  0.090171  0  1.047283  0  0  0.092369  0  1.047389  0  0  0.093828  0.088508  0  1.047307  0
H  H15  1  0.49749974  0.37276317  0.11723280  1  0  0.081834  0  0.965551  0  0  0.09396  0  1.028446  0  0  0.096759  0  1.027326  0  0  0.095038  0.092167  0  1.028876  0
H  H16  1  0.50250614  0.62723633  0.88276810  1  0  0.08181  0  0.9655  0  0  0.093935  0  1.028421  0  0  0.096738  0  1.027294  0  0  0.095033  0.092177  0  1.028816  0
H  H17  1  0.73645927  0.20540138  0.05867057  1  0  0.079986  0  0.973981  0  0  0.092836  0  1.036981  0  0  0.095131  0  1.036711  0  0  0.093837  0.091105  0  1.037388  0
H  H18  1  0.26354292  0.79459234  0.94133124  1  0  0.079988  0  0.973944  0  0  0.092849  0  1.036942  0  0  0.09512  0  1.036708  0  0  0.09385  0.091118  0  1.037351  0
H  H19  1  0.98201470  0.18501634  0.85633713  1  0  0.084326  0  0.970766  0  0  0.094185  0  1.035049  0  0  0.097018  0  1.033524  0  0  0.09612  0.092069  0  1.036303  0
H  H20  1  0.01797645  0.81498209  0.14365794  1  0  0.084322  0  0.970732  0  0  0.094165  0  1.035044  0  0  0.097  0  1.033513  0  0  0.096108  0.092045  0  1.036312  0
H  H21  1  0.23691573  0.27746639  0.83141679  1  0  0.086095  0  0.960377  0  0  0.097473  0  1.020651  0  0  0.099752  0  1.020735  0  0  0.096504  0.095886  0  1.020596  0
H  H22  1  0.76307494  0.72253969  0.16857006  1  0  0.086093  0  0.960442  0  0  0.097474  0  1.020709  0  0  0.099735  0  1.020814  0  0  0.096494  0.095901  0  1.020639  0
H  H23  1  0.24589797  0.38768266  0.01232610  1  0  0.08377  0  0.960233  0  0  0.096691  0  1.018363  0  0  0.098838  0  1.018207  0  0  0.097281  0.095245  0  1.018377  0
H  H24  1  0.75410493  0.61232445  0.98765999  1  0  0.083764  0  0.960422  0  0  0.09668  0  1.018521  0  0  0.098825  0  1.018368  0  0  0.097316  0.09524  0  1.018525  0
H  H25  1  0.99947844  0.40908116  0.21583290  1  0  0.085499  0  0.95533  0  0  0.09813  0  1.017596  0  0  0.100834  0  1.016617  0  0  0.098841  0.096266  0  1.01824  0
H  H26  1  0.00052908  0.59091641  0.78415691  1  0  0.08559  0  0.955228  0  0  0.098224  0  1.01749  0  0  0.100922  0  1.016525  0  0  0.098913  0.096364  0  1.018119  0
H  H27  1  0.98938728  0.96967669  0.78239792  1  0  0.07623  0  0.965481  0  0  0.082445  0  1.03402  0  0  0.084433  0  1.032837  0  0  0.116404  0.080953  0  1.03494  0
H  H28  1  0.01060980  0.03033423  0.21759649  1  0  0.076233  0  0.965515  0  0  0.082451  0  1.034045  0  0  0.084447  0  1.032842  0  0  0.116394  0.080959  0  1.034962  0
H  H29  1  0.78095560  0.97658525  0.00225471  1  0  0.102836  0  0.971646  0  0  0.114033  0  1.031464  0  0  0.116706  0  1.031412  0  0  0.108071  0.112354  0  1.031208  0
H  H30  1  0.21904668  0.02342476  0.99774114  1  0  0.10278  0  0.971738  0  0  0.114011  0  1.031519  0  0  0.116673  0  1.03148  0  0  0.108044  0.112331  0  1.031265  0
H  H31  1  0.39342746  0.01847645  0.82171864  1  0  0.112245  0  0.977075  0  0  0.119101  0  1.04306  0  0  0.123188  0  1.04047  0  0  0.107461  0.116202  0  1.044873  0
H  H32  1  0.60657143  0.98151534  0.17828526  1  0  0.112292  0  0.97711  0  0  0.119172  0  1.043052  0  0  0.123259  0  1.040462  0  0  0.10747  0.116274  0  1.044864  0
H  H33  1  0.61787309  0.00574312  0.61287322  1  0  0.084883  0  0.95314  0  0  0.090035  0  1.021333  0  0  0.092643  0  1.019182  0  0  0.118239  0.088136  0  1.022822  0
H  H34  1  0.38211851  0.99425341  0.38712836  1  0  0.084789  0  0.953187  0  0  0.089957  0  1.021394  0  0  0.092564  0  1.019243  0  0  0.11823  0.088059  0  1.022886  0
H  H35  1  0.18520649  0.45132012  0.47767899  1  0  0.104531  0  0.967373  0  0  0.125659  0  1.031063  0  0  0.12576  0  1.033969  0  0  0.088378  0.125497  0  1.029178  0
H  H36  1  0.81479691  0.54867937  0.52232350  1  0  0.104574  0  0.967326  0  0  0.125682  0  1.031041  0  0  0.125785  0  1.033943  0  0  0.088367  0.12552  0  1.029157  0
H  H37  1  0.25396622  0.32226708  0.57815906  1  0  0.096386  0  0.964915  0  0  0.118276  0  1.02544  0  0  0.11953  0  1.025093  0  0  0.086255  0.117392  0  1.025579  0
H  H38  1  0.74603967  0.67773242  0.42184457  1  0  0.096393  0  0.964884  0  0  0.118308  0  1.025378  0  0  0.119554  0  1.025038  0  0  0.086282  0.117425  0  1.025518  0
H  H39  1  0.04150793  0.40122955  0.63108716  1  0  0.102839  0  0.957021  0  0  0.123554  0  1.02027  0  0  0.124617  0  1.021053  0  0  0.086478  0.122695  0  1.019862  0
H  H40  1  0.95849693  0.59876899  0.36891507  1  0  0.102864  0  0.957078  0  0  0.123605  0  1.02028  0  0  0.124666  0  1.021068  0  0  0.086503  0.122749  0  1.019865  0
H  H41  1  0.98592781  0.31429443  0.45315238  1  0  0.048456  0  0.922487  0  0  0.064151  0  0.987169  0  0  0.064344  0  0.986766  0  0  0.098716  0.063743  0  0.987844  0
H  H42  1  0.01407663  0.68570602  0.54685060  1  0  0.048465  0  0.922532  0  0  0.064211  0  0.987147  0  0  0.06441  0  0.986745  0  0  0.098749  0.063803  0  0.987822  0
H  H43  1  0.20224923  0.24791991  0.38798384  1  0  0.024761  0  0.93627  0  0  0.037758  0  1.005495  0  0  0.03788  0  1.005727  0  0  0.086071  0.037611  0  1.005372  0
H  H44  1  0.79775417  0.75207958  0.61201956  1  0  0.02483  0  0.936202  0  0  0.037791  0  1.005471  0  0  0.037917  0  1.005707  0  0  0.086083  0.037643  0  1.005348  0
H  H45  1  0.15985075  0.11582396  0.59325914  1  0  0.3613  0  0.937553  0  0  0.334095  0  1.011532  0  0  0.345962  0  0.99876  0  0  0.285191  0.325737  0  1.020461  0
H  H46  1  0.84015286  0.88417457  0.40674434  1  0  0.361343  0  0.937532  0  0  0.334111  0  1.011554  0  0  0.345974  0  0.998776  0  0  0.285189  0.325752  0  1.020486  0
C  C47  1  0.72380270  0.09922769  0.37319580  1  0  0.691249  0  3.851462  0  0  0.641305  0  4.162318  0  0  0.674581  0  4.154229  0  0  0.20459  0.618804  0  4.167036  0
C  C48  1  0.27620216  0.90077084  0.62680824  1  0  0.691213  0  3.851245  0  0  0.641233  0  4.162149  0  0  0.674509  0  4.154054  0  0  0.204572  0.618731  0  4.16687  0
C  C49  1  0.61153553  0.21289996  0.33014209  1  0  -0.285572  0  3.663358  0  0  -0.331355  0  3.915987  0  0  -0.337104  0  3.923821  0  0  -0.164403  -0.327359  0  3.910339  0
C  C50  1  0.38846641  0.78710048  0.66986157  1  0  -0.285557  0  3.663379  0  0  -0.3313  0  3.915946  0  0  -0.337052  0  3.923785  0  0  -0.164382  -0.327304  0  3.910297  0
C  C51  1  0.69818529  0.33125610  0.27595291  1  0  -0.027331  0  3.669408  0  0  -0.041054  0  3.89745  0  0  -0.040719  0  3.91189  0  0  -0.078092  -0.041271  0  3.887809  0
C  C52  1  0.30181751  0.66874050  0.72404834  1  0  -0.027198  0  3.669371  0  0  -0.040943  0  3.897282  0  0  -0.040576  0  3.911707  0  0  -0.078073  -0.041159  0  3.887641  0
C  C53  1  0.56789927  0.44654260  0.26102017  1  0  0.068115  0  3.722533  0  0  0.089622  0  3.952516  0  0  0.089142  0  3.977896  0  0  -0.00918  0.089598  0  3.935765  0
C  C54  1  0.43210267  0.55345784  0.73898259  1  0  0.068052  0  3.722554  0  0  0.089608  0  3.95246  0  0  0.089129  0  3.977827  0  0  -0.009204  0.089582  0  3.935716  0
C  C55  1  0.53352408  0.54924290  0.33738379  1  0  -0.135009  0  3.772325  0  0  -0.154286  0  4.016777  0  0  -0.157598  0  4.03889  0  0  -0.09856  -0.152117  0  4.001903  0
C  C56  1  0.46646834  0.45075557  0.66262366  1  0  -0.135034  0  3.772514  0  0  -0.154383  0  4.016927  0  0  -0.157695  0  4.039037  0  0  -0.098566  -0.15221  0  4.002043  0
C  C57  1  0.40745249  0.65338177  0.33323408  1  0  -0.072267  0  3.776871  0  0  -0.08332  0  4.023989  0  0  -0.084666  0  4.044882  0  0  -0.097258  -0.082021  0  4.009573  0
C  C58  1  0.59254075  0.34661861  0.66676924  1  0  -0.072323  0  3.776812  0  0  -0.083384  0  4.023934  0  0  -0.08473  0  4.044827  0  0  -0.097283  -0.082076  0  4.00952  0
C  C59  1  0.31380712  0.65657508  0.25098101  1  0  -0.081149  0  3.776881  0  0  -0.094657  0  4.022758  0  0  -0.097026  0  4.044941  0  0  -0.100458  -0.093138  0  4.007601  0
C  C60  1  0.68619070  0.34342149  0.74902160  1  0  -0.081183  0  3.776733  0  0  -0.094691  0  4.022621  0  0  -0.097061  0  4.044802  0  0  -0.10047  -0.093174  0  4.007469  0
C  C61  1  0.34755763  0.55517329  0.17340333  1  0  -0.085986  0  3.807058  0  0  -0.095998  0  4.051114  0  0  -0.09767  0  4.072986  0  0  -0.099479  -0.094293  0  4.035965  0
C  C62  1  0.65244371  0.44482427  0.82659818  1  0  -0.086055  0  3.80702  0  0  -0.096043  0  4.051091  0  0  -0.097715  0  4.072963  0  0  -0.099485  -0.094343  0  4.035954  0
C  C63  1  0.47337957  0.45103661  0.17843144  1  0  -0.125373  0  3.753479  0  0  -0.143085  0  3.99553  0  0  -0.146166  0  4.017257  0  0  -0.097812  -0.141219  0  3.980886  0
C  C64  1  0.52662156  0.54896190  0.82157272  1  0  -0.125235  0  3.753343  0  0  -0.142967  0  3.995348  0  0  -0.146047  0  4.017076  0  0  -0.097786  -0.14113  0  3.980694  0
C  C65  1  0.84908468  0.31036436  0.15215396  1  0  0.068316  0  3.707571  0  0  0.087781  0  3.940881  0  0  0.087264  0  3.966307  0  0  -0.008201  0.088227  0  3.923608  0
C  C66  1  0.15091185  0.68963795  0.84784546  1  0  0.068179  0  3.707715  0  0  0.087708  0  3.940916  0  0  0.087196  0  3.966324  0  0  -0.008253  0.088153  0  3.923642  0
C  C67  1  0.84730550  0.24604848  0.05002947  1  0  -0.132719  0  3.753128  0  0  -0.15034  0  3.996579  0  0  -0.154021  0  4.019587  0  0  -0.099451  -0.147814  0  3.980992  0
C  C68  1  0.15269107  0.75394808  0.94997075  1  0  -0.132587  0  3.753126  0  0  -0.150244  0  3.996536  0  0  -0.153912  0  4.019549  0  0  -0.099377  -0.147716  0  3.980948  0
C  C69  1  0.98580027  0.23420841  0.93535609  1  0  -0.080272  0  3.79227  0  0  -0.089016  0  4.036737  0  0  -0.090643  0  4.058283  0  0  -0.098334  -0.087721  0  4.021964  0
C  C70  1  0.01419024  0.76579290  0.06463966  1  0  -0.080328  0  3.792564  0  0  -0.089068  0  4.037023  0  0  -0.090688  0  4.058557  0  0  -0.098393  -0.087777  0  4.022249  0
C  C71  1  0.12915314  0.28575321  0.92097696  1  0  -0.081566  0  3.781407  0  0  -0.095183  0  4.028398  0  0  -0.097628  0  4.050276  0  0  -0.097297  -0.093577  0  4.013546  0
C  C72  1  0.87083715  0.71424904  0.07901326  1  0  -0.081441  0  3.781682  0  0  -0.095051  0  4.028629  0  0  -0.097481  0  4.050509  0  0  -0.097162  -0.09346  0  4.01378  0
C  C73  1  0.13391487  0.34777684  0.02284067  1  0  -0.062379  0  3.785613  0  0  -0.074316  0  4.031764  0  0  -0.075547  0  4.053844  0  0  -0.09178  -0.073414  0  4.016739  0
C  C74  1  0.86608493  0.65222738  0.97714576  1  0  -0.062525  0  3.785927  0  0  -0.074466  0  4.032087  0  0  -0.075695  0  4.054163  0  0  -0.091892  -0.073568  0  4.017067  0
C  C75  1  0.99533955  0.35969835  0.13691738  1  0  -0.11513  0  3.740779  0  0  -0.136129  0  3.988501  0  0  -0.139273  0  4.010745  0  0  -0.091397  -0.133887  0  3.973385  0
C  C76  1  0.00466300  0.64029920  0.86307470  1  0  -0.115198  0  3.740822  0  0  -0.136226  0  3.988527  0  0  -0.139371  0  4.010767  0  0  -0.091496  -0.133981  0  3.973416  0
C  C77  1  0.85560440  0.98002976  0.79594405  1  0  0.140634  0  3.702666  0  0  0.107834  0  3.957257  0  0  0.114867  0  3.975271  0  0  0.051402  0.103254  0  3.945155  0
C  C78  1  0.14439354  0.01997734  0.20405249  1  0  0.140637  0  3.702727  0  0  0.107824  0  3.957314  0  0  0.11485  0  3.975326  0  0  0.051367  0.103249  0  3.945205  0
C  C79  1  0.73681659  0.98476823  0.91956007  1  0  -0.15368  0  3.71135  0  0  -0.172293  0  3.956782  0  0  -0.180134  0  3.979067  0  0  -0.078324  -0.167165  0  3.941711  0
C  C80  1  0.26318260  0.01523888  0.08043704  1  0  -0.153722  0  3.711411  0  0  -0.172334  0  3.956875  0  0  -0.180169  0  3.979172  0  0  -0.078268  -0.167207  0  3.941801  0
C  C81  1  0.56494017  0.99789101  0.93504287  1  0  0.095698  0  3.758154  0  0  0.10877  0  3.98292  0  0  0.112603  0  4.004348  0  0  0.013055  0.10634  0  3.96824  0
C  C82  1  0.43506241  0.00210655  0.06495649  1  0  0.095919  0  3.758067  0  0  0.108883  0  3.982931  0  0  0.112714  0  4.004365  0  0  0.013103  0.106452  0  3.968251  0
C  C83  1  0.52268181  0.00651248  0.82154150  1  0  -0.158643  0  3.704007  0  0  -0.177752  0  3.952186  0  0  -0.185144  0  3.97206  0  0  -0.080519  -0.172895  0  3.938457  0
C  C84  1  0.47731601  0.99348409  0.17846111  1  0  -0.158837  0  3.704026  0  0  -0.177935  0  3.95225  0  0  -0.185331  0  3.97213  0  0  -0.080602  -0.173078  0  3.938522  0
C  C85  1  0.64952306  0.00027787  0.70144818  1  0  0.133853  0  3.704283  0  0  0.102844  0  3.958084  0  0  0.109704  0  3.975531  0  0  0.0513  0.098479  0  3.945895  0
C  C86  1  0.35046956  0.99971962  0.29855208  1  0  0.134011  0  3.704168  0  0  0.102941  0  3.958006  0  0  0.109796  0  3.975449  0  0  0.051339  0.098573  0  3.945818  0
C  C87  1  0.14724536  0.36819218  0.54529981  1  0  -0.339544  0  3.716498  0  0  -0.416287  0  3.960609  0  0  -0.4196  0  3.970618  0  0  -0.252829  -0.413726  0  3.953655  0
C  C88  1  0.85275928  0.63180731  0.45470416  1  0  -0.339585  0  3.716487  0  0  -0.416333  0  3.960581  0  0  -0.419634  0  3.970604  0  0  -0.252818  -0.413771  0  3.953627  0
C  C89  1  0.09970124  0.27389513  0.47895771  1  0  0.199536  0  3.642849  0  0  0.145984  0  3.915542  0  0  0.154449  0  3.92188  0  0  -0.079933  0.140194  0  3.911311  0
C  C90  1  0.90030320  0.72610532  0.52104619  1  0  0.199366  0  3.642854  0  0  0.145779  0  3.915583  0  0  0.154229  0  3.921935  0  0  -0.080077  0.139988  0  3.911357  0
N  N91  1  0.81370826  0.98733944  0.68786116  1  0  -0.313157  0  3.280567  0  0  -0.234218  0  3.541405  0  0  -0.251939  0  3.557701  0  0  -0.319361  -0.222293  0  3.530224  0
N  N92  1  0.18628557  0.01266382  0.31213887  1  0  -0.31316  0  3.28063  0  0  -0.23416  0  3.541442  0  0  -0.251858  0  3.557711  0  0  -0.31931  -0.222236  0  3.530262  0
O  O93  1  0.71171437  0.98727373  0.35452261  1  0  -0.633332  0  1.918031  0  0  -0.578373  0  2.137264  0  0  -0.602402  0  2.127482  0  0  -0.329346  -0.56175  0  2.143206  0
O  O94  1  0.28828779  0.01272575  0.64548023  1  0  -0.633263  0  1.918073  0  0  -0.578343  0  2.137349  0  0  -0.602372  0  2.12757  0  0  -0.329333  -0.561721  0  2.143293  0
O  O95  1  0.82077951  0.12521286  0.42840139  1  0  -0.645983  0  2.049965  0  0  -0.579365  0  2.31698  0  0  -0.606674  0  2.305911  0  0  -0.318788  -0.560415  0  2.323978  0
O  O96  1  0.17922449  0.87478950  0.57160053  1  0  -0.646041  0  2.049752  0  0  -0.579374  0  2.316755  0  0  -0.606679  0  2.305676  0  0  -0.318806  -0.560423  0  2.323753  0
O  O97  1  0.06042767  0.16124244  0.56423967  1  0  -0.584066  0  2.181177  0  0  -0.511764  0  2.434447  0  0  -0.532855  0  2.421335  0  0  -0.40361  -0.496821  0  2.443245  0
O  O98  1  0.93957491  0.83875512  0.43576240  1  0  -0.584038  0  2.181116  0  0  -0.511766  0  2.43449  0  0  -0.532846  0  2.421406  0  0  -0.403572  -0.496823  0  2.44329  0
