# generated using pymatgen
data_Zn2H10C6N12O
_symmetry_space_group_name_H-M   'P 1'
_cell_length_a   10.19071308
_cell_length_b   11.61152558
_cell_length_c   15.86000000
_cell_angle_alpha   105.75421574
_cell_angle_beta   90.00000000
_cell_angle_gamma   90.00000000
_symmetry_Int_Tables_number   1
_chemical_formula_structural   Zn2H10C6N12O
_chemical_formula_sum   'Zn8 H40 C24 N48 O4'
_cell_volume   1806.21134798
_cell_formula_units_Z   4
loop_
 _symmetry_equiv_pos_site_id
 _symmetry_equiv_pos_as_xyz
  1  'x, y, z'
loop_
 _atom_site_type_symbol
 _atom_site_label
 _atom_site_symmetry_multiplicity
 _atom_site_fract_x
 _atom_site_fract_y
 _atom_site_fract_z
 _atom_site_occupancy
 _atom_site_hle17_bader_charge
 _atom_site_hle17_bader_spin_density
 _atom_site_hle17_ddec_charge
 _atom_site_hle17_ddec_spin_density
 _atom_site_hle17_ddec_sum_bond_order
 _atom_site_hle17_magmom
 _atom_site_hse06_10hf_bader_spin_density
 _atom_site_hse06_10hf_ddec_charge
 _atom_site_hse06_10hf_ddec_spin_density
 _atom_site_hse06_10hf_ddec_sum_bond_order
 _atom_site_hse06_10hf_magmom
 _atom_site_hse06_bader_spin_density
 _atom_site_hse06_ddec_charge
 _atom_site_hse06_ddec_spin_density
 _atom_site_hse06_ddec_sum_bond_order
 _atom_site_hse06_magmom
 _atom_site_pbe_bader_charge
 _atom_site_pbe_bader_spin_density
 _atom_site_pbe_cm5_charge
 _atom_site_pbe_ddec_charge
 _atom_site_pbe_ddec_spin_density
 _atom_site_pbe_ddec_sum_bond_order
 _atom_site_pbe_magmom
Zn  Zn0  1  0.28708295  0.62749401  0.82470273  1  1.366145  0  0.97344  0  1.935029  0  0  0.774401  0  2.41604  0  0  0.81386  0  2.368849  0  1.234648  0  0.728734  0.747004  0  2.448306  0
Zn  Zn1  1  0.78708231  0.37250226  0.67529527  1  1.36625  0  0.973371  0  1.935113  0  0  0.774337  0  2.41615  0  0  0.813797  0  2.368963  0  1.234697  0  0.728703  0.746934  0  2.448417  0
Zn  Zn2  1  0.71291675  0.37250405  0.17529689  1  1.366185  0  0.973438  0  1.935036  0  0  0.774421  0  2.416036  0  0  0.813882  0  2.368845  0  1.234707  0  0.728721  0.747017  0  2.448304  0
Zn  Zn3  1  0.21291444  0.62750028  0.32470208  1  1.366154  0  0.973366  0  1.935087  0  0  0.774369  0  2.416085  0  0  0.813831  0  2.368892  0  1.234687  0  0.728706  0.746966  0  2.448354  0
Zn  Zn4  1  0.26259203  0.85156949  0.71494950  1  1.370174  0  0.968581  0  1.954648  0  0  0.763842  0  2.454168  0  0  0.803889  0  2.4057  0  1.239848  0  0.725965  0.735789  0  2.487588  0
Zn  Zn5  1  0.76259335  0.14842320  0.78505094  1  1.37032  0  0.968517  0  1.954589  0  0  0.76378  0  2.454085  0  0  0.803828  0  2.405627  0  1.239823  0  0.725916  0.735724  0  2.487503  0
Zn  Zn6  1  0.73740669  0.14843215  0.28505272  1  1.370177  0  0.968618  0  1.954614  0  0  0.763915  0  2.454097  0  0  0.803962  0  2.405631  0  1.239864  0  0.726012  0.735869  0  2.487516  0
Zn  Zn7  1  0.23740537  0.85157218  0.21494562  1  1.370195  0  0.968621  0  1.954497  0  0  0.763877  0  2.453969  0  0  0.803926  0  2.405508  0  1.239843  0  0.725998  0.735827  0  2.487387  0
H  H8  1  0.29033788  0.88617246  0.93922071  1  0.035282  0  0.14376  0  0.974285  0  0  0.159511  0  1.037264  0  0  0.162525  0  1.035315  0  0.102145  0  0.096642  0.157262  0  1.038763  0
H  H9  1  0.79034116  0.11383366  0.56078177  1  0.035268  0  0.143782  0  0.974205  0  0  0.159528  0  1.037197  0  0  0.162542  0  1.035248  0  0.10212  0  0.096652  0.157275  0  1.038698  0
H  H10  1  0.70965593  0.11382560  0.06078080  1  0.035147  0  0.14371  0  0.97439  0  0  0.15946  0  1.037388  0  0  0.162471  0  1.035443  0  0.101964  0  0.096634  0.157213  0  1.038883  0
H  H11  1  0.20966148  0.88617962  0.43922339  1  0.035198  0  0.143771  0  0.974355  0  0  0.159539  0  1.037309  0  0  0.162551  0  1.035363  0  0.102095  0  0.096643  0.157296  0  1.0388  0
H  H12  1  0.32065862  0.94965240  0.05392189  1  -0.051113  0  0.117408  0  0.944801  0  0  0.137674  0  1.004566  0  0  0.139335  0  1.00385  0  0.037104  0  0.095408  0.136421  0  1.005186  0
H  H13  1  0.82066092  0.05035103  0.44607943  1  -0.051081  0  0.117408  0  0.944829  0  0  0.137691  0  1.00457  0  0  0.139352  0  1.003854  0  0.037122  0  0.095417  0.136437  0  1.005192  0
H  H14  1  0.67933617  0.05034030  0.94608360  1  -0.050994  0  0.117404  0  0.944823  0  0  0.137672  0  1.004594  0  0  0.139335  0  1.003876  0  0.037706  0  0.09543  0.136419  0  1.005215  0
H  H15  1  0.17934074  0.94965687  0.55392215  1  -0.051151  0  0.11743  0  0.944751  0  0  0.137687  0  1.004534  0  0  0.139352  0  1.003813  0  0.037248  0  0.095423  0.136433  0  1.005155  0
H  H16  1  0.15769063  0.92308408  0.01506874  1  0.017324  0  0.145542  0  0.93525  0  0  0.159754  0  0.99985  0  0  0.162152  0  0.998441  0  0.079173  0  0.104755  0.158026  0  1.000846  0
H  H17  1  0.65769294  0.07692740  0.48493417  1  0.017278  0  0.145463  0  0.935308  0  0  0.159697  0  0.999889  0  0  0.162093  0  0.998479  0  0.080225  0  0.104727  0.157971  0  1.000882  0
H  H18  1  0.84230121  0.07690145  0.98493973  1  0.017138  0  0.145463  0  0.935209  0  0  0.159784  0  0.999703  0  0  0.162179  0  0.998292  0  0.079447  0  0.104754  0.158055  0  1.000701  0
H  H19  1  0.34230480  0.92309661  0.51506556  1  0.017074  0  0.145567  0  0.93529  0  0  0.159836  0  0.999812  0  0  0.162233  0  0.998402  0  0.079324  0  0.10478  0.158107  0  1.000811  0
H  H20  1  0.98716939  0.34322530  0.82527634  1  -0.009785  0  0.129787  0  0.972542  0  0  0.142959  0  1.043269  0  0  0.145471  0  1.041552  0  0.095303  0  0.098145  0.141113  0  1.044577  0
H  H21  1  0.48717297  0.65677187  0.67471554  1  -0.009846  0  0.129853  0  0.972487  0  0  0.143  0  1.043239  0  0  0.145515  0  1.041523  0  0.095231  0  0.098144  0.141156  0  1.044547  0
H  H22  1  0.01282540  0.65677187  0.17472184  1  -0.009788  0  0.129752  0  0.972622  0  0  0.142923  0  1.043332  0  0  0.145437  0  1.041618  0  0.095347  0  0.098123  0.141078  0  1.044643  0
H  H23  1  0.51282672  0.34322888  0.32528272  1  -0.009788  0  0.129788  0  0.972533  0  0  0.142941  0  1.043271  0  0  0.145458  0  1.04156  0  0.095268  0  0.098128  0.141097  0  1.044579  0
H  H24  1  0.12357722  0.43059086  0.87550861  1  0.016478  0  0.147377  0  0.944519  0  0  0.16177  0  1.010944  0  0  0.164379  0  1.008901  0  0.140539  0  0.106825  0.159967  0  1.012392  0
H  H25  1  0.62357952  0.56940094  0.62448345  1  0.016409  0  0.147472  0  0.944638  0  0  0.161877  0  1.010996  0  0  0.164488  0  1.008952  0  0.14047  0  0.106863  0.160077  0  1.01244  0
H  H26  1  0.87641757  0.56940273  0.12448759  1  0.016366  0  0.147521  0  0.944484  0  0  0.161883  0  1.010904  0  0  0.164494  0  1.008859  0  0.140328  0  0.106849  0.160078  0  1.012355  0
H  H27  1  0.37641821  0.43059981  0.37551480  1  0.01651  0  0.147472  0  0.944652  0  0  0.161853  0  1.011036  0  0  0.164466  0  1.008992  0  0.140481  0  0.106845  0.160051  0  1.012484  0
H  H28  1  0.14405076  0.32801145  0.77163988  1  -0.016448  0  0.134367  0  0.921344  0  0  0.153216  0  0.977962  0  0  0.155051  0  0.977334  0  0.043585  0  0.102418  0.152048  0  0.978289  0
H  H29  1  0.64405601  0.67197767  0.72835228  1  -0.016195  0  0.13435  0  0.921281  0  0  0.153201  0  0.977904  0  0  0.155037  0  0.977273  0  0.043882  0  0.102389  0.152033  0  0.978232  0
H  H30  1  0.85594501  0.67197498  0.22835931  1  -0.016218  0  0.134453  0  0.921314  0  0  0.15327  0  0.977948  0  0  0.155104  0  0.97732  0  0.043727  0  0.102426  0.152101  0  0.978276  0
H  H31  1  0.35594369  0.32802398  0.27164553  1  -0.01621  0  0.134378  0  0.921188  0  0  0.153191  0  0.977849  0  0  0.155026  0  0.977219  0  0.043908  0  0.102386  0.152023  0  0.978177  0
H  H32  1  0.32905548  0.09119632  0.86135189  1  0.005235  0  0.135979  0  0.979482  0  0  0.146464  0  1.051616  0  0  0.149495  0  1.049356  0  0.110635  0  0.09859  0.144053  0  1.053571  0
H  H33  1  0.82905975  0.90879906  0.63865476  1  0.005368  0  0.135908  0  0.979475  0  0  0.146422  0  1.051573  0  0  0.149451  0  1.049311  0  0.110713  0  0.098613  0.144011  0  1.053528  0
H  H34  1  0.67094912  0.90880801  0.13864708  1  0.005152  0  0.136008  0  0.979592  0  0  0.146493  0  1.051717  0  0  0.149524  0  1.04946  0  0.110525  0  0.098597  0.144073  0  1.053679  0
H  H35  1  0.17094093  0.09119632  0.36135441  1  0.005273  0  0.135947  0  0.979429  0  0  0.146405  0  1.051598  0  0  0.149435  0  1.04934  0  0.110502  0  0.09857  0.143995  0  1.053553  0
H  H36  1  0.43057340  0.21300915  0.85258357  1  0.020445  0  0.15133  0  0.943326  0  0  0.165946  0  1.008071  0  0  0.168377  0  1.006581  0  0.120208  0  0.108243  0.164266  0  1.009003  0
H  H37  1  0.93057472  0.78698713  0.64742262  1  0.02062  0  0.151406  0  0.943376  0  0  0.166022  0  1.008086  0  0  0.168455  0  1.006594  0  0.120151  0  0.108259  0.164343  0  1.009017  0
H  H38  1  0.56943807  0.78699249  0.14741297  1  0.020511  0  0.151402  0  0.943163  0  0  0.165998  0  1.00793  0  0  0.168429  0  1.006442  0  0.11997  0  0.108228  0.164319  0  1.00886  0
H  H39  1  0.06942105  0.21300646  0.35258619  1  0.020454  0  0.151418  0  0.943275  0  0  0.165975  0  1.008073  0  0  0.168406  0  1.006586  0  0.120264  0  0.108236  0.164296  0  1.009004  0
H  H40  1  0.49020318  0.10895953  0.90693016  1  -0.055625  0  0.12298  0  0.947773  0  0  0.144118  0  1.005059  0  0  0.145215  0  1.005361  0  0.034165  0  0.096915  0.143253  0  1.004856  0
H  H41  1  0.99020843  0.89103406  0.59307865  1  -0.055639  0  0.122821  0  0.947687  0  0  0.1439  0  1.005092  0  0  0.145  0  1.005389  0  0.034359  0  0.096783  0.143039  0  1.004885  0
H  H42  1  0.50980731  0.89103942  0.09306333  1  -0.055639  0  0.122894  0  0.947827  0  0  0.144053  0  1.005098  0  0  0.145152  0  1.0054  0  0.034152  0  0.096885  0.143189  0  1.004894  0
H  H43  1  0.00979519  0.10896490  0.40693879  1  -0.055785  0  0.122875  0  0.947773  0  0  0.144041  0  1.005029  0  0  0.145143  0  1.005328  0  0.034001  0  0.096856  0.143175  0  1.00483  0
H  H44  1  0.43401085  0.78751865  0.80135300  1  0.588165  0  0.385723  0  0.885994  0  0  0.37292  0  0.933134  0  0  0.379501  0  0.927211  0  0.589812  0  0.295637  0.368176  0  0.937473  0
H  H45  1  0.93401413  0.21247941  0.69864788  1  0.588477  0  0.385676  0  0.885995  0  0  0.372876  0  0.933143  0  0  0.379453  0  0.927224  0  0.589761  0  0.295587  0.36813  0  0.937484  0
H  H46  1  0.56599081  0.21247762  0.19864311  1  0.588329  0  0.385734  0  0.885968  0  0  0.372887  0  0.933189  0  0  0.379468  0  0.927265  0  0.58982  0  0.2956  0.368144  0  0.937526  0
H  H47  1  0.06598557  0.78752850  0.30135496  1  0.588599  0  0.385671  0  0.885967  0  0  0.372825  0  0.9332  0  0  0.379406  0  0.927276  0  0.589581  0  0.295553  0.368082  0  0.937537  0
C  C48  1  0.26101903  0.76601595  0.01828864  1  0.947409  0  0.406817  0  3.746253  0  0  0.386655  0  4.006526  0  0  0.400743  0  4.023926  0  0.983036  0  0.228377  0.377267  0  3.994551  0
C  C49  1  0.76100955  0.23398748  0.48170952  1  0.947041  0  0.406822  0  3.746218  0  0  0.386679  0  4.006492  0  0  0.400769  0  4.02389  0  0.983316  0  0.228341  0.377289  0  3.99452  0
C  C50  1  0.73899245  0.23397405  0.98171379  1  0.947407  0  0.407158  0  3.746014  0  0  0.386949  0  4.006317  0  0  0.401042  0  4.02371  0  0.983644  0  0.228541  0.37756  0  3.994345  0
C  C51  1  0.23899407  0.76602401  0.51828709  1  0.947464  0  0.40721  0  3.745958  0  0  0.386983  0  4.006316  0  0  0.401075  0  4.023707  0  0.983314  0  0.228479  0.377592  0  3.994347  0
C  C52  1  0.25837544  0.88798180  0.00551606  1  0.245371  0  -0.402912  0  3.708368  0  0  -0.478937  0  3.943451  0  0  -0.482923  0  3.948262  0  -0.009277  0  -0.235579  -0.47592  0  3.940121  0
C  C53  1  0.75837774  0.11202163  0.49448462  1  0.245473  0  -0.402832  0  3.708315  0  0  -0.478885  0  3.943372  0  0  -0.482869  0  3.948183  0  -0.010218  0  -0.235533  -0.475866  0  3.940044  0
C  C54  1  0.74161935  0.11201000  0.99449240  1  0.245345  0  -0.402887  0  3.708217  0  0  -0.478986  0  3.943261  0  0  -0.48297  0  3.948069  0  -0.010153  0  -0.235645  -0.475969  0  3.939932  0
C  C55  1  0.24162686  0.88799164  0.50551297  1  0.245523  0  -0.403094  0  3.70824  0  0  -0.479128  0  3.943287  0  0  -0.483114  0  3.94809  0  -0.009686  0  -0.235653  -0.476114  0  3.939954  0
C  C56  1  0.03681391  0.48650056  0.77071317  1  0.946459  0  0.409935  0  3.734365  0  0  0.392083  0  3.989266  0  0  0.405909  0  4.006798  0  0.986736  0  0.231672  0.38303  0  3.976955  0
C  C57  1  0.53681327  0.51349392  0.72928069  1  0.946473  0  0.410132  0  3.733997  0  0  0.392288  0  3.988917  0  0  0.406113  0  4.006449  0  0.98657  0  0.231761  0.383235  0  3.976608  0
C  C58  1  0.96318677  0.51349303  0.22928493  1  0.946558  0  0.409886  0  3.734317  0  0  0.392074  0  3.989195  0  0  0.405898  0  4.006729  0  0.986588  0  0.23166  0.38302  0  3.976884  0
C  C59  1  0.46318545  0.48650862  0.27071792  1  0.946483  0  0.409849  0  3.734282  0  0  0.392023  0  3.989196  0  0  0.40585  0  4.006729  0  0.986601  0  0.231623  0.382971  0  3.976883  0
C  C60  1  0.07417440  0.39130258  0.81267238  1  0.248232  0  -0.402377  0  3.697366  0  0  -0.475765  0  3.928217  0  0  -0.479653  0  3.933654  0  -0.079911  0  -0.231368  -0.472908  0  3.924274  0
C  C61  1  0.57417964  0.60868833  0.68731950  1  0.248096  0  -0.402632  0  3.697393  0  0  -0.476013  0  3.92824  0  0  -0.479904  0  3.933673  0  -0.080091  0  -0.231414  -0.473158  0  3.924299  0
C  C62  1  0.92582138  0.60868922  0.18732662  1  0.248135  0  -0.40259  0  3.697514  0  0  -0.475917  0  3.928346  0  0  -0.479807  0  3.933781  0  -0.079784  0  -0.231356  -0.473061  0  3.924408  0
C  C63  1  0.42581711  0.39131421  0.31267848  1  0.248014  0  -0.402544  0  3.697454  0  0  -0.475871  0  3.928306  0  0  -0.479768  0  3.933743  0  -0.080086  0  -0.231355  -0.473016  0  3.924364  0
C  C64  1  0.48364721  0.04459103  0.76728943  1  0.91719  0  0.410106  0  3.741477  0  0  0.388069  0  4.007053  0  0  0.402198  0  4.023644  0  0.95852  0  0.229402  0.378467  0  3.995725  0
C  C65  1  0.98365050  0.95540614  0.73271316  1  0.91709  0  0.410106  0  3.741504  0  0  0.388054  0  4.007109  0  0  0.402177  0  4.023696  0  0.958519  0  0.229354  0.378448  0  3.995777  0
C  C66  1  0.51635346  0.95541151  0.23270225  1  0.917621  0  0.410017  0  3.741508  0  0  0.387955  0  4.007135  0  0  0.402086  0  4.023722  0  0.958699  0  0.229249  0.378345  0  3.99582  0
C  C67  1  0.01635018  0.04459282  0.26729546  1  0.917341  0  0.410028  0  3.741482  0  0  0.387982  0  4.007078  0  0  0.402113  0  4.023668  0  0.958398  0  0.229303  0.378372  0  3.995763  0
C  C68  1  0.42986393  0.11803845  0.85173172  1  0.275039  0  -0.39764  0  3.689819  0  0  -0.469666  0  3.919764  0  0  -0.47367  0  3.925274  0  -0.055342  0  -0.233618  -0.46643  0  3.91587  0
C  C69  1  0.92986623  0.88195514  0.64827457  1  0.274768  0  -0.397454  0  3.689746  0  0  -0.469447  0  3.919695  0  0  -0.473463  0  3.925219  0  -0.055431  0  -0.233513  -0.466214  0  3.915796  0
C  C70  1  0.57014362  0.88196498  0.14826455  1  0.275031  0  -0.3976  0  3.689866  0  0  -0.469615  0  3.91981  0  0  -0.473612  0  3.925291  0  -0.055019  0  -0.233512  -0.466368  0  3.915926  0
C  C71  1  0.07013150  0.11804024  0.35173901  1  0.275155  0  -0.397537  0  3.689677  0  0  -0.469509  0  3.919664  0  0  -0.473508  0  3.925143  0  -0.054876  0  -0.23348  -0.466271  0  3.915771  0
N  N72  1  0.26774083  0.66204956  0.95544118  1  -0.840212  0  -0.371333  0  3.19876  0  0  -0.296512  0  3.498556  0  0  -0.316286  0  3.509328  0  -0.808968  0  -0.250941  -0.283342  0  3.491192  0
N  N73  1  0.76775098  0.33795298  0.54455680  1  -0.83975  0  -0.371278  0  3.198609  0  0  -0.29643  0  3.498373  0  0  -0.316206  0  3.509147  0  -0.809198  0  -0.250871  -0.283258  0  3.491009  0
N  N74  1  0.73225690  0.33794403  0.04455439  1  -0.840026  0  -0.371709  0  3.199147  0  0  -0.296814  0  3.49888  0  0  -0.316591  0  3.50965  0  -0.809169  0  -0.251077  -0.283641  0  3.491516  0
N  N75  1  0.23225853  0.66205672  0.45544261  1  -0.840118  0  -0.371648  0  3.199129  0  0  -0.296814  0  3.498951  0  0  -0.316591  0  3.509721  0  -0.809249  0  -0.251047  -0.283642  0  3.491589  0
N  N76  1  0.25722636  0.57238161  0.99559991  1  -0.073519  0  -0.06963  0  2.947004  0  0  -0.070374  0  3.24199  0  0  -0.068408  0  3.251289  0  -0.070374  0  -0.094081  -0.071611  0  3.23591  0
N  N77  1  0.75723258  0.42762093  0.50439681  1  -0.073528  0  -0.069639  0  2.946818  0  0  -0.070387  0  3.241792  0  0  -0.06842  0  3.251091  0  -0.070375  0  -0.094126  -0.071626  0  3.235714  0
N  N78  1  0.74277138  0.42761288  0.00439521  1  -0.073438  0  -0.069351  0  2.946789  0  0  -0.07009  0  3.241725  0  0  -0.068122  0  3.251022  0  -0.070155  0  -0.093972  -0.071326  0  3.235644  0
N  N79  1  0.24277006  0.57238518  0.49559999  1  -0.073395  0  -0.069443  0  2.947105  0  0  -0.070167  0  3.242059  0  0  -0.0682  0  3.251358  0  -0.070276  0  -0.094031  -0.071404  0  3.235978  0
N  N80  1  0.24631740  0.61945847  0.07944590  1  -0.130818  0  -0.064679  0  2.953374  0  0  -0.067706  0  3.253759  0  0  -0.06556  0  3.263787  0  -0.127851  0  -0.093085  -0.069075  0  3.247128  0
N  N81  1  0.74632363  0.38054139  0.42055092  1  -0.130906  0  -0.064754  0  2.953349  0  0  -0.067761  0  3.253758  0  0  -0.065614  0  3.263786  0  -0.127956  0  -0.093083  -0.069128  0  3.247127  0
N  N82  1  0.75367739  0.38053065  0.92054942  1  -0.130639  0  -0.064979  0  2.953361  0  0  -0.068013  0  3.25379  0  0  -0.065865  0  3.263817  0  -0.127927  0  -0.093219  -0.069381  0  3.247158  0
N  N83  1  0.25367607  0.61946205  0.57944535  1  -0.130698  0  -0.064781  0  2.953432  0  0  -0.0678  0  3.253831  0  0  -0.065653  0  3.263859  0  -0.127862  0  -0.093105  -0.069168  0  3.2472  0
N  N84  1  0.24933682  0.74069592  0.09562436  1  -0.822759  0  -0.3791  0  3.246355  0  0  -0.304883  0  3.561997  0  0  -0.325268  0  3.572521  0  -0.790034  0  -0.256076  -0.291194  0  3.5546  0
N  N85  1  0.74934894  0.25930214  0.40437147  1  -0.822838  0  -0.37907  0  3.246282  0  0  -0.304947  0  3.562033  0  0  -0.325333  0  3.572553  0  -0.790134  0  -0.256104  -0.291255  0  3.554634  0
N  N86  1  0.75065306  0.25929409  0.90437428  1  -0.823113  0  -0.378964  0  3.246136  0  0  -0.304804  0  3.561907  0  0  -0.32519  0  3.572433  0  -0.79039  0  -0.255989  -0.29111  0  3.554504  0
N  N87  1  0.25065567  0.74070219  0.59562498  1  -0.822906  0  -0.379134  0  3.246205  0  0  -0.304934  0  3.561925  0  0  -0.325321  0  3.572444  0  -0.789933  0  -0.256039  -0.291244  0  3.55453  0
N  N88  1  0.10853706  0.58473380  0.77498908  1  -0.83007  0  -0.363934  0  3.229327  0  0  -0.290339  0  3.534805  0  0  -0.309906  0  3.545157  0  -0.799094  0  -0.250215  -0.276898  0  3.527228  0
N  N89  1  0.60853347  0.41525889  0.72500442  1  -0.830142  0  -0.363973  0  3.229165  0  0  -0.290445  0  3.534736  0  0  -0.310014  0  3.54509  0  -0.799131  0  -0.250259  -0.277004  0  3.527162  0
N  N90  1  0.89146657  0.41525621  0.22500767  1  -0.83005  0  -0.363976  0  3.229297  0  0  -0.29044  0  3.534832  0  0  -0.310008  0  3.545185  0  -0.799352  0  -0.250264  -0.276997  0  3.527256  0
N  N91  1  0.39146328  0.58474275  0.27499275  1  -0.830128  0  -0.363832  0  3.229243  0  0  -0.290299  0  3.534777  0  0  -0.309866  0  3.54513  0  -0.79941  0  -0.250182  -0.276858  0  3.5272  0
N  N92  1  0.04192052  0.65215903  0.73159305  1  -0.105485  0  -0.070331  0  2.987684  0  0  -0.068323  0  3.292228  0  0  -0.067181  0  3.303512  0  -0.098444  0  -0.087973  -0.068838  0  3.284466  0
N  N93  1  0.54191988  0.34783814  0.76840513  1  -0.105509  0  -0.070272  0  2.987765  0  0  -0.068233  0  3.292313  0  0  -0.067091  0  3.303601  0  -0.098475  0  -0.087933  -0.068748  0  3.284552  0
N  N94  1  0.95808114  0.34783635  0.26840793  1  -0.105609  0  -0.070207  0  2.987663  0  0  -0.068166  0  3.292186  0  0  -0.067025  0  3.303473  0  -0.098326  0  -0.087901  -0.068681  0  3.284424  0
N  N95  1  0.45807786  0.65216261  0.23159250  1  -0.105594  0  -0.070318  0  2.987905  0  0  -0.068294  0  3.292466  0  0  -0.067153  0  3.303755  0  -0.098329  0  -0.087972  -0.06881  0  3.284706  0
N  N96  1  0.93380708  0.59733297  0.70107237  1  -0.10157  0  -0.073822  0  2.940709  0  0  -0.074403  0  3.236231  0  0  -0.073141  0  3.247144  0  -0.096864  0  -0.092874  -0.075222  0  3.228889  0
N  N97  1  0.43380870  0.40266957  0.79892688  1  -0.101576  0  -0.073914  0  2.94092  0  0  -0.074505  0  3.236445  0  0  -0.073244  0  3.24736  0  -0.09676  0  -0.092946  -0.075324  0  3.229103  0
N  N98  1  0.06619360  0.40266688  0.29892823  1  -0.101595  0  -0.073917  0  2.94066  0  0  -0.074483  0  3.236185  0  0  -0.073223  0  3.247099  0  -0.096897  0  -0.092904  -0.075302  0  3.228843  0
N  N99  1  0.56619100  0.59733207  0.20107282  1  -0.101505  0  -0.073877  0  2.940821  0  0  -0.074443  0  3.236356  0  0  -0.073184  0  3.247274  0  -0.096798  0  -0.092879  -0.075263  0  3.229014  0
N  N100  1  0.92786637  0.49255496  0.72415122  1  -0.823441  0  -0.374737  0  3.202066  0  0  -0.301067  0  3.508171  0  0  -0.320499  0  3.517823  0  -0.797186  0  -0.249643  -0.287804  0  3.50127  0
N  N101  1  0.42786505  0.50744578  0.77584452  1  -0.823268  0  -0.3747  0  3.202115  0  0  -0.301017  0  3.508207  0  0  -0.320447  0  3.517857  0  -0.797042  0  -0.2496  -0.287756  0  3.501306  0
N  N102  1  0.07213725  0.50744220  0.27584507  1  -0.823358  0  -0.374605  0  3.20202  0  0  -0.300991  0  3.508155  0  0  -0.320421  0  3.517806  0  -0.797014  0  -0.249619  -0.287728  0  3.501252  0
N  N103  1  0.57213563  0.49255675  0.22415536  1  -0.82333  0  -0.374607  0  3.202053  0  0  -0.30098  0  3.50818  0  0  -0.320411  0  3.517833  0  -0.79699  0  -0.249605  -0.287716  0  3.501277  0
N  N104  1  0.41907764  0.95928700  0.70723555  1  -0.811575  0  -0.385661  0  3.179552  0  0  -0.312737  0  3.47811  0  0  -0.332174  0  3.489739  0  -0.788347  0  -0.252376  -0.299179  0  3.469942  0
N  N105  1  0.91908485  0.04071016  0.79276830  1  -0.81117  0  -0.385813  0  3.17959  0  0  -0.312868  0  3.478153  0  0  -0.332304  0  3.489781  0  -0.788399  0  -0.252394  -0.29931  0  3.469986  0
N  N106  1  0.58091617  0.04071285  0.29275938  1  -0.81134  0  -0.385761  0  3.179601  0  0  -0.312832  0  3.478158  0  0  -0.33227  0  3.489782  0  -0.788591  0  -0.252391  -0.29927  0  3.469992  0
N  N107  1  0.08091975  0.95929058  0.20724067  1  -0.8115  0  -0.3856  0  3.179355  0  0  -0.312653  0  3.477901  0  0  -0.33209  0  3.489526  0  -0.78864  0  -0.252322  -0.299093  0  3.469735  0
N  N108  1  0.50288630  0.91695720  0.63869573  1  -0.110842  0  -0.07787  0  2.964036  0  0  -0.078369  0  3.256831  0  0  -0.077083  0  3.268068  0  -0.110017  0  -0.09716  -0.079187  0  3.249239  0
N  N109  1  0.00289381  0.08304892  0.86130927  1  -0.110966  0  -0.077663  0  2.963942  0  0  -0.078162  0  3.256709  0  0  -0.076877  0  3.267949  0  -0.109695  0  -0.097042  -0.078981  0  3.249119  0
N  N110  1  0.49710555  0.08304355  0.36130190  1  -0.110872  0  -0.077683  0  2.963928  0  0  -0.078162  0  3.256692  0  0  -0.076877  0  3.267931  0  -0.109694  0  -0.09703  -0.07898  0  3.2491  0
N  N111  1  0.99711177  0.91696615  0.13869436  1  -0.110623  0  -0.077898  0  2.963879  0  0  -0.078402  0  3.256654  0  0  -0.077117  0  3.267894  0  -0.109653  0  -0.097148  -0.07922  0  3.24906  0
N  N112  1  0.61346051  0.97372772  0.65604681  1  -0.112558  0  -0.063554  0  2.980121  0  0  -0.053142  0  3.268791  0  0  -0.052226  0  3.279807  0  -0.106003  0  -0.085262  -0.053693  0  3.261649  0
N  N113  1  0.11346605  0.02627481  0.84395747  1  -0.112746  0  -0.063597  0  2.980303  0  0  -0.053158  0  3.268951  0  0  -0.052249  0  3.279966  0  -0.106487  0  -0.085298  -0.053716  0  3.261805  0
N  N114  1  0.38653527  0.02626944  0.34394506  1  -0.112445  0  -0.063597  0  2.980234  0  0  -0.053189  0  3.268906  0  0  -0.052274  0  3.279929  0  -0.1059  0  -0.085264  -0.053739  0  3.261764  0
N  N115  1  0.88653953  0.97373846  0.15604895  1  -0.112586  0  -0.063538  0  2.980223  0  0  -0.053105  0  3.26888  0  0  -0.052191  0  3.279904  0  -0.105998  0  -0.085264  -0.053655  0  3.261732  0
N  N116  1  0.60487720  0.05395629  0.73628788  1  -0.819251  0  -0.379005  0  3.235127  0  0  -0.306783  0  3.548896  0  0  -0.326592  0  3.558784  0  -0.790182  0  -0.256077  -0.293443  0  3.54224  0
N  N117  1  0.10487588  0.94603998  0.76371768  1  -0.819244  0  -0.379029  0  3.235285  0  0  -0.306829  0  3.549077  0  0  -0.326619  0  3.55895  0  -0.790109  0  -0.256047  -0.293471  0  3.542407  0
N  N118  1  0.39512642  0.94604445  0.26370470  1  -0.819936  0  -0.379039  0  3.235137  0  0  -0.306817  0  3.548909  0  0  -0.326629  0  3.558797  0  -0.790482  0  -0.256092  -0.293476  0  3.542261  0
N  N119  1  0.89512186  0.05395629  0.23629293  1  -0.819688  0  -0.379035  0  3.235196  0  0  -0.306831  0  3.548993  0  0  -0.326642  0  3.558881  0  -0.790378  0  -0.256078  -0.293491  0  3.542345  0
O  O120  1  0.33932856  0.77945536  0.80239771  1  -1.284  0  -0.906578  0  1.902921  0  0  -0.8004  0  2.190275  0  0  -0.827556  0  2.159161  0  -1.227562  0  -0.581448  -0.781424  0  2.211652  0
O  O121  1  0.83933184  0.22054628  0.69760576  1  -1.284317  0  -0.906489  0  1.902876  0  0  -0.800318  0  2.190225  0  0  -0.827469  0  2.159122  0  -1.227505  0  -0.581377  -0.781337  0  2.2116  0
O  O122  1  0.66067212  0.22054270  0.19760064  1  -1.284144  0  -0.906548  0  1.902872  0  0  -0.800353  0  2.190262  0  0  -0.82751  0  2.15915  0  -1.227578  0  -0.581422  -0.781381  0  2.211637  0
O  O123  1  0.16066687  0.77945894  0.30239527  1  -1.284421  0  -0.906498  0  1.902879  0  0  -0.800288  0  2.190243  0  0  -0.827446  0  2.159136  0  -1.227362  0  -0.581343  -0.781307  0  2.211609  0
