# generated using pymatgen
data_CuH22C16(SN3)2
_symmetry_space_group_name_H-M   'P 1'
_cell_length_a   7.97759039
_cell_length_b   8.49304146
_cell_length_c   13.80017925
_cell_angle_alpha   90.00073238
_cell_angle_beta   89.99813420
_cell_angle_gamma   92.51960258
_symmetry_Int_Tables_number   1
_chemical_formula_structural   CuH22C16(SN3)2
_chemical_formula_sum   'Cu2 H44 C32 S4 N12'
_cell_volume   934.11348872
_cell_formula_units_Z   2
loop_
 _symmetry_equiv_pos_site_id
 _symmetry_equiv_pos_as_xyz
  1  'x, y, z'
loop_
 _atom_site_type_symbol
 _atom_site_label
 _atom_site_symmetry_multiplicity
 _atom_site_fract_x
 _atom_site_fract_y
 _atom_site_fract_z
 _atom_site_occupancy
 _atom_site_hle17_ddec_charge
 _atom_site_hle17_ddec_spin_density
 _atom_site_hle17_ddec_sum_bond_order
 _atom_site_hle17_magmom
 _atom_site_hse06_10hf_bader_charge
 _atom_site_hse06_10hf_bader_spin_density
 _atom_site_hse06_10hf_ddec_charge
 _atom_site_hse06_10hf_ddec_spin_density
 _atom_site_hse06_10hf_ddec_sum_bond_order
 _atom_site_hse06_10hf_magmom
 _atom_site_hse06_ddec_charge
 _atom_site_hse06_ddec_spin_density
 _atom_site_hse06_ddec_sum_bond_order
 _atom_site_hse06_magmom
 _atom_site_pbe_cm5_charge
 _atom_site_pbe_ddec_charge
 _atom_site_pbe_ddec_spin_density
 _atom_site_pbe_ddec_sum_bond_order
 _atom_site_pbe_magmom
Cu  Cu0  1  0.50000486  0.99999599  0.00000135  1  0.812491  0.621015  1.940087  0.439  1.06464  0.58222  0.816651  0.73974  2.334822  0.581  0.900517  0.809232  2.2695  0.667  0.821407  0.766364  0.688851  2.378719  0.522
Cu  Cu1  1  0.49999586  0.49999837  0.50000305  1  0.812392  0.621037  1.940097  0.439  1.064408  0.582256  0.816549  0.739788  2.334815  0.581  0.900393  0.809266  2.269513  0.667  0.821426  0.76626  0.688907  2.378689  0.522
H  H2  1  0.98613268  0.27897004  0.74751538  1  0.114732  -0.000328  0.96519  0.0  0.086962  -0.000204  0.13245  -0.000189  1.033243  0.0  0.134107  -0.000215  1.033228  0.0  0.09308  0.131203  -0.000162  1.033335  0.0
H  H3  1  0.01386824  0.22103737  0.24751418  1  0.114679  -0.000327  0.96496  0.0  0.087142  -0.000204  0.132357  -0.000189  1.033065  0.0  0.134012  -0.000215  1.03305  0.0  0.093009  0.131113  -0.000162  1.033156  0.0
H  H4  1  0.01386187  0.72103496  0.25247984  1  0.114667  -0.000329  0.965123  0.0  0.087004  -0.000204  0.132355  -0.000189  1.033201  0.0  0.134011  -0.000215  1.033189  0.0  0.093036  0.13111  -0.000162  1.03329  0.0
H  H5  1  0.98613370  0.77896415  0.75247814  1  0.11462  -0.000328  0.964951  0.0  0.087084  -0.000204  0.132297  -0.000189  1.033057  0.0  0.133952  -0.000216  1.033044  0.0  0.092989  0.131051  -0.000162  1.033147  0.0
H  H6  1  0.99053988  0.13349172  0.65424932  1  0.121847  0.000312  0.963788  0.0  0.053124  0.000491  0.144074  0.000283  1.02352  0.0  0.146157  0.00018  1.022636  0.0  0.092227  0.142379  0.000369  1.024379  0.0
H  H7  1  0.00947008  0.36651752  0.15424789  1  0.12188  0.000314  0.963742  0.0  0.053433  0.000491  0.144043  0.000283  1.023573  0.0  0.146127  0.00018  1.022687  0.0  0.092206  0.142347  0.000369  1.024435  0.0
H  H8  1  0.00944961  0.86651207  0.34574591  1  0.121811  0.000314  0.963804  0.0  0.053212  0.000491  0.144032  0.000283  1.023544  0.0  0.146113  0.00018  1.022667  0.0  0.0922  0.142336  0.000369  1.024407  0.0
H  H9  1  0.99054588  0.63348999  0.84574588  1  0.121814  0.000313  0.963769  0.0  0.053053  0.000491  0.144018  0.000283  1.023543  0.0  0.146101  0.00018  1.022661  0.0  0.092193  0.142318  0.000369  1.02441  0.0
H  H10  1  0.09785722  0.10505670  0.76501853  1  0.117956  -0.000328  0.94301  0.0  0.050327  -0.000174  0.140429  -0.000148  1.002358  0.0  0.142061  -0.000185  1.001823  0.0  0.095299  0.139147  -0.000118  1.00286  0.0
H  H11  1  0.90214421  0.39495694  0.26501782  1  0.117896  -0.000328  0.943037  0.0  0.050639  -0.000174  0.140371  -0.000148  1.002384  0.0  0.142003  -0.000185  1.001848  0.0  0.095295  0.13909  -0.000118  1.002882  0.0
H  H12  1  0.90213491  0.89495065  0.23497742  1  0.117818  -0.000328  0.943015  0.0  0.050578  -0.000174  0.140299  -0.000148  1.002358  0.0  0.141934  -0.000185  1.00182  0.0  0.095266  0.139017  -0.000118  1.002857  0.0
H  H13  1  0.09785647  0.60504457  0.73497305  1  0.117798  -0.000327  0.943014  0.0  0.050367  -0.000174  0.140261  -0.000148  1.002376  0.0  0.14189  -0.000185  1.001844  0.0  0.095253  0.138981  -0.000118  1.002872  0.0
H  H14  1  0.70793986  0.94428155  0.64659729  1  0.138552  0.000438  0.980143  0.001  0.114986  0.001024  0.146835  0.000459  1.044334  0.001  0.150344  0.000344  1.043911  0.001  0.101576  0.144156  0.000541  1.044959  0.001
H  H15  1  0.29206720  0.55573213  0.14660403  1  0.138631  0.000436  0.980185  0.001  0.115002  0.001024  0.14686  0.000459  1.044408  0.001  0.150364  0.000344  1.044003  0.001  0.101588  0.14418  0.000541  1.045034  0.001
H  H16  1  0.29205097  0.05572460  0.35340156  1  0.138565  0.000437  0.980147  0.001  0.114957  0.001024  0.146833  0.00046  1.044332  0.001  0.150309  0.000344  1.04395  0.001  0.101584  0.144154  0.000541  1.044955  0.001
H  H17  1  0.70794467  0.44426711  0.85340134  1  0.138591  0.000435  0.980122  0.001  0.114932  0.001025  0.146868  0.00046  1.044304  0.001  0.150364  0.000344  1.043914  0.001  0.101596  0.144189  0.000542  1.044932  0.001
H  H18  1  0.41212114  0.75076901  0.84869236  1  0.121159  0.000177  0.965253  0.0  0.082668  0.000112  0.136565  3.1e-05  1.035272  0.0  0.138439  -6.7e-05  1.035106  0.0  0.090419  0.135085  0.000129  1.035562  0.0
H  H19  1  0.58788055  0.74923551  0.34869718  1  0.121215  0.000177  0.965358  0.0  0.082756  0.000113  0.136644  3.2e-05  1.035355  0.0  0.138516  -6.7e-05  1.035188  0.0  0.090466  0.135164  0.000129  1.035642  0.0
H  H20  1  0.58787959  0.24923368  0.15131084  1  0.121145  0.000179  0.965252  0.0  0.082709  0.000112  0.136574  3.1e-05  1.035256  0.0  0.138449  -6.7e-05  1.035091  0.0  0.090433  0.135096  0.000129  1.035545  0.0
H  H21  1  0.41212371  0.25076132  0.65131108  1  0.121106  0.000177  0.965392  0.0  0.08286  0.000113  0.13657  3.1e-05  1.035359  0.0  0.138444  -6.7e-05  1.035194  0.0  0.090456  0.135091  0.000129  1.035645  0.0
H  H22  1  0.44872035  0.74264846  0.72132407  1  0.127512  -0.000269  0.955943  0.0  0.063422  -0.00028  0.14992  -0.000214  1.010576  0.0  0.1515  -0.000213  1.011304  0.0  0.094699  0.148771  -0.000203  1.010114  0.0
H  H23  1  0.55128460  0.75735367  0.22132893  1  0.127532  -0.00027  0.956018  0.0  0.063537  -0.00028  0.149935  -0.000214  1.010647  0.0  0.151516  -0.000213  1.011376  0.0  0.09471  0.148785  -0.000203  1.010183  0.0
H  H24  1  0.55128038  0.25735423  0.27868130  1  0.127411  -0.000265  0.9559  0.0  0.063373  -0.00028  0.149858  -0.000214  1.010522  0.0  0.151442  -0.000213  1.011249  0.0  0.094668  0.148711  -0.000203  1.01006  0.0
H  H25  1  0.44872077  0.24263964  0.77867862  1  0.127443  -0.00027  0.955863  0.0  0.063881  -0.000279  0.149891  -0.000214  1.01047  0.0  0.151474  -0.000213  1.011199  0.0  0.094675  0.148745  -0.000203  1.010009  0.0
H  H26  1  0.32647616  0.89265465  0.76908172  1  0.107567  -0.000507  0.956961  0.0  0.023268  -0.000358  0.125839  -0.000341  1.024632  0.0  0.127491  -0.000375  1.024518  0.0  0.087462  0.12453  -0.000298  1.024893  0.0
H  H27  1  0.67352880  0.60735191  0.26908381  1  0.10758  -0.000505  0.956931  0.0  0.023237  -0.000358  0.125859  -0.000341  1.02461  0.0  0.127511  -0.000375  1.024494  0.0  0.087466  0.124551  -0.000298  1.024871  0.0
H  H28  1  0.67352206  0.10734802  0.23092148  1  0.10753  -0.000502  0.956949  0.0  0.023281  -0.000358  0.12581  -0.000341  1.024628  0.0  0.127459  -0.000375  1.024518  0.0  0.087448  0.124502  -0.000298  1.024889  0.0
H  H29  1  0.32647277  0.39264018  0.73092518  1  0.107534  -0.000503  0.956893  0.0  0.023539  -0.000358  0.125786  -0.000341  1.024626  0.0  0.127439  -0.000375  1.024513  0.0  0.08739  0.124476  -0.000299  1.024888  0.0
H  H30  1  0.77060523  0.23990573  0.97772587  1  0.077912  -0.000148  0.970553  0.0  0.080227  -0.000183  0.088517  -0.00023  1.046135  0.0  0.090228  -0.000273  1.044095  0.0  0.101799  0.087027  -0.000154  1.047967  0.0
H  H31  1  0.22939266  0.26009662  0.47772742  1  0.077908  -0.000151  0.970525  0.0  0.080219  -0.000182  0.088497  -0.00023  1.046119  0.0  0.090203  -0.000273  1.044084  0.0  0.101796  0.087005  -0.000154  1.047947  0.0
H  H32  1  0.22940270  0.76008877  0.02227370  1  0.077798  -0.000151  0.970584  0.0  0.080062  -0.000182  0.088404  -0.00023  1.0462  0.0  0.090114  -0.000273  1.044155  0.0  0.101742  0.08691  -0.000153  1.04803  0.0
H  H33  1  0.77058429  0.73990709  0.52227505  1  0.077787  -0.000147  0.970483  0.0  0.079773  -0.000183  0.088368  -0.00023  1.046093  0.0  0.090077  -0.000273  1.044059  0.0  0.101733  0.086875  -0.000154  1.047924  0.0
H  H34  1  0.96237045  0.24012145  0.91354446  1  0.07148  0.000727  0.974892  0.0  0.09836  0.000283  0.087271  0.000331  1.045351  0.0  0.08847  0.000163  1.046119  0.0  0.101326  0.086315  0.000513  1.044871  0.0
H  H35  1  0.03763339  0.25987736  0.41354601  1  0.071502  0.000727  0.97485  0.0  0.09853  0.000283  0.087282  0.000331  1.045321  0.0  0.08848  0.000163  1.046089  0.0  0.101336  0.086324  0.000512  1.044837  0.0
H  H36  1  0.03763265  0.75987773  0.08644932  1  0.071504  0.000725  0.974826  0.0  0.098175  0.000283  0.087283  0.000331  1.045311  0.0  0.088479  0.000163  1.04608  0.0  0.10135  0.086325  0.000512  1.044827  0.0
H  H37  1  0.96235247  0.74012994  0.58645066  1  0.071499  0.000734  0.974689  0.0  0.098742  0.000283  0.087242  0.000331  1.045209  0.0  0.088441  0.000163  1.04598  0.0  0.101291  0.086286  0.000512  1.044723  0.0
H  H38  1  0.99303755  0.13066794  0.07661620  1  0.077313  7.7e-05  0.944962  0.0  0.056925  4e-05  0.098985  5.4e-05  1.001394  0.0  0.099486  3.6e-05  1.002937  0.0  0.096105  0.098583  7.2e-05  1.000315  0.0
H  H39  1  0.00695528  0.36933735  0.57661853  1  0.077305  7.4e-05  0.944936  0.0  0.057218  4e-05  0.098981  5.4e-05  1.001357  0.0  0.099481  3.6e-05  1.0029  0.0  0.096103  0.098578  7.2e-05  1.000277  0.0
H  H40  1  0.00697168  0.86932775  0.92337757  1  0.077236  7.8e-05  0.944925  0.0  0.056785  4e-05  0.098909  5.4e-05  1.001405  0.0  0.099447  3.6e-05  1.002907  0.0  0.096042  0.0985  7.2e-05  1.000331  0.0
H  H41  1  0.99302691  0.63067228  0.42337815  1  0.077258  7.9e-05  0.944934  0.0  0.05679  3.9e-05  0.098934  5.4e-05  1.001415  0.0  0.099482  3.6e-05  1.002906  0.0  0.096058  0.098526  7.2e-05  1.000342  0.0
H  H42  1  0.83358487  0.98339338  0.05588726  1  0.059755  -0.00055  0.950993  0.0  0.028922  -0.000446  0.071937  -0.000597  1.026316  0.0  0.072241  -0.000631  1.025751  0.0  0.086839  0.071309  -0.000524  1.027227  0.0
H  H43  1  0.16640435  0.51661138  0.55588670  1  0.059783  -0.000552  0.950973  0.0  0.029206  -0.000446  0.071953  -0.000596  1.026308  0.0  0.072256  -0.00063  1.025742  0.0  0.086843  0.071331  -0.000524  1.027208  0.0
H  H44  1  0.16642566  0.01660349  0.94410941  1  0.059691  -0.000549  0.95103  0.0  0.02873  -0.000446  0.071934  -0.000597  1.026316  0.0  0.072238  -0.000631  1.025761  0.0  0.086845  0.071307  -0.000524  1.027222  0.0
H  H45  1  0.83357399  0.48339587  0.44410997  1  0.059697  -0.000549  0.951028  0.0  0.0287  -0.000446  0.071944  -0.000597  1.026325  0.0  0.07225  -0.00063  1.025772  0.0  0.086859  0.071326  -0.000524  1.027223  0.0
C  C46  1  0.64188419  0.68437320  0.03251574  1  0.302773  -0.014038  4.021673  -0.006  0.507837  0.006658  0.307092  0.005721  4.334701  0.011  0.336611  0.004797  4.350059  0.011  0.152499  0.287056  0.006789  4.322877  0.011
C  C47  1  0.35811348  0.81562175  0.53253274  1  0.302939  -0.014064  4.021906  -0.006  0.507742  0.006649  0.307271  0.005715  4.334921  0.011  0.336792  0.004791  4.350282  0.011  0.152602  0.287234  0.006783  4.323092  0.011
C  C48  1  0.35812271  0.31562718  0.96747876  1  0.302831  -0.014035  4.021864  -0.006  0.506393  0.006682  0.307159  0.005729  4.334882  0.011  0.336685  0.004803  4.350239  0.011  0.152518  0.287117  0.006798  4.323058  0.011
C  C49  1  0.64188303  0.18436913  0.46747625  1  0.30279  -0.014071  4.021522  -0.006  0.507555  0.006655  0.307126  0.00572  4.334572  0.011  0.336646  0.004793  4.349932  0.011  0.152532  0.287086  0.006787  4.322745  0.011
C  C50  1  0.82866108  0.07074083  0.77029837  1  0.224789  -0.00386  3.734729  -0.002  0.355232  -0.000286  0.21857  -0.000517  3.993518  0.001  0.230018  -0.001771  4.010354  0.0  0.102525  0.211006  0.000347  3.981986  0.001
C  C51  1  0.17134466  0.42926234  0.27030307  1  0.224623  -0.003858  3.73466  -0.002  0.355591  -0.000287  0.218288  -0.000518  3.993557  0.001  0.229736  -0.001769  4.010393  0.0  0.102403  0.210725  0.000347  3.982024  0.001
C  C52  1  0.17134081  0.92925952  0.22969975  1  0.224529  -0.003842  3.734931  -0.002  0.355298  -0.000287  0.218222  -0.000518  3.993777  0.001  0.22967  -0.001771  4.010611  0.0  0.102416  0.210661  0.000347  3.982242  0.001
C  C53  1  0.82865096  0.57073796  0.72969651  1  0.224822  -0.003867  3.734698  -0.002  0.355636  -0.000286  0.218322  -0.000517  3.993793  0.001  0.229771  -0.001769  4.010625  0.0  0.102412  0.21076  0.000347  3.982257  0.001
C  C54  1  0.98427281  0.15178943  0.73269118  1  -0.361657  0.000727  3.743457  0.001  -0.064748  0.000997  -0.44294  0.000565  3.981244  0.001  -0.445861  0.000369  3.986904  0.001  -0.23615  -0.440666  0.000714  3.977521  0.001
C  C55  1  0.01573918  0.34822368  0.23269167  1  -0.361472  0.000721  3.743123  0.001  -0.0657  0.000997  -0.442661  0.000565  3.980953  0.001  -0.445581  0.000369  3.986612  0.001  -0.236005  -0.440386  0.000714  3.977227  0.001
C  C56  1  0.01572048  0.84821557  0.26730260  1  -0.361305  0.000724  3.743188  0.001  -0.065236  0.000996  -0.442571  0.000565  3.981069  0.001  -0.445497  0.000369  3.986739  0.001  -0.23604  -0.440291  0.000714  3.977338  0.001
C  C57  1  0.98426786  0.65178024  0.76730283  1  -0.361245  0.000725  3.742801  0.001  -0.065017  0.000996  -0.442372  0.000565  3.980651  0.001  -0.445293  0.000369  3.986317  0.001  -0.235918  -0.440097  0.000714  3.976922  0.001
C  C58  1  0.70978620  0.97309097  0.72317538  1  -0.321198  0.004242  3.690267  0.005  0.035551  0.003934  -0.344672  0.002582  3.936956  0.003  -0.355861  0.002126  3.954412  0.003  -0.119071  -0.337479  0.002878  3.925474  0.003
C  C59  1  0.29022398  0.52691948  0.22317540  1  -0.321206  0.004249  3.690079  0.005  0.035807  0.003935  -0.344608  0.002583  3.936766  0.003  -0.355803  0.002126  3.954218  0.003  -0.118989  -0.337413  0.002879  3.925286  0.003
C  C60  1  0.29021058  0.02690698  0.27682347  1  -0.321144  0.004234  3.690285  0.005  0.035834  0.003933  -0.344576  0.002582  3.936992  0.003  -0.355736  0.002126  3.954472  0.003  -0.11907  -0.337382  0.002878  3.925512  0.003
C  C61  1  0.70978561  0.47308564  0.77682417  1  -0.321229  0.004254  3.690243  0.005  0.035727  0.003934  -0.344628  0.002582  3.93701  0.003  -0.355813  0.002126  3.954462  0.003  -0.119083  -0.337438  0.002879  3.925532  0.003
C  C62  1  0.59126009  0.92449280  0.79377104  1  0.286788  -0.005044  3.755359  -0.002  0.46206  -0.000107  0.289339  -0.000888  4.019768  0.001  0.302619  -0.002713  4.037335  0.0  0.102543  0.280854  0.000437  4.007847  0.002
C  C63  1  0.40874839  0.57551073  0.29377573  1  0.286842  -0.005045  3.755211  -0.002  0.461863  -0.000108  0.289491  -0.00089  4.019481  0.001  0.302774  -0.002713  4.037038  0.0  0.102551  0.281003  0.000436  4.007565  0.002
C  C64  1  0.40874180  0.07550755  0.20623070  1  0.286805  -0.005023  3.755182  -0.002  0.461746  -0.000108  0.289378  -0.00089  4.019553  0.001  0.30266  -0.002713  4.037115  0.0  0.102556  0.280892  0.000436  4.007636  0.002
C  C65  1  0.59125094  0.42448842  0.70623472  1  0.286635  -0.005041  3.755215  -0.002  0.461713  -0.000105  0.289222  -0.000887  4.019572  0.001  0.302502  -0.002712  4.037137  0.0  0.102497  0.280737  0.000438  4.007649  0.002
C  C66  1  0.43614543  0.82184230  0.78331645  1  -0.365482  -9.9e-05  3.718814  0.001  -0.047708  0.000385  -0.443622  -9.9e-05  3.951825  0.001  -0.44759  -0.000266  3.957891  0.0  -0.240759  -0.440748  6.5e-05  3.947812  0.001
C  C67  1  0.56386126  0.67816456  0.28332117  1  -0.365694  -9.9e-05  3.719107  0.001  -0.048022  0.000384  -0.443865  -0.0001  3.952041  0.001  -0.44783  -0.000267  3.9581  0.0  -0.240904  -0.440984  6.5e-05  3.948025  0.001
C  C68  1  0.56385396  0.17815803  0.21668675  1  -0.365339  -0.000113  3.71867  0.001  -0.047623  0.000385  -0.44355  -9.9e-05  3.951665  0.001  -0.447521  -0.000267  3.957739  0.0  -0.240742  -0.440676  6.5e-05  3.947654  0.001
C  C69  1  0.43614296  0.32183109  0.71668710  1  -0.365339  -0.000102  3.718838  0.001  -0.048675  0.000383  -0.443548  -0.000101  3.95178  0.001  -0.447521  -0.000267  3.957847  0.0  -0.240731  -0.440678  6.5e-05  3.947768  0.001
C  C70  1  0.86205578  0.16318721  0.94463383  1  -0.033006  0.000555  3.655383  0.001  0.282643  0.000679  -0.101599  0.00033  3.918247  0.001  -0.098774  -1.5e-05  3.928941  0.0  -0.061298  -0.103361  0.000688  3.911189  0.001
C  C71  1  0.13794389  0.33681334  0.44463554  1  -0.033012  0.000561  3.655385  0.001  0.282576  0.000678  -0.101585  0.000329  3.918186  0.001  -0.098758  -1.5e-05  3.928872  0.0  -0.061315  -0.103362  0.000687  3.911173  0.001
C  C72  1  0.13795099  0.83680963  0.05536357  1  -0.032857  0.000567  3.655227  0.001  0.28288  0.000678  -0.101512  0.000329  3.918205  0.001  -0.098684  -1.5e-05  3.92891  0.0  -0.061272  -0.103287  0.000688  3.911183  0.001
C  C73  1  0.86204189  0.66319161  0.55536476  1  -0.032783  0.000548  3.65505  0.001  0.282627  0.000677  -0.10125  0.000329  3.917806  0.001  -0.098438  -1.5e-05  3.928542  0.0  -0.061197  -0.103022  0.000687  3.91078  0.001
C  C74  1  0.93519221  0.05439272  0.02041573  1  -0.120578  -0.000254  3.675161  0.0  -0.054737  -0.000278  -0.162214  -0.000421  3.939911  0.0  -0.163119  -0.000482  3.953872  0.0  -0.165736  -0.161335  -0.000307  3.930367  0.0
C  C75  1  0.06479986  0.44560914  0.52041756  1  -0.12055  -0.000243  3.67515  0.0  -0.055405  -0.00028  -0.162164  -0.000422  3.939876  0.0  -0.16306  -0.000483  3.953826  0.0  -0.165721  -0.16129  -0.000307  3.930321  0.0
C  C76  1  0.06481943  0.94560062  0.97957804  1  -0.120398  -0.000265  3.675105  0.0  -0.02445  -0.00028  -0.162059  -0.000421  3.939754  0.0  -0.162999  -0.000483  3.953721  0.0  -0.165634  -0.161176  -0.000307  3.930201  0.0
C  C77  1  0.93517982  0.55440048  0.47957912  1  -0.120452  -0.000269  3.675232  0.0  -0.024355  -0.000278  -0.162196  -0.00042  3.939955  0.0  -0.163143  -0.000482  3.953929  0.0  -0.165682  -0.161318  -0.000307  3.930408  0.0
S  S78  1  0.78109857  0.55524432  0.04648403  1  -0.280429  0.071132  2.017514  0.07  0.121979  0.038491  -0.289473  0.02103  2.311628  0.023  -0.313008  0.010443  2.31103  0.013  -0.12144  -0.271255  0.031797  2.310378  0.032
S  S79  1  0.21891922  0.94477225  0.54649525  1  -0.280452  0.071141  2.017509  0.07  0.122134  0.038478  -0.289524  0.021023  2.311632  0.023  -0.31306  0.010428  2.311027  0.013  -0.121482  -0.271306  0.03179  2.310388  0.032
S  S80  1  0.21891800  0.44474671  0.95351337  1  -0.280301  0.071133  2.017826  0.07  0.122484  0.03851  -0.289352  0.02104  2.311946  0.023  -0.312885  0.010442  2.311347  0.013  -0.121404  -0.27113  0.031806  2.310674  0.032
S  S81  1  0.78109038  0.05523286  0.45351157  1  -0.280404  0.071134  2.017474  0.07  0.122148  0.038476  -0.289483  0.021022  2.311606  0.023  -0.313017  0.010428  2.311  0.013  -0.121454  -0.271266  0.031787  2.310364  0.032
N  N82  1  0.63561925  0.99053313  0.87929658  1  -0.323511  0.065779  3.177851  0.081  -0.758596  0.084628  -0.299009  0.056746  3.475703  0.077  -0.327217  0.04829  3.496417  0.07  -0.274962  -0.282891  0.06012  3.463695  0.077
N  N83  1  0.36438553  0.50946610  0.37929796  1  -0.323427  0.06578  3.177824  0.081  -0.758684  0.084638  -0.298968  0.056753  3.475631  0.077  -0.327173  0.048294  3.496341  0.07  -0.274944  -0.282849  0.060126  3.463623  0.077
N  N84  1  0.36438505  0.00946487  0.12070444  1  -0.323524  0.065776  3.177719  0.081  -0.758598  0.084632  -0.29904  0.056748  3.475534  0.077  -0.327249  0.048291  3.49625  0.07  -0.27495  -0.28292  0.060121  3.463526  0.077
N  N85  1  0.63560749  0.49053182  0.62070813  1  -0.323217  0.06578  3.177639  0.081  -0.758543  0.084645  -0.298695  0.056756  3.475389  0.077  -0.326898  0.048297  3.496101  0.07  -0.274902  -0.282576  0.060131  3.463374  0.077
N  N86  1  0.77925089  0.07961991  0.86452374  1  0.016352  0.00331  3.511621  0.003  -0.820008  0.005012  0.103643  0.002671  3.726509  0.003  0.09321  0.002096  3.755498  0.002  -0.149655  0.110637  0.00304  3.707224  0.003
N  N87  1  0.22075570  0.42037916  0.36452453  1  0.016308  0.003305  3.511846  0.003  -0.820121  0.005015  0.103669  0.002673  3.726701  0.003  0.093235  0.002096  3.755691  0.002  -0.149616  0.110662  0.00304  3.707412  0.003
N  N88  1  0.22075100  0.92038043  0.13547511  1  0.016391  0.003296  3.511588  0.003  -0.820023  0.005014  0.103784  0.002672  3.726383  0.003  0.093353  0.002096  3.755369  0.002  -0.149594  0.110777  0.00304  3.707095  0.003
N  N89  1  0.77923495  0.57962229  0.63547794  1  0.016008  0.003312  3.512  0.003  -0.820131  0.005014  0.103377  0.002672  3.726889  0.003  0.09295  0.002096  3.755879  0.002  -0.149603  0.110367  0.00304  3.707602  0.003
N  N90  1  0.53499707  0.77749834  0.02369839  1  -0.566925  0.067418  3.041416  0.08  -1.30592  0.068444  -0.566293  0.042949  3.366934  0.057  -0.601835  0.033735  3.371505  0.049  -0.440052  -0.54353  0.048817  3.364231  0.06
N  N91  1  0.46498293  0.72248100  0.52371409  1  -0.567002  0.067442  3.041677  0.08  -1.305891  0.068463  -0.566384  0.042959  3.367199  0.057  -0.601921  0.033746  3.371754  0.049  -0.440098  -0.543618  0.048827  3.364488  0.06
N  N92  1  0.46502419  0.22248447  0.97630263  1  -0.5671  0.067467  3.041418  0.08  -1.304923  0.068454  -0.566512  0.042962  3.366993  0.057  -0.602067  0.033739  3.371553  0.049  -0.440097  -0.543744  0.048834  3.36429  0.06
N  N93  1  0.53501004  0.27751575  0.47629128  1  -0.56689  0.067455  3.041304  0.08  -1.305688  0.068459  -0.566299  0.042957  3.366877  0.057  -0.601834  0.033743  3.371427  0.049  -0.44007  -0.543532  0.048825  3.36417  0.06
