# generated using pymatgen
data_SmH8C10N2Cl3
_symmetry_space_group_name_H-M   'P 1'
_cell_length_a   11.72538741
_cell_length_b   11.77602576
_cell_length_c   15.90810000
_cell_angle_alpha   90.00000000
_cell_angle_beta   90.00000000
_cell_angle_gamma   118.04808242
_symmetry_Int_Tables_number   1
_chemical_formula_structural   SmH8C10N2Cl3
_chemical_formula_sum   'Sm6 H48 C60 N12 Cl18'
_cell_volume   1938.58659394
_cell_formula_units_Z   6
loop_
 _symmetry_equiv_pos_site_id
 _symmetry_equiv_pos_as_xyz
  1  'x, y, z'
loop_
 _atom_site_type_symbol
 _atom_site_label
 _atom_site_symmetry_multiplicity
 _atom_site_fract_x
 _atom_site_fract_y
 _atom_site_fract_z
 _atom_site_occupancy
 _atom_site_pbe_bader_charge
 _atom_site_pbe_bader_spin_density
 _atom_site_pbe_cm5_charge
 _atom_site_pbe_ddec_charge
 _atom_site_pbe_ddec_spin_density
 _atom_site_pbe_ddec_sum_bond_order
 _atom_site_pbe_magmom
Sm  Sm0  1  0.93696053  0.06299450  0.11780791  1  2.030958  0  1.05389  1.788351  0  2.301693  0
Sm  Sm1  1  0.06303992  0.93700546  0.61780728  1  2.030962  0  1.05388  1.788331  0  2.30173  0
Sm  Sm2  1  0.06303992  0.93700546  0.88219209  1  2.030984  0  1.053883  1.788353  0  2.301696  0
Sm  Sm3  1  0.93696053  0.06299450  0.38219209  1  2.030978  0  1.053873  1.788319  0  2.301748  0
Sm  Sm4  1  0.75175801  0.24852375  0.24999969  1  2.022986  0  1.029283  1.783376  0  2.28422  0
Sm  Sm5  1  0.24824159  0.75147621  0.74999969  1  2.022967  0  1.029289  1.783375  0  2.284208  0
H  H6  1  0.64523042  0.92822837  0.02209315  1  0.106278  0  0.113914  0.080435  0  1.006999  0
H  H7  1  0.35476917  0.07177159  0.52209252  1  0.10628  0  0.113904  0.080377  0  1.007022  0
H  H8  1  0.92933614  0.64578939  0.97815264  1  0.103581  0  0.113847  0.081004  0  1.007527  0
H  H9  1  0.07066346  0.35421057  0.47815264  1  0.103576  0  0.11384  0.081004  0  1.007527  0
H  H10  1  0.35476872  0.07177063  0.97790685  1  0.106281  0  0.113906  0.080384  0  1.007018  0
H  H11  1  0.64523088  0.92822933  0.47790685  1  0.10627  0  0.113914  0.080408  0  1.007018  0
H  H12  1  0.07066346  0.35421057  0.02184736  1  0.103574  0  0.11384  0.081006  0  1.007528  0
H  H13  1  0.92933614  0.64578939  0.52184736  1  0.103579  0  0.113847  0.081005  0  1.007528  0
H  H14  1  0.43455445  0.73087574  0.02058008  1  0.108488  0  0.101324  0.118947  0  1.03103  0
H  H15  1  0.56544515  0.26912421  0.52057945  1  0.108492  0  0.101322  0.118938  0  1.03106  0
H  H16  1  0.73159438  0.43540295  0.97939415  1  0.110266  0  0.101429  0.118565  0  1.030808  0
H  H17  1  0.26840567  0.56459797  0.47939477  1  0.110253  0  0.101428  0.118562  0  1.030788  0
H  H18  1  0.56544515  0.26912421  0.97941929  1  0.108502  0  0.101325  0.118949  0  1.03106  0
H  H19  1  0.43455490  0.73087671  0.47941929  1  0.108485  0  0.10132  0.118929  0  1.031056  0
H  H20  1  0.26840652  0.56459797  0.02060523  1  0.110296  0  0.101426  0.118559  0  1.030791  0
H  H21  1  0.73159393  0.43540199  0.52060585  1  0.110309  0  0.10143  0.118571  0  1.030799  0
H  H22  1  0.61838026  0.54401867  0.16005117  1  0.147586  0  0.099508  0.123713  0  1.048242  0
H  H23  1  0.38161934  0.45598128  0.66005117  1  0.147579  0  0.09952  0.123761  0  1.048244  0
H  H24  1  0.54318038  0.61761361  0.83985391  1  0.141387  0  0.098793  0.123489  0  1.049966  0
H  H25  1  0.45682007  0.38238635  0.33985454  1  0.14139  0  0.098791  0.123464  0  1.050012  0
H  H26  1  0.38161979  0.45598225  0.83994883  1  0.147573  0  0.099525  0.12376  0  1.048249  0
H  H27  1  0.61838026  0.54401867  0.33994883  1  0.147587  0  0.099507  0.12372  0  1.048243  0
H  H28  1  0.45682007  0.38238635  0.16014546  1  0.14139  0  0.098791  0.123468  0  1.050007  0
H  H29  1  0.54318038  0.61761361  0.66014609  1  0.141394  0  0.098789  0.123471  0  1.049992  0
H  H30  1  0.81979889  0.74863198  0.15410074  1  0.097288  0  0.117217  0.084441  0  1.000282  0
H  H31  1  0.18020070  0.25136798  0.65410074  1  0.097286  0  0.117218  0.084439  0  1.000286  0
H  H32  1  0.74797626  0.81857156  0.84611613  1  0.099395  0  0.117515  0.084179  0  0.999888  0
H  H33  1  0.25202380  0.18142936  0.34611613  1  0.09925  0  0.117516  0.084178  0  0.999871  0
H  H34  1  0.18020070  0.25136798  0.84589863  1  0.097302  0  0.117216  0.084443  0  1.000275  0
H  H35  1  0.81979889  0.74863198  0.34589926  1  0.09729  0  0.117217  0.084431  0  1.00029  0
H  H36  1  0.25202380  0.18142936  0.15388387  1  0.099253  0  0.117518  0.084183  0  0.999874  0
H  H37  1  0.74797626  0.81857156  0.65388387  1  0.099396  0  0.117515  0.084178  0  0.999885  0
H  H38  1  0.50566168  0.06618993  0.37991275  1  0.077069  0  0.114686  0.080601  0  1.008361  0
H  H39  1  0.49433792  0.93381003  0.87991275  1  0.077041  0  0.114742  0.080672  0  1.008318  0
H  H40  1  0.06612515  0.50563215  0.62009605  1  0.079126  0  0.114665  0.080532  0  1.008759  0
H  H41  1  0.93387524  0.49436588  0.12009542  1  0.079105  0  0.114664  0.080522  0  1.00876  0
H  H42  1  0.49433792  0.93381003  0.62008788  1  0.077055  0  0.114723  0.080636  0  1.008307  0
H  H43  1  0.50566168  0.06618993  0.12008725  1  0.077065  0  0.114685  0.0806  0  1.008361  0
H  H44  1  0.93387399  0.49436684  0.37990458  1  0.079095  0  0.114666  0.080521  0  1.008755  0
H  H45  1  0.06612560  0.50563311  0.87990458  1  0.079091  0  0.11466  0.080508  0  1.008767  0
H  H46  1  0.29311815  0.87102239  0.38645973  1  0.089038  0  0.10448  0.118721  0  1.020661  0
H  H47  1  0.70688230  0.12897756  0.88646036  1  0.089017  0  0.104466  0.118689  0  1.020691  0
H  H48  1  0.87110851  0.29317797  0.61354593  1  0.090883  0  0.10453  0.118516  0  1.020919  0
H  H49  1  0.12889064  0.70682102  0.11354530  1  0.090871  0  0.104521  0.118499  0  1.020927  0
H  H50  1  0.70688230  0.12897756  0.61354090  1  0.08906  0  0.10448  0.118717  0  1.020693  0
H  H51  1  0.29311684  0.87102143  0.11354027  1  0.08903  0  0.10447  0.118701  0  1.020676  0
H  H52  1  0.12889109  0.70682199  0.38645470  1  0.090867  0  0.104532  0.118493  0  1.020938  0
H  H53  1  0.87110851  0.29317797  0.88645470  1  0.090866  0  0.104522  0.118494  0  1.020947  0
C  C54  1  0.63385761  0.84050754  0.05258076  1  0.482397  0  0.049365  0.114274  0  3.967065  0
C  C55  1  0.36614244  0.15949338  0.55258076  1  0.482392  0  0.049394  0.114347  0  3.967047  0
C  C56  1  0.84116525  0.63414498  0.94764868  1  0.478562  0  0.048937  0.112697  0  3.966692  0
C  C57  1  0.15883480  0.36585594  0.44764868  1  0.478562  0  0.048945  0.112699  0  3.966679  0
C  C58  1  0.36614244  0.15949338  0.94741861  1  0.482388  0  0.049371  0.114299  0  3.967047  0
C  C59  1  0.63385806  0.84050850  0.44741861  1  0.482415  0  0.049382  0.114307  0  3.967012  0
C  C60  1  0.15883480  0.36585594  0.05235132  1  0.478563  0  0.048951  0.112681  0  3.966718  0
C  C61  1  0.84116525  0.63414498  0.55235132  1  0.478566  0  0.048936  0.112699  0  3.966693  0
C  C62  1  0.51542623  0.72965184  0.05338098  1  -0.042773  0  -0.078221  -0.158461  0  3.90683  0
C  C63  1  0.48457428  0.27035004  0.55338035  1  -0.042761  0  -0.078243  -0.158483  0  3.906939  0
C  C64  1  0.73022444  0.51593719  0.94668628  1  -0.036529  0  -0.078412  -0.157382  0  3.908421  0
C  C65  1  0.26977561  0.48406373  0.44668565  1  -0.036528  0  -0.0784  -0.157361  0  3.908403  0
C  C66  1  0.48457382  0.27034908  0.94661902  1  -0.042751  0  -0.078271  -0.158504  0  3.906959  0
C  C67  1  0.51542492  0.72965088  0.44661902  1  -0.042779  0  -0.078239  -0.158455  0  3.906872  0
C  C68  1  0.26977561  0.48406373  0.05331372  1  -0.036575  0  -0.078404  -0.157367  0  3.908401  0
C  C69  1  0.73022444  0.51593719  0.55331435  1  -0.036548  0  -0.078402  -0.157382  0  3.908419  0
C  C70  1  0.50436974  0.61805429  0.09285458  1  0.008618  0  0.016041  0.110129  0  3.937055  0
C  C71  1  0.49563071  0.38194566  0.59285333  1  0.008621  0  0.016068  0.110187  0  3.93711  0
C  C72  1  0.61803662  0.50437265  0.90714416  1  0.039839  0  0.015784  0.109532  0  3.937024  0
C  C73  1  0.38196343  0.49562827  0.40714353  1  0.039757  0  0.015802  0.109592  0  3.937073  0
C  C74  1  0.49563117  0.38194663  0.90714605  1  0.0086  0  0.016095  0.110211  0  3.937061  0
C  C75  1  0.50436889  0.61805429  0.40714605  1  0.008664  0  0.016078  0.110172  0  3.937126  0
C  C76  1  0.38196343  0.49562827  0.09285647  1  0.039824  0  0.015813  0.109617  0  3.937035  0
C  C77  1  0.61803662  0.50437265  0.59285647  1  0.039789  0  0.015788  0.109555  0  3.93706  0
C  C78  1  0.61670492  0.62645805  0.13021040  1  -0.049214  0  -0.07797  -0.155747  0  3.891896  0
C  C79  1  0.38329513  0.37354287  0.63021040  1  -0.049203  0  -0.077989  -0.155837  0  3.89187  0
C  C80  1  0.62595798  0.61608566  0.86979966  1  -0.053924  0  -0.077837  -0.156137  0  3.890488  0
C  C81  1  0.37404253  0.38391623  0.36979966  1  -0.060153  0  -0.077866  -0.156186  0  3.89056  0
C  C82  1  0.38329513  0.37354287  0.86978960  1  -0.055462  0  -0.077991  -0.155819  0  3.891908  0
C  C83  1  0.61670492  0.62645805  0.36978960  1  -0.055459  0  -0.077975  -0.155796  0  3.891901  0
C  C84  1  0.37404253  0.38391623  0.13020034  1  -0.053926  0  -0.077874  -0.156202  0  3.890591  0
C  C85  1  0.62595837  0.61608469  0.63020034  1  -0.06017  0  -0.077839  -0.156163  0  3.890556  0
C  C86  1  0.73136819  0.74094505  0.12628472  1  0.463701  0  0.051129  0.115256  0  3.958354  0
C  C87  1  0.26863226  0.25905491  0.62628409  1  0.463779  0  0.051043  0.115193  0  3.958265  0
C  C88  1  0.74058114  0.73060152  0.87391455  1  0.437219  0  0.051321  0.115485  0  3.959611  0
C  C89  1  0.25941760  0.26939844  0.37391455  1  0.437401  0  0.051335  0.115524  0  3.959558  0
C  C90  1  0.26863226  0.25905491  0.87371528  1  0.463754  0  0.051108  0.115241  0  3.95829  0
C  C91  1  0.73136819  0.74094505  0.37371591  1  0.463766  0  0.051089  0.115255  0  3.958363  0
C  C92  1  0.25941891  0.26939940  0.12608608  1  0.437394  0  0.051338  0.115518  0  3.959601  0
C  C93  1  0.74058114  0.73060152  0.62608545  1  0.437225  0  0.051321  0.115504  0  3.959582  0
C  C94  1  0.45501567  0.01835664  0.32243825  1  0.52918  0  0.051591  0.113349  0  3.965927  0
C  C95  1  0.54498302  0.98164140  0.82243888  1  0.529064  0  0.051487  0.11327  0  3.96596  0
C  C96  1  0.01825490  0.45506047  0.67756677  1  0.525135  0  0.051577  0.113316  0  3.967221  0
C  C97  1  0.98174509  0.54493853  0.17756615  1  0.525123  0  0.051554  0.113283  0  3.967188  0
C  C98  1  0.54498302  0.98164140  0.67756175  1  0.529203  0  0.051503  0.113332  0  3.965933  0
C  C99  1  0.45501567  0.01835664  0.17756175  1  0.52923  0  0.051582  0.113337  0  3.96596  0
C  C100  1  0.98174469  0.54493949  0.32243385  1  0.525134  0  0.051572  0.113309  0  3.967149  0
C  C101  1  0.01825490  0.45506047  0.82243448  1  0.525121  0  0.051541  0.113318  0  3.967205  0
C  C102  1  0.33583741  0.90845443  0.32525254  1  0.020136  0  -0.07654  -0.155191  0  3.898295  0
C  C103  1  0.66416258  0.09154457  0.82525380  1  0.020265  0  -0.07653  -0.155172  0  3.898264  0
C  C104  1  0.90849575  0.33587799  0.67475123  1  0.017441  0  -0.076491  -0.155084  0  3.89869  0
C  C105  1  0.09150384  0.66412197  0.17475060  1  0.017428  0  -0.076501  -0.155079  0  3.898664  0
C  C106  1  0.66416258  0.09154457  0.67474746  1  0.020142  0  -0.076494  -0.155184  0  3.898261  0
C  C107  1  0.33583787  0.90845539  0.17474683  1  0.020129  0  -0.076536  -0.155168  0  3.898289  0
C  C108  1  0.09150384  0.66412197  0.32525003  1  0.017431  0  -0.076512  -0.155068  0  3.898661  0
C  C109  1  0.90849575  0.33587799  0.82524940  1  0.01743  0  -0.076499  -0.155094  0  3.898735  0
C  C110  1  0.27361410  0.84871116  0.25000031  1  -0.08971  0  0.018709  0.117532  0  3.930992  0
C  C111  1  0.72638635  0.15128880  0.75000094  1  -0.089539  0  0.018718  0.117562  0  3.930962  0
C  C112  1  0.84876601  0.27366382  0.75000031  1  -0.125668  0  0.018126  0.116614  0  3.931433  0
C  C113  1  0.15123228  0.72633517  0.24999969  1  -0.125463  0  0.018177  0.116663  0  3.931375  0
N  N114  1  0.74096242  0.84740547  0.08847694  1  -1.294032  0  -0.41173  -0.355266  0  3.55828  0
N  N115  1  0.25903763  0.15259545  0.58847631  1  -1.29411  0  -0.411665  -0.355176  0  3.558201  0
N  N116  1  0.84759647  0.74065639  0.91184177  1  -1.258267  0  -0.411551  -0.35398  0  3.557853  0
N  N117  1  0.15240313  0.25934356  0.41184177  1  -1.258275  0  -0.411556  -0.353996  0  3.557836  0
N  N118  1  0.25903848  0.15259545  0.91152243  1  -1.294104  0  -0.411709  -0.355217  0  3.558224  0
N  N119  1  0.74096242  0.84740547  0.41152306  1  -1.2941  0  -0.411711  -0.355243  0  3.558292  0
N  N120  1  0.15240228  0.25934356  0.08815823  1  -1.258252  0  -0.411568  -0.353978  0  3.557881  0
N  N121  1  0.84759647  0.74065639  0.58815823  1  -1.258268  0  -0.41155  -0.353979  0  3.557858  0
N  N122  1  0.51551728  0.07239894  0.24999969  1  -1.272551  0  -0.402477  -0.34264  0  3.548548  0
N  N123  1  0.48448317  0.92760102  0.75000031  1  -1.272522  0  -0.402429  -0.342645  0  3.548631  0
N  N124  1  0.07217067  0.51558407  0.75000031  1  -1.269692  0  -0.40144  -0.342576  0  3.548557  0
N  N125  1  0.92782847  0.48441493  0.24999969  1  -1.269703  0  -0.401473  -0.342578  0  3.548502  0
Cl  Cl126  1  0.00564747  0.25939649  0.25000031  1  -0.708207  0  -0.306991  -0.692817  0  1.33739  0
Cl  Cl127  1  0.99435298  0.74060347  0.75000031  1  -0.708219  0  -0.306977  -0.692818  0  1.3374  0
Cl  Cl128  1  0.25961652  0.00535362  0.74999969  1  -0.712587  0  -0.307135  -0.692778  0  1.336818  0
Cl  Cl129  1  0.74038439  0.99464730  0.25000031  1  -0.712601  0  -0.307134  -0.692762  0  1.336795  0
Cl  Cl130  1  0.02547423  0.97504752  0.25000031  1  -0.700436  0  -0.342717  -0.61188  0  1.260104  0
Cl  Cl131  1  0.97452668  0.02495340  0.74999969  1  -0.700432  0  -0.342718  -0.6119  0  1.260118  0
Cl  Cl132  1  0.80416057  0.19546481  0.07935266  1  -0.717054  0  -0.348466  -0.647712  0  1.166542  0
Cl  Cl133  1  0.19583988  0.80453515  0.57935203  1  -0.717041  0  -0.348463  -0.647706  0  1.166536  0
Cl  Cl134  1  0.19584034  0.80453611  0.92064734  1  -0.717056  0  -0.348462  -0.647697  0  1.166526  0
Cl  Cl135  1  0.80415971  0.19546481  0.42064734  1  -0.717058  0  -0.348464  -0.647705  0  1.166533  0
Cl  Cl136  1  0.93102959  0.06848956  0.94360043  1  -0.690834  0  -0.341512  -0.646461  0  1.252573  0
Cl  Cl137  1  0.06897000  0.93151040  0.44360043  1  -0.691555  0  -0.341511  -0.646455  0  1.252589  0
Cl  Cl138  1  0.06897000  0.93151040  0.05639957  1  -0.691545  0  -0.341511  -0.646464  0  1.252572  0
Cl  Cl139  1  0.93102959  0.06848956  0.55639957  1  -0.69084  0  -0.341514  -0.64646  0  1.252579  0
Cl  Cl140  1  0.65053921  0.34943523  0.35957028  1  -0.706464  0  -0.365468  -0.631528  0  1.133113  0
Cl  Cl141  1  0.34946124  0.65056473  0.85957028  1  -0.706466  0  -0.365468  -0.631545  0  1.133123  0
Cl  Cl142  1  0.34946124  0.65056473  0.64042909  1  -0.706481  0  -0.365467  -0.631526  0  1.133098  0
Cl  Cl143  1  0.65053836  0.34943523  0.14042909  1  -0.70647  0  -0.365458  -0.63154  0  1.133119  0
