# generated using pymatgen
data_Er2H11C15O16
_symmetry_space_group_name_H-M   'P 1'
_cell_length_a   9.71494310
_cell_length_b   10.95781445
_cell_length_c   10.99831309
_cell_angle_alpha   105.78052214
_cell_angle_beta   88.45639179
_cell_angle_gamma   114.49077715
_symmetry_Int_Tables_number   1
_chemical_formula_structural   Er2H11C15O16
_chemical_formula_sum   'Er4 H22 C30 O32'
_cell_volume   1020.38904069
_cell_formula_units_Z   2
loop_
 _symmetry_equiv_pos_site_id
 _symmetry_equiv_pos_as_xyz
  1  'x, y, z'
loop_
 _atom_site_type_symbol
 _atom_site_label
 _atom_site_symmetry_multiplicity
 _atom_site_fract_x
 _atom_site_fract_y
 _atom_site_fract_z
 _atom_site_occupancy
 _atom_site_hle17_bader_spin_density
 _atom_site_hle17_ddec_charge
 _atom_site_hle17_ddec_spin_density
 _atom_site_hle17_ddec_sum_bond_order
 _atom_site_hle17_magmom
 _atom_site_hse06_10hf_bader_charge
 _atom_site_hse06_10hf_bader_spin_density
 _atom_site_hse06_10hf_ddec_charge
 _atom_site_hse06_10hf_ddec_spin_density
 _atom_site_hse06_10hf_ddec_sum_bond_order
 _atom_site_hse06_10hf_magmom
 _atom_site_hse06_bader_spin_density
 _atom_site_hse06_ddec_charge
 _atom_site_hse06_ddec_spin_density
 _atom_site_hse06_ddec_sum_bond_order
 _atom_site_hse06_magmom
 _atom_site_pbe_bader_spin_density
 _atom_site_pbe_cm5_charge
 _atom_site_pbe_ddec_charge
 _atom_site_pbe_ddec_spin_density
 _atom_site_pbe_ddec_sum_bond_order
 _atom_site_pbe_magmom
Er  Er0  1  0.97562257  0.07536018  0.17872392  1  0  2.301989  0  1.550818  0  2.222798  0  2.242788  0  1.851631  0  0  2.291099  0  1.812879  0  0  1.494654  2.117154  0  2.047225  0
Er  Er1  1  0.02436834  0.92463262  0.82127245  1  0  2.302015  0  1.550752  0  2.222951  0  2.242828  0  1.851563  0  0  2.291123  0  1.812813  0  0  1.49474  2.117137  0  2.047237  0
Er  Er2  1  0.00078003  0.50452049  0.25324057  1  0  2.240587  0  1.673329  0  2.194801  0  2.098847  0  2.151613  0  0  2.232314  0  1.952917  0  0  1.537983  2.061747  0  2.183898  0
Er  Er3  1  0.99923459  0.49549000  0.74675842  1  0  2.240587  0  1.673199  0  2.194775  0  2.098828  0  2.151524  0  0  2.232322  0  1.9528  0  0  1.537923  2.061725  0  2.18381  0
H  H4  1  0.50038789  0.80189618  0.82630451  1  0  0.114979  0  0.937114  0  0.110835  0  0.12362  0  0.999705  0  0  0.126755  0  0.998546  0  0  0.115651  0.121066  0  1.001505  0
H  H5  1  0.49961379  0.19809760  0.17369114  1  0  0.11492  0  0.93729  0  0.110821  0  0.123659  0  0.999751  0  0  0.126799  0  0.998584  0  0  0.11566  0.121105  0  1.001558  0
H  H6  1  0.48759963  0.26295639  0.90388900  1  0  0.116204  0  0.934043  0  0.097797  0  0.123263  0  0.998177  0  0  0.127168  0  0.99568  0  0  0.111687  0.120221  0  1.000559  0
H  H7  1  0.51241291  0.73704579  0.09611967  1  0  0.116212  0  0.933623  0  0.097885  0  0.123274  0  0.997815  0  0  0.127171  0  0.995333  0  0  0.111619  0.120224  0  1.000203  0
H  H8  1  0.60743657  0.74452753  0.64403185  1  0  0.127733  0  0.962037  0  0.142878  0  0.13238  0  1.031484  0  0  0.136876  0  1.027855  0  0  0.110956  0.128892  0  1.034984  0
H  H9  1  0.39256605  0.25547044  0.35596397  1  0  0.127827  0  0.961906  0  0.142899  0  0.132419  0  1.031425  0  0  0.136918  0  1.027794  0  0  0.11098  0.128932  0  1.034926  0
H  H10  1  0.94071898  0.63626253  0.07860485  1  0  0.459067  0  0.834777  0  0.660812  0  0.426056  0  0.900012  0  0  0.438058  0  0.883149  0  0  0.306232  0.417602  0  0.912219  0
H  H11  1  0.05927283  0.36373238  0.92139570  1  0  0.4592  0  0.834593  0  0.660822  0  0.426141  0  0.899899  0  0  0.438147  0  0.883028  0  0  0.30626  0.417703  0  0.912079  0
H  H12  1  0.08750264  0.73972578  0.17619049  1  0  0.437885  0  0.812828  0  0.646287  0  0.417082  0  0.87044  0  0  0.425057  0  0.863618  0  0  0.329069  0.411044  0  0.877342  0
H  H13  1  0.91246052  0.26031867  0.82383213  1  0  0.437856  0  0.81301  0  0.646994  0  0.417106  0  0.870502  0  0  0.425081  0  0.86368  0  0  0.329022  0.41107  0  0.877403  0
H  H14  1  0.02341921  0.73480613  0.48922119  1  0  0.443016  0  0.842664  0  0.637404  0  0.416542  0  0.898599  0  0  0.426564  0  0.884013  0  0  0.312537  0.409384  0  0.909229  0
H  H15  1  0.97658996  0.26519496  0.51077722  1  0  0.44287  0  0.842857  0  0.637324  0  0.416412  0  0.898761  0  0  0.426437  0  0.884173  0  0  0.312464  0.409257  0  0.909389  0
H  H16  1  0.18533445  0.73756376  0.47197623  1  0  0.441355  0  0.851523  0  0.647152  0  0.412823  0  0.910349  0  0  0.423326  0  0.895122  0  0  0.308765  0.405398  0  0.92135  0
H  H17  1  0.81467736  0.26244668  0.52800912  1  0  0.441385  0  0.851495  0  0.64664  0  0.412838  0  0.910344  0  0  0.423345  0  0.895111  0  0  0.308803  0.405414  0  0.921342  0
H  H18  1  0.70843937  0.96879674  0.31864118  1  0  0.454895  0  0.789535  0  0.634408  0  0.443754  0  0.827909  0  0  0.451584  0  0.816807  0  0  0.340703  0.437348  0  0.836889  0
H  H19  1  0.29154377  0.03120759  0.68134731  1  0  0.454837  0  0.789374  0  0.634423  0  0.443745  0  0.827871  0  0  0.451549  0  0.816806  0  0  0.340729  0.437325  0  0.836688  0
H  H20  1  0.72207287  0.12312164  0.33208504  1  0  0.447807  0  0.849022  0  0.683911  0  0.414412  0  0.915327  0  0  0.425957  0  0.898414  0  0  0.299516  0.405688  0  0.927898  0
H  H21  1  0.27793028  0.87688779  0.66789828  1  0  0.447673  0  0.849197  0  0.684282  0  0.414309  0  0.915454  0  0  0.425857  0  0.898539  0  0  0.299456  0.405594  0  0.928012  0
H  H22  1  0.05505959  0.97208314  0.37262298  1  0  0.448998  0  0.797475  0  0.6552  0  0.431159  0  0.852475  0  0  0.439824  0  0.840937  0  0  0.330679  0.424426  0  0.859424  0
H  H23  1  0.94492078  0.02790562  0.62739060  1  0  0.448947  0  0.797465  0  0.654919  0  0.431128  0  0.852419  0  0  0.439792  0  0.840949  0  0  0.330719  0.424397  0  0.859365  0
H  H24  1  0.93673893  0.83819009  0.27542533  1  0  0.44458  0  0.834586  0  0.666628  0  0.417195  0  0.893249  0  0  0.427606  0  0.877779  0  0  0.310175  0.409712  0  0.904029  0
H  H25  1  0.06320232  0.16181053  0.72460792  1  0  0.444722  0  0.834375  0  0.666405  0  0.41733  0  0.893074  0  0  0.427745  0  0.877598  0  0  0.310257  0.409851  0  0.90385  0
C  C26  1  0.77695524  0.00177864  0.89445010  1  0  0.665304  0  3.926211  0  1.594244  0  0.617795  0  4.230948  0  0  0.651848  0  4.219614  0  0  0.206813  0.595668  0  4.226286  0
C  C27  1  0.22303919  0.99820360  0.10553443  1  0  0.665071  0  3.926471  0  1.593849  0  0.617644  0  4.231107  0  0  0.651695  0  4.219777  0  0  0.206682  0.595517  0  4.226444  0
C  C28  1  0.63703181  0.00514403  0.95182293  1  0  -0.046851  0  3.694036  0  -0.040447  0  -0.036129  0  3.933234  0  0  -0.039804  0  3.95092  0  0  0.003201  -0.034145  0  3.921244  0
C  C29  1  0.36296728  0.99486659  0.04818254  1  0  -0.046692  0  3.693983  0  -0.04036  0  -0.036025  0  3.933232  0  0  -0.039687  0  3.950894  0  0  0.00318  -0.03404  0  3.921226  0
C  C30  1  0.49936304  0.88895132  0.90249449  1  0  -0.055246  0  3.655536  0  0.055646  0  -0.090499  0  3.909006  0  0  -0.090196  0  3.926453  0  0  -0.063246  -0.090811  0  3.898196  0
C  C31  1  0.50063675  0.11105195  0.09750909  1  0  -0.055252  0  3.655577  0  0.055537  0  -0.090588  0  3.909097  0  0  -0.090286  0  3.926511  0  0  -0.063223  -0.090895  0  3.898273  0
C  C32  1  0.63810270  0.11791417  0.05124106  1  0  -0.040031  0  3.680849  0  -0.030875  0  -0.028676  0  3.920252  0  0  -0.030755  0  3.936161  0  0  0.006845  -0.026491  0  3.908424  0
C  C33  1  0.36189390  0.88209332  0.94876363  1  0  -0.040127  0  3.680506  0  -0.030926  0  -0.028691  0  3.919895  0  0  -0.030775  0  3.935811  0  0  0.006925  -0.026498  0  3.908062  0
C  C34  1  0.23670690  0.24854920  0.00799369  1  0  0.724707  0  3.840498  0  1.643463  0  0.68124  0  4.135409  0  0  0.71719  0  4.121745  0  0  0.232882  0.655499  0  4.139918  0
C  C35  1  0.76329408  0.75144985  0.99200606  1  0  0.72442  0  3.840898  0  1.643706  0  0.681234  0  4.135392  0  0  0.717179  0  4.121724  0  0  0.232952  0.65547  0  4.139899  0
C  C36  1  0.36850467  0.38148689  0.00361982  1  0  -0.049274  0  3.673696  0  -0.056498  0  -0.039218  0  3.907838  0  0  -0.043194  0  3.925949  0  0  -0.000207  -0.037092  0  3.897613  0
C  C37  1  0.63151692  0.61848791  0.99637444  1  0  -0.048792  0  3.673028  0  -0.056538  0  -0.038808  0  3.90712  0  0  -0.042784  0  3.925245  0  0  -6.7e-05  -0.036652  0  3.89685  0
C  C38  1  0.49253267  0.36709607  0.94521831  1  0  -0.056646  0  3.673523  0  0.049036  0  -0.09225  0  3.926457  0  0  -0.09174  0  3.943055  0  0  -0.066847  -0.093263  0  3.916678  0
C  C39  1  0.50748550  0.63288926  0.05478233  1  0  -0.057063  0  3.67268  0  0.049634  0  -0.09271  0  3.925687  0  0  -0.092205  0  3.942298  0  0  -0.066923  -0.093713  0  3.915882  0
C  C40  1  0.77745123  0.24931231  0.11107028  1  0  0.688892  0  3.840166  0  1.603419  0  0.642131  0  4.133111  0  0  0.676182  0  4.129737  0  0  0.214058  0.61754  0  4.138627  0
C  C41  1  0.22254702  0.75067832  0.88892003  1  0  0.689052  0  3.83999  0  1.603011  0  0.642125  0  4.133154  0  0  0.67618  0  4.129801  0  0  0.214009  0.617521  0  4.138681  0
C  C42  1  0.30051576  0.63593372  0.58197930  1  0  0.728132  0  3.845508  0  1.640446  0  0.676179  0  4.143823  0  0  0.71184  0  4.133024  0  0  0.239552  0.652092  0  4.151361  0
C  C43  1  0.69949481  0.36408096  0.41801260  1  0  0.728562  0  3.844881  0  1.639842  0  0.676242  0  4.143809  0  0  0.711892  0  4.133027  0  0  0.239506  0.652191  0  4.1513  0
C  C44  1  0.34651590  0.43181289  0.45325245  1  0  -0.052538  0  3.684369  0  -0.033402  0  -0.041003  0  3.917453  0  0  -0.045346  0  3.935594  0  0  0.000655  -0.036745  0  3.904606  0
C  C45  1  0.65348673  0.56818507  0.54674246  1  0  -0.052258  0  3.684039  0  -0.033336  0  -0.040812  0  3.917249  0  0  -0.045167  0  3.935419  0  0  0.000704  -0.036564  0  3.904403  0
C  C46  1  0.56015951  0.63820334  0.58016854  1  0  -0.071108  0  3.663486  0  -0.026388  0  -0.105593  0  3.914032  0  0  -0.105612  0  3.931533  0  0  -0.070947  -0.108323  0  3.904415  0
C  C47  1  0.43984268  0.36179774  0.41981990  1  0  -0.070941  0  3.663526  0  -0.025959  0  -0.105396  0  3.914025  0  0  -0.105421  0  3.931526  0  0  -0.070877  -0.108135  0  3.904415  0
C  C48  1  0.40646588  0.56951425  0.53477933  1  0  -0.048897  0  3.699053  0  0.050596  0  -0.039116  0  3.936013  0  0  -0.042805  0  3.954229  0  0  0.000819  -0.034931  0  3.922168  0
C  C49  1  0.59353730  0.43048683  0.46521092  1  0  -0.049178  0  3.698994  0  0.050989  0  -0.039331  0  3.936162  0  0  -0.043021  0  3.954388  0  0  0.000745  -0.035154  0  3.922316  0
C  C50  1  0.18758133  0.36847335  0.39112060  1  0  0.746861  0  3.824227  0  1.624514  0  0.697966  0  4.121778  0  0  0.735164  0  4.107741  0  0  0.248525  0.672742  0  4.127437  0
C  C51  1  0.81241853  0.63152990  0.60887933  1  0  0.746584  0  3.824558  0  1.624915  0  0.697745  0  4.122059  0  0  0.734936  0  4.108045  0  0  0.248431  0.672529  0  4.127687  0
C  C52  1  0.24307400  0.53906650  0.11216249  1  0  0.667399  0  3.885639  0  1.593626  0  0.616537  0  4.184336  0  0  0.649598  0  4.183009  0  0  0.202627  0.593086  0  4.190942  0
C  C53  1  0.75692930  0.46093573  0.88784625  1  0  0.667283  0  3.885954  0  1.593681  0  0.6165  0  4.184537  0  0  0.649572  0  4.183201  0  0  0.202589  0.593051  0  4.191144  0
C  C54  1  0.37538936  0.51625751  0.05782768  1  0  -0.036173  0  3.691733  0  0.005054  0  -0.02366  0  3.926814  0  0  -0.026834  0  3.943953  0  0  0.002293  -0.021303  0  3.915143  0
C  C55  1  0.62461414  0.48372055  0.94216935  1  0  -0.036286  0  3.692088  0  0.005104  0  -0.023834  0  3.927201  0  0  -0.027025  0  3.944359  0  0  0.002254  -0.021481  0  3.915529  0
O  O56  1  0.26032082  0.64335210  0.20572135  1  0  -0.664306  0  1.900213  0  -1.194822  0  -0.620177  0  2.122222  0  0  -0.65105  0  2.111795  0  0  -0.358125  -0.603993  0  2.128556  0
O  O57  1  0.73971211  0.35665000  0.79429446  1  0  -0.664293  0  1.900224  0  -1.194703  0  -0.620202  0  2.122205  0  0  -0.651087  0  2.111778  0  0  -0.358104  -0.604031  0  2.128552  0
O  O58  1  0.10697687  0.44730263  0.06477517  1  0  -0.733977  0  2.112959  0  -1.21779  0  -0.676152  0  2.357545  0  0  -0.712501  0  2.349259  0  0  -0.37948  -0.658233  0  2.36421  0
O  O59  1  0.89302132  0.55267968  0.93522663  1  0  -0.733942  0  2.11321  0  -1.218191  0  -0.676184  0  2.357815  0  0  -0.712546  0  2.349554  0  0  -0.379492  -0.658243  0  2.364478  0
O  O60  1  0.97969067  0.67822589  0.17289872  1  0  -0.893172  0  1.829385  0  -1.279033  0  -0.840263  0  2.021683  0  0  -0.871385  0  1.98928  0  0  -0.610426  -0.826438  0  2.041892  0
O  O61  1  0.02028781  0.32176284  0.82710667  1  0  -0.893247  0  1.829411  0  -1.279755  0  -0.840363  0  2.021823  0  0  -0.871475  0  1.989396  0  0  -0.610363  -0.826515  0  2.04197  0
O  O62  1  0.08873919  0.71520492  0.42371648  1  0  -0.899906  0  1.821377  0  -1.265862  0  -0.849654  0  1.996446  0  0  -0.879519  0  1.958373  0  0  -0.629042  -0.836608  0  2.019178  0
O  O63  1  0.91126832  0.28480768  0.57627673  1  0  -0.899799  0  1.8215  0  -1.265287  0  -0.84955  0  1.996583  0  0  -0.879427  0  1.958514  0  0  -0.628999  -0.8365  0  2.019295  0
O  O64  1  0.18152207  0.55928568  0.62409043  1  0  -0.78948  0  2.110506  0  -1.241816  0  -0.736753  0  2.37856  0  0  -0.779416  0  2.362531  0  0  -0.437233  -0.717784  0  2.386491  0
O  O65  1  0.81848783  0.44072800  0.37591031  1  0  -0.789579  0  2.110549  0  -1.241861  0  -0.736718  0  2.378749  0  0  -0.779364  0  2.362728  0  0  -0.437153  -0.717761  0  2.386668  0
O  O66  1  0.77958412  0.36524118  0.10920020  1  0  -0.657463  0  1.96461  0  -1.176565  0  -0.610942  0  2.199574  0  0  -0.646234  0  2.192953  0  0  -0.358884  -0.593415  0  2.203886  0
O  O67  1  0.22042600  0.63475576  0.89080622  1  0  -0.657523  0  1.96464  0  -1.176252  0  -0.610921  0  2.199654  0  0  -0.646211  0  2.192994  0  0  -0.358787  -0.593397  0  2.203978  0
O  O68  1  0.88822887  0.24741054  0.17066707  1  0  -0.779295  0  2.154766  0  -1.207525  0  -0.737629  0  2.418205  0  0  -0.771903  0  2.409171  0  0  -0.410434  -0.70787  0  2.42644  0
O  O69  1  0.11177856  0.75260208  0.82932978  1  0  -0.779335  0  2.154703  0  -1.20749  0  -0.73764  0  2.418317  0  0  -0.771888  0  2.409202  0  0  -0.410485  -0.707893  0  2.426617  0
O  O70  1  0.14793349  0.45139044  0.35640581  1  0  -0.747533  0  2.13051  0  -1.221982  0  -0.700567  0  2.404569  0  0  -0.741129  0  2.388528  0  0  -0.414261  -0.68175  0  2.411796  0
O  O71  1  0.85206082  0.54860552  0.64359681  1  0  -0.747479  0  2.130595  0  -1.221942  0  -0.700506  0  2.404616  0  0  -0.741072  0  2.38858  0  0  -0.414181  -0.681688  0  2.411831  0
O  O72  1  0.10151675  0.23874791  0.37459699  1  0  -0.744083  0  1.993587  0  -1.235143  0  -0.702168  0  2.235234  0  0  -0.725276  0  2.218935  0  0  -0.379789  -0.672373  0  2.247802  0
O  O73  1  0.89848482  0.76125007  0.62539975  1  0  -0.74399  0  1.993774  0  -1.235191  0  -0.702087  0  2.235434  0  0  -0.725168  0  2.219105  0  0  -0.37977  -0.672287  0  2.248  0
O  O74  1  0.75454880  0.04861768  0.28513418  1  0  -0.917448  0  1.87564  0  -1.291865  0  -0.882953  0  2.062786  0  0  -0.901026  0  2.031642  0  0  -0.635934  -0.857853  0  2.092206  0
O  O75  1  0.24543814  0.95138345  0.71484709  1  0  -0.917249  0  1.875488  0  -1.292409  0  -0.882817  0  2.062783  0  0  -0.900878  0  2.031664  0  0  -0.635887  -0.8577  0  2.092023  0
O  O76  1  0.95519426  0.93380868  0.32609682  1  0  -0.870995  0  1.82732  0  -1.286829  0  -0.837951  0  1.997655  0  0  -0.854146  0  1.967312  0  0  -0.608049  -0.81593  0  2.023456  0
O  O77  1  0.04478645  0.06620320  0.67392819  1  0  -0.871089  0  1.827084  0  -1.286265  0  -0.838036  0  1.997393  0  0  -0.854237  0  1.96713  0  0  -0.608202  -0.81601  0  2.023187  0
O  O78  1  0.18064202  0.24051217  0.11254009  1  0  -0.706838  0  2.057606  0  -1.204741  0  -0.673398  0  2.305575  0  0  -0.699415  0  2.298551  0  0  -0.37684  -0.643951  0  2.31387  0
O  O79  1  0.81936935  0.75948262  0.88745759  1  0  -0.706794  0  2.057759  0  -1.204729  0  -0.673459  0  2.305628  0  0  -0.699465  0  2.298585  0  0  -0.376877  -0.643989  0  2.313929  0
O  O80  1  0.19799625  0.15095994  0.90381129  1  0  -0.736139  0  2.077103  0  -1.217293  0  -0.698102  0  2.330618  0  0  -0.724787  0  2.320355  0  0  -0.40204  -0.667168  0  2.339577  0
O  O81  1  0.80200875  0.84903285  0.09619863  1  0  -0.735974  0  2.077195  0  -1.217281  0  -0.698025  0  2.330528  0  0  -0.724708  0  2.320259  0  0  -0.402064  -0.667094  0  2.339488  0
O  O82  1  0.77253426  0.94738297  0.77737350  1  0  -0.644351  0  1.970588  0  -1.195734  0  -0.609094  0  2.199151  0  0  -0.631392  0  2.189159  0  0  -0.325455  -0.58585  0  2.204865  0
O  O83  1  0.22745325  0.05259625  0.22262665  1  0  -0.64438  0  1.970063  0  -1.195424  0  -0.609146  0  2.198582  0  0  -0.631435  0  2.188584  0  0  -0.325407  -0.585896  0  2.20429  0
O  O84  1  0.90110627  0.05014382  0.96741106  1  0  -0.833116  0  2.241162  0  -1.227302  0  -0.792134  0  2.494822  0  0  -0.818098  0  2.486266  0  0  -0.435943  -0.752542  0  2.498656  0
O  O85  1  0.09889422  0.94985210  0.03259061  1  0  -0.832977  0  2.241606  0  -1.22742  0  -0.791983  0  2.495181  0  0  -0.817957  0  2.486642  0  0  -0.435883  -0.752392  0  2.499017  0
O  O86  1  0.33385334  0.75974876  0.57933089  1  0  -0.625572  0  1.927299  0  -1.20966  0  -0.567684  0  2.129742  0  0  -0.590453  0  2.115498  0  0  -0.303812  -0.551462  0  2.139015  0
O  O87  1  0.66615579  0.24026069  0.42066150  1  0  -0.625733  0  1.92695  0  -1.209478  0  -0.567679  0  2.129563  0  0  -0.590445  0  2.115312  0  0  -0.30375  -0.551471  0  2.138816  0
