# generated using pymatgen
data_CdH15C12N4ClO5
_symmetry_space_group_name_H-M   'P 1'
_cell_length_a   8.96845798
_cell_length_b   9.61853979
_cell_length_c   10.03510055
_cell_angle_alpha   103.29763557
_cell_angle_beta   113.46272487
_cell_angle_gamma   89.36503353
_symmetry_Int_Tables_number   1
_chemical_formula_structural   CdH15C12N4ClO5
_chemical_formula_sum   'Cd2 H30 C24 N8 Cl2 O10'
_cell_volume   769.65010886
_cell_formula_units_Z   2
loop_
 _symmetry_equiv_pos_site_id
 _symmetry_equiv_pos_as_xyz
  1  'x, y, z'
loop_
 _atom_site_type_symbol
 _atom_site_label
 _atom_site_symmetry_multiplicity
 _atom_site_fract_x
 _atom_site_fract_y
 _atom_site_fract_z
 _atom_site_occupancy
 _atom_site_pbe_bader_spin_density
 _atom_site_pbe_cm5_charge
 _atom_site_pbe_ddec_charge
 _atom_site_pbe_ddec_spin_density
 _atom_site_pbe_ddec_sum_bond_order
 _atom_site_pbe_magmom
Cd  Cd0  1  0.49897897  0.64018387  0.28502096  1  0  0.709318  0.8819  0  2.231383  0
Cd  Cd1  1  0.50101567  0.35981417  0.71497467  1  0  0.709322  0.881915  0  2.231351  0
H  H2  1  0.18457642  0.94216357  0.30618158  1  0  0.319255  0.390022  0  0.906741  0
H  H3  1  0.81542245  0.05784619  0.69382208  1  0  0.319252  0.390026  0  0.906723  0
H  H4  1  0.80786952  0.60488510  0.85256357  1  0  0.114745  0.110341  0  1.025247  0
H  H5  1  0.19212940  0.39510959  0.14742974  1  0  0.114701  0.110237  0  1.025295  0
H  H6  1  0.01066634  0.72881304  0.14664403  1  0  0.121397  0.123818  0  1.06911  0
H  H7  1  0.98933352  0.27118808  0.85335203  1  0  0.121413  0.123863  0  1.069177  0
H  H8  1  0.47478135  0.29563710  0.32567977  1  0  0.11471  0.121612  0  1.037237  0
H  H9  1  0.52521969  0.70435429  0.67431748  1  0  0.114718  0.121624  0  1.037212  0
H  H10  1  0.87260782  0.60147900  0.39585917  1  0  0.106598  0.083313  0  1.026738  0
H  H11  1  0.12739163  0.39852752  0.60413896  1  0  0.106586  0.083339  0  1.02666  0
H  H12  1  0.02226560  0.48763008  0.37100992  1  0  0.109688  0.08917  0  0.991702  0
H  H13  1  0.97773138  0.51237543  0.62899016  1  0  0.109689  0.089169  0  0.991733  0
H  H14  1  0.82896447  0.21378022  0.00285940  1  0  0.112818  0.092918  0  0.998586  0
H  H15  1  0.17104098  0.78622611  0.99713967  1  0  0.112851  0.092941  0  0.998646  0
H  H16  1  0.64719613  0.09932245  0.90186034  1  0  0.104073  0.092413  0  1.009209  0
H  H17  1  0.35280275  0.90067116  0.09813571  1  0  0.104076  0.092399  0  1.009311  0
H  H18  1  0.75675938  0.95179783  0.10484608  1  0  0.101003  0.137288  0  1.025919  0
H  H19  1  0.24324487  0.04820747  0.89515635  1  0  0.100996  0.137294  0  1.025813  0
H  H20  1  0.85156893  0.94111679  0.98205590  1  0  0.109534  0.135181  0  0.98122  0
H  H21  1  0.14844451  0.05889146  0.01795721  1  0  0.109522  0.135132  0  0.981256  0
H  H22  1  0.57285527  0.05997738  0.17377929  1  0  0.109386  0.125209  0  1.056707  0
H  H23  1  0.42714369  0.94001839  0.82621128  1  0  0.109364  0.125161  0  1.056753  0
H  H24  1  0.13732350  0.72706436  0.54737009  1  0  0.10883  0.139321  0  0.993768  0
H  H25  1  0.86267674  0.27293998  0.45262482  1  0  0.108855  0.139335  0  0.993802  0
H  H26  1  0.03469603  0.81428250  0.40497245  1  0  0.101282  0.125537  0  0.993141  0
H  H27  1  0.96530315  0.18572294  0.59502236  1  0  0.101292  0.125488  0  0.993205  0
H  H28  1  0.69878921  0.56970889  0.56906621  1  0  0.286598  0.382507  0  0.959654  0
H  H29  1  0.30121114  0.43028683  0.43092979  1  0  0.286643  0.38255  0  0.959599  0
H  H30  1  0.77632845  0.72750895  0.58902146  1  0  0.28663  0.380326  0  0.958764  0
H  H31  1  0.22366779  0.27249012  0.41098091  1  0  0.286637  0.380287  0  0.95881  0
C  C32  1  0.81549945  0.57799478  0.95388705  1  0  -0.009757  -0.02951  0  4.034254  0
C  C33  1  0.18449954  0.42199991  0.04610827  1  0  -0.009711  -0.029397  0  4.03425  0
C  C34  1  0.91855045  0.63935262  0.09978317  1  0  0.000964  -0.086099  0  3.926008  0
C  C35  1  0.08144877  0.36064313  0.90021446  1  0  0.000903  -0.086242  0  3.926085  0
C  C36  1  0.75678260  0.46340803  0.09270858  1  0  0.208172  0.162998  0  4.033965  0
C  C37  1  0.24321215  0.53659001  0.90729009  1  0  0.208189  0.163091  0  4.033821  0
C  C38  1  0.54235410  0.29150353  0.25601815  1  0  -0.003539  -0.016807  0  3.981641  0
C  C39  1  0.45764754  0.70849215  0.74398027  1  0  -0.003629  -0.016953  0  3.981754  0
C  C40  1  0.67756305  0.37058432  0.14559055  1  0  0.212238  0.173914  0  4.033865  0
C  C41  1  0.32243125  0.62941912  0.85440918  1  0  0.21221  0.173948  0  4.033773  0
C  C42  1  0.96567077  0.58677595  0.34992633  1  0  -0.053767  -0.03548  0  3.877031  0
C  C43  1  0.03432422  0.41322424  0.65007090  1  0  -0.053728  -0.03548  0  3.876937  0
C  C44  1  0.74508693  0.13983029  0.01404548  1  0  -0.055677  -0.045669  0  3.91129  0
C  C45  1  0.25491664  0.86016856  0.98596127  1  0  -0.055721  -0.045665  0  3.911652  0
C  C46  1  0.83224859  0.01626865  0.07274011  1  0  -0.161441  -0.338954  0  3.925125  0
C  C47  1  0.16776122  0.98373001  0.92727364  1  0  -0.161366  -0.338842  0  3.925208  0
C  C48  1  0.99392508  0.05813956  0.20652519  1  0  0.244243  0.656965  0  4.048777  0
C  C49  1  0.00608658  0.94187089  0.79349680  1  0  0.244136  0.656931  0  4.048444  0
C  C50  1  0.58716078  0.17315963  0.17842965  1  0  0.002954  -0.089207  0  3.882464  0
C  C51  1  0.41283523  0.82683946  0.82156667  1  0  0.003018  -0.089044  0  3.88229  0
C  C52  1  0.24076351  0.70465909  0.38780295  1  0  0.204293  0.619447  0  4.151256  0
C  C53  1  0.75924536  0.29534283  0.61220623  1  0  0.204276  0.619314  0  4.151406  0
C  C54  1  0.09207752  0.71571192  0.42576392  1  0  -0.163204  -0.326355  0  3.913673  0
C  C55  1  0.90791837  0.28428717  0.57422937  1  0  -0.163271  -0.326295  0  3.913763  0
N  N56  1  0.71601876  0.46797080  0.94975888  1  0  -0.346759  -0.338919  0  3.490239  0
N  N57  1  0.28398156  0.53202384  0.05023986  1  0  -0.346767  -0.338936  0  3.49025  0
N  N58  1  0.88210678  0.56591240  0.18661278  1  0  -0.233122  0.019849  0  3.7268  0
N  N59  1  0.11788662  0.43408460  0.81338520  1  0  -0.233122  0.019846  0  3.726585  0
N  N60  1  0.59940628  0.41384380  0.23547600  1  0  -0.351386  -0.342117  0  3.472618  0
N  N61  1  0.40058893  0.58615746  0.76452354  1  0  -0.351341  -0.342131  0  3.47266  0
N  N62  1  0.67325233  0.22451483  0.11014759  1  0  -0.235785  0.016761  0  3.752772  0
N  N63  1  0.32674552  0.77548742  0.88985504  1  0  -0.235734  0.01674  0  3.752778  0
Cl  Cl64  1  0.65613465  0.83333154  0.25905161  1  0  -0.341561  -0.537314  0  1.09535  0
Cl  Cl65  1  0.34385999  0.16666650  0.74094403  1  0  -0.341574  -0.537337  0  1.095376  0
O  O66  1  0.03249288  0.17664830  0.29650630  1  0  -0.279597  -0.499886  0  2.171535  0
O  O67  1  0.96749956  0.82335519  0.70350778  1  0  -0.279542  -0.499941  0  2.171026  0
O  O68  1  0.08693513  0.94895034  0.21187830  1  0  -0.324021  -0.498533  0  2.393559  0
O  O69  1  0.91307177  0.05105595  0.78812722  1  0  -0.324042  -0.49855  0  2.393509  0
O  O70  1  0.67464573  0.66254278  0.54006180  1  0  -0.591004  -0.764351  0  2.111274  0
O  O71  1  0.32535356  0.33745406  0.45993410  1  0  -0.591059  -0.764381  0  2.111314  0
O  O72  1  0.30277918  0.81410072  0.37139138  1  0  -0.317803  -0.559574  0  2.172561  0
O  O73  1  0.69721928  0.18589937  0.62860298  1  0  -0.317777  -0.559521  0  2.172616  0
O  O74  1  0.30101319  0.58323649  0.37377892  1  0  -0.320284  -0.552005  0  2.258923  0
O  O75  1  0.69898085  0.41675726  0.62621556  1  0  -0.320287  -0.551942  0  2.259023  0
