# generated using pymatgen
data_PrH4C12(O4F3)2
_symmetry_space_group_name_H-M   'P 1'
_cell_length_a   8.99401810
_cell_length_b   8.99545050
_cell_length_c   11.11702882
_cell_angle_alpha   109.25627581
_cell_angle_beta   108.71208410
_cell_angle_gamma   101.27717149
_symmetry_Int_Tables_number   1
_chemical_formula_structural   PrH4C12(O4F3)2
_chemical_formula_sum   'Pr2 H8 C24 O16 F12'
_cell_volume   757.17176145
_cell_formula_units_Z   2
loop_
 _symmetry_equiv_pos_site_id
 _symmetry_equiv_pos_as_xyz
  1  'x, y, z'
loop_
 _atom_site_type_symbol
 _atom_site_label
 _atom_site_symmetry_multiplicity
 _atom_site_fract_x
 _atom_site_fract_y
 _atom_site_fract_z
 _atom_site_occupancy
 _atom_site_hle17_bader_spin_density
 _atom_site_hle17_ddec_charge
 _atom_site_hle17_ddec_spin_density
 _atom_site_hle17_ddec_sum_bond_order
 _atom_site_hle17_magmom
 _atom_site_hse06_10hf_bader_spin_density
 _atom_site_hse06_10hf_ddec_charge
 _atom_site_hse06_10hf_ddec_spin_density
 _atom_site_hse06_10hf_ddec_sum_bond_order
 _atom_site_hse06_10hf_magmom
 _atom_site_hse06_bader_spin_density
 _atom_site_hse06_ddec_charge
 _atom_site_hse06_ddec_spin_density
 _atom_site_hse06_ddec_sum_bond_order
 _atom_site_hse06_magmom
 _atom_site_pbe_bader_spin_density
 _atom_site_pbe_cm5_charge
 _atom_site_pbe_ddec_charge
 _atom_site_pbe_ddec_spin_density
 _atom_site_pbe_ddec_sum_bond_order
 _atom_site_pbe_magmom
Pr  Pr0  1  0.37176486  0.16935407  0.54102511  1  0  2.333597  0  1.577814  0  0  2.224583  0  1.945191  0  0  2.261601  0  1.903528  0  0  1.49368  2.149043  0  2.063913  0
Pr  Pr1  1  0.62823247  0.83064380  0.45897327  1  0  2.333631  0  1.577795  0  0  2.224617  0  1.945169  0  0  2.261631  0  1.903507  0  0  1.493704  2.149055  0  2.063921  0
H  H2  1  0.10081024  0.09184297  0.65415468  1  0  0.471113  0  0.802718  0  0  0.440687  0  0.864586  0  0  0.451122  0  0.84902  0  0  0.317431  0.433069  0  0.875819  0
H  H3  1  0.43769992  0.44647897  0.34577915  1  0  0.47138  0  0.802188  0  0  0.44086  0  0.864305  0  0  0.451303  0  0.848712  0  0  0.317334  0.43323  0  0.87558  0
H  H4  1  0.89918793  0.90815742  0.34584728  1  0  0.471092  0  0.802765  0  0  0.440665  0  0.864631  0  0  0.451101  0  0.849064  0  0  0.317409  0.433046  0  0.875867  0
H  H5  1  0.56230104  0.55352263  0.65422116  1  0  0.471388  0  0.802175  0  0  0.440868  0  0.864291  0  0  0.451311  0  0.848697  0  0  0.317329  0.433239  0  0.875562  0
H  H6  1  0.17173826  0.28540533  0.73547489  1  0  0.44677  0  0.814591  0  0  0.424376  0  0.867859  0  0  0.432979  0  0.85513  0  0  0.323583  0.418043  0  0.87708  0
H  H7  1  0.55001414  0.43634157  0.26449048  1  0  0.446989  0  0.814136  0  0  0.42467  0  0.867417  0  0  0.433241  0  0.854743  0  0  0.323678  0.418321  0  0.876674  0
H  H8  1  0.82826226  0.71459503  0.26452679  1  0  0.446735  0  0.81463  0  0  0.42433  0  0.867924  0  0  0.432934  0  0.85519  0  0  0.323556  0.417995  0  0.87715  0
H  H9  1  0.44998682  0.56366003  0.73551074  1  0  0.446965  0  0.814165  0  0  0.424644  0  0.867452  0  0  0.433216  0  0.854777  0  0  0.32366  0.418295  0  0.876709  0
C  C10  1  0.36514413  0.85896057  0.22383240  1  0  0.751553  0  3.852876  0  0  0.69975  0  4.159123  0  0  0.735022  0  4.145601  0  0  0.232695  0.676025  0  4.162485  0
C  C11  1  0.63485288  0.14103983  0.77616836  1  0  0.751499  0  3.853128  0  0  0.699721  0  4.159345  0  0  0.734993  0  4.145825  0  0  0.232693  0.67599  0  4.162717  0
C  C12  1  0.23629163  0.86297653  0.09877950  1  0  -0.17432  0  3.711145  0  0  -0.177249  0  3.976245  0  0  -0.180141  0  3.988754  0  0  -0.010555  -0.175951  0  3.969231  0
C  C13  1  0.76370828  0.13702885  0.90122332  1  0  -0.17431  0  3.711343  0  0  -0.17724  0  3.97644  0  0  -0.180131  0  3.988943  0  0  -0.010584  -0.175953  0  3.969433  0
C  C14  1  0.07122337  0.75852574  0.03664531  1  0  0.200618  0  3.781709  0  0  0.158594  0  4.091849  0  0  0.16688  0  4.099244  0  0  0.091667  0.152408  0  4.087858  0
C  C15  1  0.72164562  0.03400525  0.96336676  1  0  0.200969  0  3.77708  0  0  0.15817  0  4.088667  0  0  0.166499  0  4.095992  0  0  0.090914  0.151945  0  4.084787  0
C  C16  1  0.92877568  0.24147713  0.96335483  1  0  0.200621  0  3.781982  0  0  0.158586  0  4.092094  0  0  0.166878  0  4.099493  0  0  0.091665  0.15241  0  4.088087  0
C  C17  1  0.27835344  0.96599762  0.03663338  1  0  0.201043  0  3.777124  0  0  0.158278  0  4.088727  0  0  0.166606  0  4.096053  0  0  0.09097  0.152048  0  4.084852  0
C  C18  1  0.95508838  0.75110470  0.91460018  1  0  0.212402  0  3.775606  0  0  0.172936  0  4.085201  0  0  0.184037  0  4.093906  0  0  0.094835  0.16519  0  4.080099  0
C  C19  1  0.83649701  0.04006454  0.08539484  1  0  0.212674  0  3.772544  0  0  0.173512  0  4.082521  0  0  0.184574  0  4.091238  0  0  0.095264  0.165662  0  4.077519  0
C  C20  1  0.04491068  0.24889817  0.08539996  1  0  0.212335  0  3.775752  0  0  0.172938  0  4.085285  0  0  0.184022  0  4.094007  0  0  0.094867  0.165199  0  4.080178  0
C  C21  1  0.16350672  0.95993828  0.91460652  1  0  0.212693  0  3.772557  0  0  0.173424  0  4.082646  0  0  0.184487  0  4.091364  0  0  0.095185  0.165569  0  4.077641  0
C  C22  1  0.99746605  0.84994571  0.84726029  1  0  -0.238284  0  3.73707  0  0  -0.242979  0  4.008698  0  0  -0.253508  0  4.02963  0  0  -0.033718  -0.236523  0  3.995446  0
C  C23  1  0.00253608  0.15005588  0.15274124  1  0  -0.238175  0  3.737104  0  0  -0.242928  0  4.008684  0  0  -0.253456  0  4.029634  0  0  -0.033715  -0.236475  0  3.995412  0
C  C24  1  0.74309242  0.24287589  0.49973833  1  0  0.771727  0  3.847737  0  0  0.722597  0  4.147007  0  0  0.75885  0  4.131829  0  0  0.24959  0.697761  0  4.153671  0
C  C25  1  0.25690637  0.75711946  0.50026068  1  0  0.771724  0  3.847793  0  0  0.722544  0  4.147139  0  0  0.758798  0  4.131962  0  0  0.249575  0.697708  0  4.153799  0
C  C26  1  0.87561881  0.37547908  0.49978674  1  0  -0.184541  0  3.746172  0  0  -0.190527  0  4.00994  0  0  -0.194443  0  4.022382  0  0  -0.01339  -0.188669  0  4.003259  0
C  C27  1  0.12438074  0.62451499  0.50021034  1  0  -0.184395  0  3.745989  0  0  -0.190364  0  4.009716  0  0  -0.194281  0  4.022158  0  0  -0.013353  -0.188502  0  4.00303  0
C  C28  1  0.01814963  0.48061107  0.62063097  1  0  0.192674  0  3.802427  0  0  0.159036  0  4.102806  0  0  0.167973  0  4.111593  0  0  0.093277  0.152662  0  4.09775  0
C  C29  1  0.86019631  0.39762665  0.37914570  1  0  0.189052  0  3.805107  0  0  0.155108  0  4.106035  0  0  0.163995  0  4.114872  0  0  0.092145  0.148734  0  4.100897  0
C  C30  1  0.98184758  0.51938302  0.37936549  1  0  0.19255  0  3.802383  0  0  0.158931  0  4.102748  0  0  0.167869  0  4.111536  0  0  0.093275  0.152553  0  4.097692  0
C  C31  1  0.13980248  0.60236870  0.62085332  1  0  0.188952  0  3.805125  0  0  0.155028  0  4.106033  0  0  0.163917  0  4.114871  0  0  0.092123  0.148654  0  4.100892  0
C  C32  1  0.87400739  0.83905700  0.71310535  1  0  0.673007  0  3.921289  0  0  0.625872  0  4.228533  0  0  0.658721  0  4.221834  0  0  0.195887  0.604652  0  4.227048  0
C  C33  1  0.12599549  0.16094330  0.28689424  1  0  0.673015  0  3.921289  0  0  0.625911  0  4.228512  0  0  0.658759  0  4.221811  0  0  0.195885  0.604695  0  4.227033  0
O  O34  1  0.38977630  0.95708303  0.34686146  1  0  -0.814524  0  2.138043  0  0  -0.767902  0  2.397864  0  0  -0.793089  0  2.386428  0  0  -0.415853  -0.739612  0  2.405172  0
O  O35  1  0.61022144  0.04291612  0.65314096  1  0  -0.814495  0  2.138116  0  0  -0.767872  0  2.397899  0  0  -0.793057  0  2.386463  0  0  -0.415841  -0.73958  0  2.405211  0
O  O36  1  0.72482395  0.73729604  0.65702383  1  0  -0.692546  0  1.976996  0  0  -0.653488  0  2.216453  0  0  -0.675641  0  2.20594  0  0  -0.366419  -0.63322  0  2.22283  0
O  O37  1  0.08041065  0.06804942  0.34317604  1  0  -0.692559  0  1.978081  0  0  -0.65348  0  2.217549  0  0  -0.675606  0  2.207045  0  0  -0.366282  -0.633259  0  2.22399  0
O  O38  1  0.27517702  0.26270554  0.34297559  1  0  -0.692542  0  1.977037  0  0  -0.653501  0  2.216501  0  0  -0.675652  0  2.20598  0  0  -0.366434  -0.633239  0  2.222879  0
O  O39  1  0.91958637  0.93195096  0.65682291  1  0  -0.692507  0  1.978105  0  0  -0.65342  0  2.217586  0  0  -0.675546  0  2.207085  0  0  -0.366281  -0.633198  0  2.224026  0
O  O40  1  0.17159675  0.19398393  0.65832804  1  0  -0.904375  0  1.807761  0  0  -0.865236  0  1.990608  0  0  -0.881248  0  1.959696  0  0  -0.624458  -0.847224  0  2.015647  0
O  O41  1  0.53564730  0.51321824  0.34164941  1  0  -0.904914  0  1.8064  0  0  -0.865874  0  1.989123  0  0  -0.881896  0  1.958298  0  0  -0.6243  -0.847798  0  2.014124  0
O  O42  1  0.82840332  0.80601518  0.34167409  1  0  -0.904325  0  1.80786  0  0  -0.865173  0  1.990681  0  0  -0.881187  0  1.95977  0  0  -0.624397  -0.847155  0  2.015719  0
O  O43  1  0.46435483  0.48678334  0.65835211  1  0  -0.904896  0  1.806394  0  0  -0.865853  0  1.989119  0  0  -0.881875  0  1.958293  0  0  -0.62428  -0.847785  0  2.014115  0
O  O44  1  0.63557711  0.29123469  0.53636341  1  0  -0.692456  0  1.988925  0  0  -0.65249  0  2.237042  0  0  -0.676736  0  2.224639  0  0  -0.378884  -0.62925  0  2.24612  0
O  O45  1  0.75488998  0.09879637  0.46314959  1  0  -0.691706  0  1.990194  0  0  -0.651616  0  2.238051  0  0  -0.675863  0  2.225659  0  0  -0.37797  -0.628322  0  2.247164  0
O  O46  1  0.36442168  0.70876066  0.46363650  1  0  -0.69249  0  1.988915  0  0  -0.652506  0  2.237055  0  0  -0.676748  0  2.224649  0  0  -0.378898  -0.629263  0  2.246134  0
O  O47  1  0.24511246  0.90120270  0.53685045  1  0  -0.691723  0  1.990218  0  0  -0.651611  0  2.238097  0  0  -0.675859  0  2.225706  0  0  -0.377977  -0.628323  0  2.247211  0
O  O48  1  0.44241052  0.75841535  0.20066879  1  0  -0.641014  0  1.879369  0  0  -0.611716  0  2.10059  0  0  -0.632688  0  2.088172  0  0  -0.344027  -0.592006  0  2.109541  0
O  O49  1  0.55758897  0.24158877  0.79933179  1  0  -0.641021  0  1.879521  0  0  -0.611726  0  2.100728  0  0  -0.632706  0  2.08832  0  0  -0.344014  -0.592018  0  2.109683  0
F  F50  1  0.02076933  0.66130261  0.09605284  1  0  -0.158439  0  1.262153  0  0  -0.109162  0  1.429739  0  0  -0.116556  0  1.418297  0  0  -0.082914  -0.103912  0  1.437857  0
F  F51  1  0.56512652  0.92397007  0.90412681  1  0  -0.158263  0  1.259291  0  0  -0.10896  0  1.427373  0  0  -0.116368  0  1.415904  0  0  -0.082686  -0.103719  0  1.435545  0
F  F52  1  0.97923016  0.33870150  0.90394684  1  0  -0.158396  0  1.262197  0  0  -0.109138  0  1.429799  0  0  -0.116533  0  1.418355  0  0  -0.082876  -0.103891  0  1.437912  0
F  F53  1  0.43487177  0.07603409  0.09587706  1  0  -0.158308  0  1.259347  0  0  -0.108994  0  1.427415  0  0  -0.116402  0  1.415946  0  0  -0.082696  -0.103752  0  1.435588  0
F  F54  1  0.79944121  0.64415692  0.86487884  1  0  -0.151961  0  1.276197  0  0  -0.097851  0  1.443147  0  0  -0.105564  0  1.431563  0  0  -0.070078  -0.092507  0  1.45121  0
F  F55  1  0.77964573  0.93387713  0.13507961  1  0  -0.151889  0  1.275202  0  0  -0.098058  0  1.442543  0  0  -0.105774  0  1.43095  0  0  -0.070322  -0.09277  0  1.450623  0
F  F56  1  0.20056018  0.35584592  0.13512192  1  0  -0.151947  0  1.276221  0  0  -0.097867  0  1.443164  0  0  -0.105576  0  1.431585  0  0  -0.070106  -0.092529  0  1.451228  0
F  F57  1  0.22035671  0.06612194  0.86492043  1  0  -0.151868  0  1.275252  0  0  -0.097997  0  1.442623  0  0  -0.105714  0  1.431029  0  0  -0.070262  -0.092708  0  1.450702  0
F  F58  1  0.04227890  0.46419259  0.74208607  1  0  -0.16222  0  1.26339  0  0  -0.118005  0  1.439341  0  0  -0.126759  0  1.428824  0  0  -0.075631  -0.111924  0  1.446971  0
F  F59  1  0.72262231  0.30055729  0.25742137  1  0  -0.160612  0  1.265066  0  0  -0.116264  0  1.441016  0  0  -0.125016  0  1.430558  0  0  -0.074541  -0.11016  0  1.448589  0
F  F60  1  0.95771874  0.53580276  0.25791084  1  0  -0.162183  0  1.2634  0  0  -0.117969  0  1.43935  0  0  -0.126724  0  1.428832  0  0  -0.075628  -0.111887  0  1.446981  0
F  F61  1  0.27737649  0.69943804  0.74257584  1  0  -0.160564  0  1.265114  0  0  -0.11622  0  1.441058  0  0  -0.124972  0  1.430599  0  0  -0.074507  -0.110116  0  1.448631  0
