# generated using pymatgen
data_KCuH24C12(BrO3)2
_symmetry_space_group_name_H-M   'P 1'
_cell_length_a   8.00321543
_cell_length_b   8.73698547
_cell_length_c   13.80408489
_cell_angle_alpha   103.22788470
_cell_angle_beta   89.99968937
_cell_angle_gamma   89.99987481
_symmetry_Int_Tables_number   1
_chemical_formula_structural   KCuH24C12(BrO3)2
_chemical_formula_sum   'K2 Cu2 H48 C24 Br4 O12'
_cell_volume   939.62652409
_cell_formula_units_Z   2
loop_
 _symmetry_equiv_pos_site_id
 _symmetry_equiv_pos_as_xyz
  1  'x, y, z'
loop_
 _atom_site_type_symbol
 _atom_site_label
 _atom_site_symmetry_multiplicity
 _atom_site_fract_x
 _atom_site_fract_y
 _atom_site_fract_z
 _atom_site_occupancy
 _atom_site_hle17_bader_spin_density
 _atom_site_hle17_ddec_charge
 _atom_site_hle17_ddec_spin_density
 _atom_site_hle17_ddec_sum_bond_order
 _atom_site_hle17_magmom
 _atom_site_hse06_10hf_bader_spin_density
 _atom_site_hse06_10hf_ddec_charge
 _atom_site_hse06_10hf_ddec_spin_density
 _atom_site_hse06_10hf_ddec_sum_bond_order
 _atom_site_hse06_10hf_magmom
 _atom_site_hse06_bader_spin_density
 _atom_site_hse06_ddec_charge
 _atom_site_hse06_ddec_spin_density
 _atom_site_hse06_ddec_sum_bond_order
 _atom_site_hse06_magmom
 _atom_site_pbe_bader_spin_density
 _atom_site_pbe_cm5_charge
 _atom_site_pbe_ddec_charge
 _atom_site_pbe_ddec_spin_density
 _atom_site_pbe_ddec_sum_bond_order
 _atom_site_pbe_magmom
K  K0  1  0.99998857  0.99999793  0.99999895  1  0  0.869423  0  0.53286  0  0  0.787085  0  0.748775  0  0  0.80529  0  0.724601  0  0  0.686692  0.774201  0  0.765205  0
K  K1  1  0.49999866  0.50000014  0.49999856  1  0  0.86943  0  0.53285  0  0  0.787094  0  0.748785  0  0  0.805285  0  0.724613  0  0  0.686697  0.774194  0  0.765216  0
Cu  Cu2  1  0.49999154  0.00000742  0.00000750  1  0  0.358722  0  1.781196  0  0  0.241537  0  2.273952  0  0  0.274317  0  2.210175  0  0  0.234796  0.219481  0  2.317697  0
Cu  Cu3  1  0.00000087  0.49999981  0.50000004  1  0  0.358709  0  1.781172  0  0  0.241549  0  2.274007  0  0  0.274291  0  2.21014  0  0  0.234808  0.219491  0  2.317666  0
H  H4  1  0.92818395  0.69527636  0.74547277  1  0  0.056076  0  0.934767  0  0  0.06939  0  1.002803  0  0  0.070198  0  1.001896  0  0  0.099992  0.068494  0  1.003727  0
H  H5  1  0.42818100  0.80472198  0.75453008  1  0  0.056063  0  0.934769  0  0  0.069376  0  1.002799  0  0  0.070185  0  1.001891  0  0  0.099982  0.068483  0  1.003722  0
H  H6  1  0.07182211  0.30472041  0.25452891  1  0  0.056057  0  0.934773  0  0  0.069369  0  1.002788  0  0  0.070175  0  1.001884  0  0  0.099988  0.068476  0  1.003711  0
H  H7  1  0.57181507  0.19527598  0.24547395  1  0  0.056123  0  0.934747  0  0  0.069401  0  1.002782  0  0  0.070211  0  1.001877  0  0  0.099996  0.068509  0  1.003707  0
H  H8  1  0.13358860  0.66168748  0.69432098  1  0  0.047767  0  0.949048  0  0  0.054533  0  1.031209  0  0  0.056283  0  1.027949  0  0  0.093507  0.052744  0  1.033927  0
H  H9  1  0.63358567  0.83831183  0.80567788  1  0  0.047793  0  0.949022  0  0  0.054535  0  1.031203  0  0  0.056282  0  1.027948  0  0  0.093491  0.052747  0  1.033925  0
H  H10  1  0.86641621  0.33830928  0.30567853  1  0  0.047818  0  0.949053  0  0  0.054534  0  1.031247  0  0  0.056283  0  1.027985  0  0  0.093482  0.052744  0  1.03397  0
H  H11  1  0.36641415  0.16168846  0.19432213  1  0  0.047787  0  0.949061  0  0  0.054524  0  1.03121  0  0  0.056272  0  1.027957  0  0  0.093489  0.052738  0  1.033929  0
H  H12  1  0.18669917  0.95495503  0.74599903  1  0  0.044409  0  0.945134  0  0  0.053011  0  1.023584  0  0  0.054323  0  1.021434  0  0  0.093656  0.051871  0  1.025326  0
H  H13  1  0.68670239  0.54504526  0.75399545  1  0  0.044419  0  0.945163  0  0  0.053026  0  1.023605  0  0  0.054338  0  1.021451  0  0  0.093669  0.051886  0  1.025345  0
H  H14  1  0.81330064  0.04504406  0.25399646  1  0  0.044458  0  0.945154  0  0  0.053066  0  1.023584  0  0  0.054376  0  1.021438  0  0  0.093684  0.051925  0  1.02533  0
H  H15  1  0.31330366  0.45495618  0.24600038  1  0  0.044411  0  0.945158  0  0  0.053005  0  1.023619  0  0  0.054314  0  1.021463  0  0  0.093657  0.051864  0  1.025366  0
H  H16  1  0.02955658  0.89647766  0.65229596  1  0  0.053278  0  0.941814  0  0  0.066443  0  1.009001  0  0  0.066736  0  1.008866  0  0  0.093449  0.066286  0  1.008644  0
H  H17  1  0.52956255  0.60351965  0.84770150  1  0  0.053293  0  0.941747  0  0  0.066465  0  1.008927  0  0  0.066756  0  1.008792  0  0  0.093466  0.066309  0  1.008569  0
H  H18  1  0.97044323  0.10351791  0.34770048  1  0  0.053299  0  0.941767  0  0  0.066445  0  1.008969  0  0  0.066736  0  1.008839  0  0  0.093448  0.066288  0  1.008614  0
H  H19  1  0.47044725  0.39647711  0.15229801  1  0  0.053316  0  0.941843  0  0  0.066481  0  1.009019  0  0  0.066769  0  1.008883  0  0  0.093465  0.066323  0  1.008664  0
H  H20  1  0.90613862  0.16148974  0.70481553  1  0  0.052273  0  0.957661  0  0  0.064314  0  1.027663  0  0  0.06482  0  1.027478  0  0  0.087155  0.063851  0  1.027777  0
H  H21  1  0.40613771  0.33850763  0.79518431  1  0  0.052298  0  0.957687  0  0  0.064317  0  1.027675  0  0  0.064828  0  1.027489  0  0  0.087158  0.06385  0  1.027795  0
H  H22  1  0.09386369  0.83850820  0.29518342  1  0  0.052326  0  0.957668  0  0  0.064348  0  1.027648  0  0  0.064854  0  1.027464  0  0  0.087173  0.063884  0  1.027768  0
H  H23  1  0.59386585  0.66148678  0.20481559  1  0  0.052269  0  0.957712  0  0  0.064321  0  1.0277  0  0  0.06483  0  1.027514  0  0  0.087167  0.06386  0  1.027814  0
H  H24  1  0.07071518  0.20838507  0.79426892  1  0  0.055572  0  0.934426  0  0  0.070013  0  1.001104  0  0  0.070427  0  1.001076  0  0  0.097333  0.06964  0  1.001251  0
H  H25  1  0.57071703  0.29160873  0.70573003  1  0  0.055625  0  0.934378  0  0  0.070037  0  1.00106  0  0  0.070454  0  1.00103  0  0  0.097323  0.069664  0  1.001208  0
H  H26  1  0.92928588  0.79161053  0.20573187  1  0  0.055641  0  0.934404  0  0  0.070033  0  1.0011  0  0  0.070447  0  1.001072  0  0  0.097336  0.069661  0  1.001251  0
H  H27  1  0.42928653  0.70838451  0.29426898  1  0  0.055571  0  0.934359  0  0  0.070013  0  1.001039  0  0  0.070427  0  1.001011  0  0  0.097326  0.069641  0  1.001193  0
H  H28  1  0.80418626  0.37088092  0.83408953  1  0  0.042111  0  0.947892  0  0  0.054589  0  1.021537  0  0  0.054892  0  1.020815  0  0  0.094667  0.054236  0  1.022215  0
H  H29  1  0.30418328  0.12911915  0.66591102  1  0  0.042119  0  0.947935  0  0  0.05462  0  1.02154  0  0  0.054924  0  1.020818  0  0  0.094698  0.054262  0  1.022226  0
H  H30  1  0.19581480  0.62911467  0.16590909  1  0  0.042146  0  0.94789  0  0  0.054624  0  1.021536  0  0  0.054926  0  1.020813  0  0  0.094676  0.054265  0  1.022224  0
H  H31  1  0.69581653  0.87087761  0.33408776  1  0  0.042074  0  0.947963  0  0  0.054586  0  1.021559  0  0  0.054892  0  1.020841  0  0  0.094695  0.054228  0  1.022244  0
H  H32  1  0.70176878  0.19879560  0.85366511  1  0  0.049171  0  0.941001  0  0  0.059514  0  1.0166  0  0  0.060542  0  1.014876  0  0  0.093562  0.058611  0  1.017889  0
H  H33  1  0.20176933  0.30120716  0.64633687  1  0  0.049175  0  0.940935  0  0  0.059512  0  1.01655  0  0  0.060545  0  1.014825  0  0  0.093547  0.058606  0  1.017835  0
H  H34  1  0.29823103  0.80119999  0.14633495  1  0  0.049188  0  0.940958  0  0  0.059533  0  1.016564  0  0  0.060562  0  1.014836  0  0  0.093555  0.058629  0  1.017849  0
H  H35  1  0.79823298  0.69879313  0.35366531  1  0  0.049145  0  0.940939  0  0  0.05949  0  1.016565  0  0  0.060527  0  1.014841  0  0  0.093534  0.058585  0  1.01785  0
H  H36  1  0.67000270  0.33275249  0.02619995  1  0  0.046995  0  0.960628  0  0  0.057174  0  1.036922  0  0  0.058531  0  1.034615  0  0  0.088254  0.056064  0  1.03854  0
H  H37  1  0.16999930  0.16724594  0.47380723  1  0  0.047017  0  0.960605  0  0  0.057197  0  1.036857  0  0  0.058561  0  1.034541  0  0  0.088263  0.056091  0  1.03847  0
H  H38  1  0.32999961  0.66724547  0.97380407  1  0  0.046993  0  0.960603  0  0  0.057186  0  1.036886  0  0  0.058542  0  1.034578  0  0  0.088266  0.056088  0  1.038496  0
H  H39  1  0.82999676  0.83275318  0.52619551  1  0  0.047045  0  0.960599  0  0  0.057218  0  1.036872  0  0  0.058577  0  1.034561  0  0  0.088275  0.056113  0  1.038481  0
H  H40  1  0.78485642  0.50065650  0.00901074  1  0  0.060846  0  0.94284  0  0  0.071643  0  1.01259  0  0  0.072463  0  1.012039  0  0  0.091037  0.071285  0  1.012643  0
H  H41  1  0.28485959  0.99934255  0.49098969  1  0  0.06086  0  0.942859  0  0  0.071662  0  1.012563  0  0  0.072479  0  1.012016  0  0  0.091042  0.071298  0  1.012626  0
H  H42  1  0.21514089  0.49934261  0.99098693  1  0  0.060883  0  0.942787  0  0  0.07167  0  1.012549  0  0  0.07249  0  1.011997  0  0  0.091035  0.071318  0  1.012607  0
H  H43  1  0.71514022  0.00065774  0.50900887  1  0  0.060865  0  0.942857  0  0  0.071665  0  1.012566  0  0  0.072483  0  1.012017  0  0  0.09104  0.071297  0  1.012637  0
H  H44  1  0.01063591  0.43811853  0.12168103  1  0  0.051037  0  0.93277  0  0  0.064809  0  1.00015  0  0  0.065572  0  0.999124  0  0  0.099542  0.064163  0  1.001015  0
H  H45  1  0.51062795  0.06188508  0.37831509  1  0  0.050971  0  0.932818  0  0  0.064795  0  1.000225  0  0  0.065558  0  0.999199  0  0  0.099567  0.064153  0  1.00109  0
H  H46  1  0.98936890  0.56188644  0.87831603  1  0  0.050963  0  0.932811  0  0  0.064809  0  1.000181  0  0  0.06557  0  0.999154  0  0  0.09956  0.064168  0  1.001043  0
H  H47  1  0.48936436  0.93811989  0.62168197  1  0  0.051029  0  0.932749  0  0  0.064798  0  1.000138  0  0  0.065563  0  0.999113  0  0  0.099545  0.064152  0  1.001007  0
H  H48  1  0.81296934  0.48767174  0.18147737  1  0  0.055649  0  0.946186  0  0  0.07093  0  1.011343  0  0  0.070878  0  1.011796  0  0  0.101208  0.071098  0  1.010767  0
H  H49  1  0.31296023  0.01233206  0.31852433  1  0  0.055595  0  0.946132  0  0  0.070929  0  1.011321  0  0  0.070875  0  1.011772  0  0  0.101218  0.071103  0  1.010753  0
H  H50  1  0.18703797  0.51233207  0.81852170  1  0  0.055545  0  0.946242  0  0  0.070898  0  1.011391  0  0  0.070844  0  1.011841  0  0  0.101207  0.071073  0  1.010822  0
H  H51  1  0.68703208  0.98767293  0.68147563  1  0  0.055648  0  0.946184  0  0  0.070931  0  1.011338  0  0  0.070882  0  1.011792  0  0  0.101222  0.071101  0  1.010763  0
C  C52  1  0.05728891  0.74145094  0.75110986  1  0  0.056469  0  3.67329  0  0  -0.002423  0  3.944217  0  0  0.003773  0  3.949736  0  0  -0.076766  -0.006481  0  3.940542  0
C  C53  1  0.55728669  0.75854980  0.74888800  1  0  0.056445  0  3.673378  0  0  -0.00247  0  3.94433  0  0  0.003729  0  3.949845  0  0  -0.076781  -0.00654  0  3.940666  0
C  C54  1  0.94271715  0.25854934  0.24888943  1  0  0.056455  0  3.673377  0  0  -0.002406  0  3.944267  0  0  0.003798  0  3.949777  0  0  -0.07676  -0.00647  0  3.940602  0
C  C55  1  0.44271063  0.24145049  0.25111129  1  0  0.056367  0  3.673418  0  0  -0.002404  0  3.944209  0  0  0.003776  0  3.949735  0  0  -0.076763  -0.00647  0  3.940547  0
C  C56  1  0.06012892  0.90390749  0.73127531  1  0  0.057871  0  3.671352  0  0  0.000647  0  3.939109  0  0  0.006692  0  3.945765  0  0  -0.076901  -0.003201  0  3.934285  0
C  C57  1  0.56013064  0.59609324  0.76872253  1  0  0.057872  0  3.671322  0  0  0.000648  0  3.939085  0  0  0.00669  0  3.945749  0  0  -0.076925  -0.003201  0  3.934264  0
C  C58  1  0.93987214  0.09609043  0.26872219  1  0  0.057743  0  3.67127  0  0  0.000538  0  3.939044  0  0  0.006584  0  3.94569  0  0  -0.076955  -0.003307  0  3.934232  0
C  C59  1  0.43987292  0.40390705  0.23127603  1  0  0.057859  0  3.671466  0  0  0.000615  0  3.939184  0  0  0.006684  0  3.945814  0  0  -0.076881  -0.003224  0  3.934362  0
C  C60  1  0.94331458  0.15891710  0.78152271  1  0  0.045793  0  3.68381  0  0  -0.011573  0  3.95346  0  0  -0.005878  0  3.959696  0  0  -0.082193  -0.015386  0  3.949233  0
C  C61  1  0.44331562  0.34108368  0.71847894  1  0  0.045707  0  3.683823  0  0  -0.011556  0  3.953342  0  0  -0.005872  0  3.959593  0  0  -0.082179  -0.015364  0  3.949106  0
C  C62  1  0.05668649  0.84108084  0.21847769  1  0  0.045624  0  3.684077  0  0  -0.011611  0  3.953623  0  0  -0.005919  0  3.95986  0  0  -0.08222  -0.01543  0  3.949406  0
C  C63  1  0.55668669  0.65891426  0.28152218  1  0  0.045817  0  3.683778  0  0  -0.011559  0  3.953424  0  0  -0.00586  0  3.959671  0  0  -0.082181  -0.015379  0  3.949206  0
C  C64  1  0.82463807  0.25732135  0.85479712  1  0  0.05712  0  3.690115  0  0  -0.003934  0  3.964237  0  0  0.002664  0  3.969785  0  0  -0.079614  -0.008203  0  3.96015  0
C  C65  1  0.32464002  0.24267748  0.64520391  1  0  0.057065  0  3.690166  0  0  -0.004016  0  3.964274  0  0  0.002576  0  3.969836  0  0  -0.079649  -0.008275  0  3.960178  0
C  C66  1  0.17536174  0.74267424  0.14520294  1  0  0.057048  0  3.69019  0  0  -0.004035  0  3.964271  0  0  0.002564  0  3.969826  0  0  -0.079665  -0.008294  0  3.960177  0
C  C67  1  0.67536104  0.75732046  0.35479649  1  0  0.05716  0  3.690022  0  0  -0.003945  0  3.964252  0  0  0.00263  0  3.969828  0  0  -0.07964  -0.0082  0  3.960157  0
C  C68  1  0.79659676  0.38317075  0.02551709  1  0  0.050127  0  3.665669  0  0  -0.006768  0  3.933529  0  0  -0.000998  0  3.939364  0  0  -0.081995  -0.010175  0  3.929041  0
C  C69  1  0.29659597  0.11683075  0.47448433  1  0  0.049952  0  3.665753  0  0  -0.006845  0  3.933617  0  0  -0.001085  0  3.939456  0  0  -0.082035  -0.010256  0  3.929139  0
C  C70  1  0.20340430  0.61682953  0.97448219  1  0  0.050043  0  3.665604  0  0  -0.006851  0  3.933542  0  0  -0.001085  0  3.939384  0  0  -0.082054  -0.010283  0  3.929077  0
C  C71  1  0.70340134  0.88317189  0.52551602  1  0  0.049988  0  3.665815  0  0  -0.006848  0  3.933614  0  0  -0.001078  0  3.939458  0  0  -0.082032  -0.01026  0  3.929141  0
C  C72  1  0.87983658  0.39896404  0.12512135  1  0  0.065963  0  3.661668  0  0  0.008822  0  3.929222  0  0  0.015012  0  3.93545  0  0  -0.07486  0.004749  0  3.924631  0
C  C73  1  0.37982924  0.10104304  0.37487843  1  0  0.066232  0  3.661473  0  0  0.008855  0  3.929377  0  0  0.015053  0  3.935593  0  0  -0.074875  0.004772  0  3.924803  0
C  C74  1  0.12016948  0.60104447  0.87487839  1  0  0.066193  0  3.661555  0  0  0.008859  0  3.929381  0  0  0.015061  0  3.935591  0  0  -0.07484  0.004769  0  3.924817  0
C  C75  1  0.62016432  0.89896429  0.62512042  1  0  0.066038  0  3.661634  0  0  0.00889  0  3.929168  0  0  0.015069  0  3.935411  0  0  -0.074847  0.004815  0  3.924583  0
Br  Br76  1  0.34702843  0.18381273  0.95232736  1  0  -0.550648  0  1.198454  0  0  -0.464087  0  1.56069  0  0  -0.486519  0  1.521726  0  0  -0.281352  -0.448878  0  1.586617  0
Br  Br77  1  0.84702292  0.31619660  0.54767510  1  0  -0.550637  0  1.198378  0  0  -0.464095  0  1.560648  0  0  -0.486504  0  1.521625  0  0  -0.281375  -0.448881  0  1.58653  0
Br  Br78  1  0.65296264  0.81620173  0.04768844  1  0  -0.550616  0  1.198336  0  0  -0.464077  0  1.560604  0  0  -0.486509  0  1.52164  0  0  -0.281335  -0.44887  0  1.586532  0
Br  Br79  1  0.15297564  0.68380252  0.45232547  1  0  -0.550627  0  1.198417  0  0  -0.464086  0  1.5607  0  0  -0.486497  0  1.521677  0  0  -0.281358  -0.44887  0  1.586588  0
O  O80  1  0.12408785  0.74965919  0.84828945  1  0  -0.33957  0  2.280528  0  0  -0.267261  0  2.534393  0  0  -0.283343  0  2.536044  0  0  -0.280407  -0.256134  0  2.533208  0
O  O81  1  0.62408030  0.75034486  0.65171012  1  0  -0.339619  0  2.28067  0  0  -0.267308  0  2.534444  0  0  -0.283381  0  2.5361  0  0  -0.280406  -0.256174  0  2.533248  0
O  O82  1  0.87592070  0.25034345  0.15171090  1  0  -0.339626  0  2.280711  0  0  -0.2673  0  2.534461  0  0  -0.283381  0  2.536114  0  0  -0.280417  -0.256173  0  2.533275  0
O  O83  1  0.37590952  0.24965895  0.34828895  1  0  -0.339598  0  2.280586  0  0  -0.267302  0  2.534436  0  0  -0.28338  0  2.536092  0  0  -0.280412  -0.256175  0  2.53326  0
O  O84  1  0.94219889  0.00139152  0.79516839  1  0  -0.335629  0  2.271157  0  0  -0.260884  0  2.520088  0  0  -0.277481  0  2.522642  0  0  -0.276452  -0.249473  0  2.518134  0
O  O85  1  0.44220095  0.49860808  0.70483165  1  0  -0.335605  0  2.271174  0  0  -0.260892  0  2.520093  0  0  -0.277484  0  2.522648  0  0  -0.276445  -0.249477  0  2.518133  0
O  O86  1  0.05780217  0.99860289  0.20483078  1  0  -0.335498  0  2.271209  0  0  -0.260824  0  2.520128  0  0  -0.277419  0  2.522681  0  0  -0.276392  -0.249411  0  2.518172  0
O  O87  1  0.55780136  0.50138987  0.29516948  1  0  -0.335663  0  2.271242  0  0  -0.260889  0  2.520155  0  0  -0.277491  0  2.522701  0  0  -0.276488  -0.249473  0  2.5182  0
O  O88  1  0.89692604  0.28251682  0.95160724  1  0  -0.336729  0  2.287964  0  0  -0.263182  0  2.539901  0  0  -0.279357  0  2.542172  0  0  -0.283549  -0.251971  0  2.537781  0
O  O89  1  0.39692644  0.21748294  0.54839369  1  0  -0.33671  0  2.28807  0  0  -0.263163  0  2.539973  0  0  -0.27934  0  2.542249  0  0  -0.283545  -0.251949  0  2.537848  0
O  O90  1  0.10307252  0.71748112  0.04839243  1  0  -0.336759  0  2.287949  0  0  -0.26315  0  2.539844  0  0  -0.279333  0  2.542115  0  0  -0.283516  -0.251931  0  2.537722  0
O  O91  1  0.60307212  0.78251735  0.45160705  1  0  -0.33671  0  2.287947  0  0  -0.263177  0  2.539894  0  0  -0.279344  0  2.542173  0  0  -0.283538  -0.25196  0  2.537766  0
