# generated using pymatgen
data_CdH4C3SIN3
_symmetry_space_group_name_H-M   'P 1'
_cell_length_a   6.99944152
_cell_length_b   10.14349774
_cell_length_c   11.38991616
_cell_angle_alpha   89.99960118
_cell_angle_beta   94.66465460
_cell_angle_gamma   90.00016316
_symmetry_Int_Tables_number   1
_chemical_formula_structural   CdH4C3SIN3
_chemical_formula_sum   'Cd4 H16 C12 S4 I4 N12'
_cell_volume   805.99207482
_cell_formula_units_Z   4
loop_
 _symmetry_equiv_pos_site_id
 _symmetry_equiv_pos_as_xyz
  1  'x, y, z'
loop_
 _atom_site_type_symbol
 _atom_site_label
 _atom_site_symmetry_multiplicity
 _atom_site_fract_x
 _atom_site_fract_y
 _atom_site_fract_z
 _atom_site_occupancy
 _atom_site_hle17_bader_spin_density
 _atom_site_hle17_ddec_charge
 _atom_site_hle17_ddec_spin_density
 _atom_site_hle17_ddec_sum_bond_order
 _atom_site_hle17_magmom
 _atom_site_hse06_10hf_bader_spin_density
 _atom_site_hse06_10hf_ddec_charge
 _atom_site_hse06_10hf_ddec_spin_density
 _atom_site_hse06_10hf_ddec_sum_bond_order
 _atom_site_hse06_10hf_magmom
 _atom_site_hse06_bader_spin_density
 _atom_site_hse06_ddec_charge
 _atom_site_hse06_ddec_spin_density
 _atom_site_hse06_ddec_sum_bond_order
 _atom_site_hse06_magmom
 _atom_site_pbe_bader_spin_density
 _atom_site_pbe_cm5_charge
 _atom_site_pbe_ddec_charge
 _atom_site_pbe_ddec_spin_density
 _atom_site_pbe_ddec_sum_bond_order
 _atom_site_pbe_magmom
Cd  Cd0  1  0.25823822  0.06677375  0.59658561  1  0  0.790732  0  2.045574  0  0  0.616644  0  2.517715  0  0  0.659911  0  2.483  0  0  0.580864  0.586139  0  2.542276  0
Cd  Cd1  1  0.24176413  0.56677662  0.90341157  1  0  0.790722  0  2.045577  0  0  0.616616  0  2.517716  0  0  0.659883  0  2.483002  0  0  0.580886  0.586108  0  2.542274  0
Cd  Cd2  1  0.74174991  0.93322165  0.40341109  1  0  0.790644  0  2.045642  0  0  0.616539  0  2.517784  0  0  0.659807  0  2.483072  0  0  0.580858  0.586032  0  2.542346  0
Cd  Cd3  1  0.75824407  0.43322766  0.09658521  1  0  0.790675  0  2.045592  0  0  0.616565  0  2.517708  0  0  0.659832  0  2.483  0  0  0.580868  0.586057  0  2.542268  0
H  H4  1  0.99528792  0.30007322  0.71888825  1  0  0.092355  0  0.993196  0  0  0.097061  0  1.067825  0  0  0.100014  0  1.063894  0  0  0.118528  0.094817  0  1.070774  0
H  H5  1  0.50471940  0.80009331  0.78110531  1  0  0.092437  0  0.993199  0  0  0.097139  0  1.067829  0  0  0.100092  0  1.0639  0  0  0.118571  0.094876  0  1.070794  0
H  H6  1  0.00470162  0.69991726  0.28110325  1  0  0.09243  0  0.993217  0  0  0.097147  0  1.06778  0  0  0.100103  0  1.063847  0  0  0.118553  0.094903  0  1.070731  0
H  H7  1  0.49529030  0.19992280  0.21890120  1  0  0.092428  0  0.993249  0  0  0.097152  0  1.067838  0  0  0.100107  0  1.063908  0  0  0.118559  0.0949  0  1.070795  0
H  H8  1  0.70272120  0.44050469  0.73863527  1  0  0.109867  0  0.946317  0  0  0.129554  0  1.00977  0  0  0.130394  0  1.009962  0  0  0.099552  0.128903  0  1.009528  0
H  H9  1  0.79729377  0.94051861  0.76136128  1  0  0.109828  0  0.946326  0  0  0.129475  0  1.009812  0  0  0.130313  0  1.010009  0  0  0.099496  0.128827  0  1.009572  0
H  H10  1  0.29727126  0.55949072  0.26136427  1  0  0.109781  0  0.946306  0  0  0.129429  0  1.009815  0  0  0.130267  0  1.010011  0  0  0.099491  0.128785  0  1.009574  0
H  H11  1  0.20272447  0.05948764  0.23863861  1  0  0.109866  0  0.9462  0  0  0.129569  0  1.009664  0  0  0.130408  0  1.00986  0  0  0.099555  0.128924  0  1.009426  0
H  H12  1  0.47834946  0.36508295  0.68807302  1  0  0.089321  0  0.983793  0  0  0.102883  0  1.061451  0  0  0.103607  0  1.06127  0  0  0.087708  0.102162  0  1.061873  0
H  H13  1  0.02166253  0.86509002  0.81193063  1  0  0.089299  0  0.983802  0  0  0.102845  0  1.061436  0  0  0.103566  0  1.061257  0  0  0.087675  0.102127  0  1.061858  0
H  H14  1  0.52164443  0.63491049  0.31192659  1  0  0.089317  0  0.983801  0  0  0.102863  0  1.061497  0  0  0.103586  0  1.061316  0  0  0.087715  0.102143  0  1.061922  0
H  H15  1  0.97835147  0.13490735  0.18807695  1  0  0.089295  0  0.983833  0  0  0.102867  0  1.061519  0  0  0.10359  0  1.061339  0  0  0.087726  0.102147  0  1.061943  0
H  H16  1  0.59459426  0.47643850  0.59460249  1  0  0.112758  0  0.94081  0  0  0.128551  0  1.011383  0  0  0.12972  0  1.01068  0  0  0.098269  0.127146  0  1.012774  0
H  H17  1  0.90541940  0.97644167  0.90539465  1  0  0.112781  0  0.940889  0  0  0.128578  0  1.011432  0  0  0.129741  0  1.01073  0  0  0.098278  0.127178  0  1.01282  0
H  H18  1  0.40539816  0.52356085  0.40539266  1  0  0.112773  0  0.940919  0  0  0.128578  0  1.011473  0  0  0.129755  0  1.010759  0  0  0.098279  0.127173  0  1.012866  0
H  H19  1  0.09460173  0.02356359  0.09460713  1  0  0.112719  0  0.940821  0  0  0.128534  0  1.011399  0  0  0.12971  0  1.010686  0  0  0.098279  0.12713  0  1.012791  0
C  C20  1  0.65281343  0.20370349  0.52966140  1  0  0.296387  0  3.838383  0  0  0.258129  0  4.127475  0  0  0.277577  0  4.140362  0  0  0.202503  0.244537  0  4.118663  0
C  C21  1  0.84718639  0.70370802  0.97033153  1  0  0.296518  0  3.838242  0  0  0.258211  0  4.127384  0  0  0.27766  0  4.140273  0  0  0.202505  0.244619  0  4.118566  0
C  C22  1  0.34717186  0.79629191  0.47033780  1  0  0.296593  0  3.838041  0  0  0.258213  0  4.127281  0  0  0.277664  0  4.140162  0  0  0.202568  0.24462  0  4.118473  0
C  C23  1  0.15282037  0.29629724  0.02966518  1  0  0.296546  0  3.838103  0  0  0.258235  0  4.127262  0  0  0.277682  0  4.140148  0  0  0.202541  0.244643  0  4.118449  0
C  C24  1  0.90328140  0.25145505  0.65095081  1  0  0.18185  0  3.651469  0  0  0.116415  0  3.916374  0  0  0.132132  0  3.926848  0  0  0.154658  0.106389  0  3.909142  0
C  C25  1  0.59671720  0.75146692  0.84904878  1  0  0.181523  0  3.651891  0  0  0.116057  0  3.916756  0  0  0.131772  0  3.927234  0  0  0.15447  0.106046  0  3.909532  0
C  C26  1  0.09670533  0.74854331  0.34904934  1  0  0.181513  0  3.651969  0  0  0.116079  0  3.916844  0  0  0.131792  0  3.927326  0  0  0.154553  0.106054  0  3.909612  0
C  C27  1  0.40328818  0.24854328  0.15095576  1  0  0.181548  0  3.651871  0  0  0.116082  0  3.916723  0  0  0.131794  0  3.927203  0  0  0.154545  0.10606  0  3.909498  0
C  C28  1  0.61710571  0.39999816  0.66245297  1  0  -0.161502  0  3.63977  0  0  -0.264876  0  3.885497  0  0  -0.261087  0  3.893652  0  0  -0.139095  -0.267144  0  3.880068  0
C  C29  1  0.88290631  0.90000871  0.83755072  1  0  -0.1614  0  3.639834  0  0  -0.264661  0  3.885409  0  0  -0.260865  0  3.893574  0  0  -0.138932  -0.266943  0  3.879985  0
C  C30  1  0.38289108  0.59999429  0.33755293  1  0  -0.161333  0  3.639845  0  0  -0.264709  0  3.885605  0  0  -0.260921  0  3.893755  0  0  -0.139032  -0.266992  0  3.880189  0
C  C31  1  0.11711198  0.09999557  0.16245444  1  0  -0.161395  0  3.639813  0  0  -0.264861  0  3.885601  0  0  -0.261069  0  3.893737  0  0  -0.139148  -0.267141  0  3.880185  0
S  S32  1  0.43048992  0.21065284  0.45483745  1  0  -0.439262  0  2.094081  0  0  -0.402889  0  2.453359  0  0  -0.420223  0  2.443922  0  0  -0.208511  -0.390175  0  2.460057  0
S  S33  1  0.06951630  0.71065022  0.04515970  1  0  -0.43929  0  2.094031  0  0  -0.402928  0  2.453334  0  0  -0.420264  0  2.443897  0  0  -0.208532  -0.390217  0  2.460032  0
S  S34  1  0.56949969  0.78934946  0.54516546  1  0  -0.439303  0  2.094008  0  0  -0.402879  0  2.453322  0  0  -0.420213  0  2.443883  0  0  -0.208516  -0.390161  0  2.460018  0
S  S35  1  0.93049622  0.28934912  0.95484079  1  0  -0.439303  0  2.094053  0  0  -0.40293  0  2.453376  0  0  -0.420264  0  2.443935  0  0  -0.208546  -0.390215  0  2.460073  0
I  I36  1  0.39497981  0.08713679  0.82623408  1  0  -0.445289  0  1.029343  0  0  -0.386272  0  1.344744  0  0  -0.405502  0  1.326276  0  0  -0.234141  -0.372282  0  1.357975  0
I  I37  1  0.10501973  0.58712439  0.67376108  1  0  -0.445299  0  1.029326  0  0  -0.386284  0  1.344718  0  0  -0.405512  0  1.326249  0  0  -0.234158  -0.372296  0  1.357951  0
I  I38  1  0.60500690  0.91286059  0.17376431  1  0  -0.445277  0  1.029351  0  0  -0.386256  0  1.344752  0  0  -0.405487  0  1.326284  0  0  -0.234152  -0.372263  0  1.357986  0
I  I39  1  0.89497703  0.41287595  0.32623954  1  0  -0.445303  0  1.029352  0  0  -0.386281  0  1.344737  0  0  -0.405513  0  1.326268  0  0  -0.234137  -0.372288  0  1.357972  0
N  N40  1  0.94900021  0.14736402  0.58946901  1  0  -0.239641  0  3.183702  0  0  -0.174701  0  3.466542  0  0  -0.190073  0  3.483095  0  0  -0.25905  -0.163774  0  3.454817  0
N  N41  1  0.55100227  0.64737730  0.91052089  1  0  -0.23933  0  3.183837  0  0  -0.174336  0  3.46658  0  0  -0.189708  0  3.483138  0  0  -0.258913  -0.163411  0  3.454847  0
N  N42  1  0.05099075  0.85262252  0.41052256  1  0  -0.239441  0  3.183935  0  0  -0.17448  0  3.466749  0  0  -0.189853  0  3.483305  0  0  -0.259028  -0.163553  0  3.455023  0
N  N43  1  0.44900310  0.35263191  0.08948102  1  0  -0.239395  0  3.183781  0  0  -0.174406  0  3.466566  0  0  -0.189782  0  3.483125  0  0  -0.258957  -0.163479  0  3.454836  0
N  N44  1  0.79277927  0.11726507  0.51297808  1  0  -0.305773  0  3.187668  0  0  -0.240691  0  3.474617  0  0  -0.258916  0  3.49103  0  0  -0.268305  -0.228815  0  3.464023  0
N  N45  1  0.70722025  0.61727216  0.98701362  1  0  -0.305826  0  3.187456  0  0  -0.240722  0  3.474339  0  0  -0.25895  0  3.490761  0  0  -0.268318  -0.228844  0  3.463743  0
N  N46  1  0.20720885  0.88272836  0.48701686  1  0  -0.305892  0  3.187426  0  0  -0.240805  0  3.474414  0  0  -0.25904  0  3.490845  0  0  -0.26833  -0.228925  0  3.463822  0
N  N47  1  0.29278797  0.38273311  0.01298667  1  0  -0.305908  0  3.187429  0  0  -0.240828  0  3.474364  0  0  -0.259058  0  3.490798  0  0  -0.268341  -0.228949  0  3.463768  0
N  N48  1  0.72139582  0.28942317  0.61711572  1  0  -0.081776  0  3.531927  0  0  0.020206  0  3.74817  0  0  0.002467  0  3.771161  0  0  -0.232979  0.032114  0  3.732634  0
N  N49  1  0.77861291  0.78943710  0.88288061  1  0  -0.081944  0  3.531786  0  0  0.020039  0  3.74807  0  0  0.002302  0  3.771048  0  0  -0.233047  0.031946  0  3.732535  0
N  N50  1  0.27859518  0.71057027  0.38288112  1  0  -0.081833  0  3.531742  0  0  0.020262  0  3.747939  0  0  0.002518  0  3.770937  0  0  -0.232972  0.032173  0  3.732408  0
N  N51  1  0.22140107  0.21057408  0.11712347  1  0  -0.081786  0  3.531742  0  0  0.020278  0  3.747963  0  0  0.002535  0  3.770964  0  0  -0.232916  0.032187  0  3.732428  0
