# generated using pymatgen
data_TlH10C8NO2
_symmetry_space_group_name_H-M   'P 1'
_cell_length_a   6.72365819
_cell_length_b   10.40386423
_cell_length_c   13.46485027
_cell_angle_alpha   85.34923842
_cell_angle_beta   81.70335124
_cell_angle_gamma   83.62974911
_symmetry_Int_Tables_number   1
_chemical_formula_structural   TlH10C8NO2
_chemical_formula_sum   'Tl4 H40 C32 N4 O8'
_cell_volume   924.25124772
_cell_formula_units_Z   4
loop_
 _symmetry_equiv_pos_site_id
 _symmetry_equiv_pos_as_xyz
  1  'x, y, z'
loop_
 _atom_site_type_symbol
 _atom_site_label
 _atom_site_symmetry_multiplicity
 _atom_site_fract_x
 _atom_site_fract_y
 _atom_site_fract_z
 _atom_site_occupancy
 _atom_site_hle17_bader_spin_density
 _atom_site_hle17_ddec_charge
 _atom_site_hle17_ddec_spin_density
 _atom_site_hle17_ddec_sum_bond_order
 _atom_site_hle17_magmom
 _atom_site_hse06_10hf_bader_spin_density
 _atom_site_hse06_10hf_ddec_charge
 _atom_site_hse06_10hf_ddec_spin_density
 _atom_site_hse06_10hf_ddec_sum_bond_order
 _atom_site_hse06_10hf_magmom
 _atom_site_hse06_bader_spin_density
 _atom_site_hse06_ddec_charge
 _atom_site_hse06_ddec_spin_density
 _atom_site_hse06_ddec_sum_bond_order
 _atom_site_hse06_magmom
 _atom_site_pbe_bader_spin_density
 _atom_site_pbe_cm5_charge
 _atom_site_pbe_ddec_charge
 _atom_site_pbe_ddec_spin_density
 _atom_site_pbe_ddec_sum_bond_order
 _atom_site_pbe_magmom
Tl  Tl0  1  0.14244103  0.49653851  0.71452787  1  0  1.083161  0  2.183221  0  0  0.966801  0  2.663306  0  0  1.011005  0  2.631918  0  0  0.502991  0.936172  0  2.684634  0
Tl  Tl1  1  0.85755809  0.50346046  0.28547346  1  0  1.083115  0  2.183272  0  0  0.966748  0  2.663345  0  0  1.010944  0  2.631964  0  0  0.502984  0.936118  0  2.684672  0
Tl  Tl2  1  0.56811023  0.71180357  0.75778265  1  0  1.094957  0  2.172449  0  0  0.978156  0  2.654248  0  0  1.023068  0  2.62199  0  0  0.505294  0.947083  0  2.675953  0
Tl  Tl3  1  0.43188812  0.28820026  0.24221622  1  0  1.095002  0  2.172475  0  0  0.978212  0  2.654272  0  0  1.023118  0  2.622019  0  0  0.505288  0.947135  0  2.675997  0
H  H4  1  0.33870413  0.18939361  0.67108321  1  0  0.078103  0  0.98023  0  0  0.083915  0  1.050368  0  0  0.087564  0  1.046674  0  0  0.111819  0.081281  0  1.052985  0
H  H5  1  0.66128897  0.81060538  0.32891484  1  0  0.078097  0  0.980204  0  0  0.083923  0  1.050333  0  0  0.087565  0  1.046635  0  0  0.111825  0.081285  0  1.052955  0
H  H6  1  0.25849313  0.97469325  0.61778695  1  0  0.101328  0  0.965672  0  0  0.11552  0  1.020911  0  0  0.117971  0  1.021101  0  0  0.107433  0.113671  0  1.021102  0
H  H7  1  0.74150853  0.02530866  0.38220882  1  0  0.101344  0  0.965643  0  0  0.115541  0  1.020886  0  0  0.117992  0  1.021076  0  0  0.107437  0.113691  0  1.021078  0
H  H8  1  0.90129625  0.95243220  0.59368890  1  0  0.093836  0  0.951151  0  0  0.107118  0  1.00831  0  0  0.109415  0  1.007635  0  0  0.108305  0.105537  0  1.008701  0
H  H9  1  0.09870633  0.04756390  0.40630566  1  0  0.093862  0  0.951135  0  0  0.107154  0  1.008272  0  0  0.10945  0  1.007594  0  0  0.108291  0.105573  0  1.008666  0
H  H10  1  0.63908907  0.14268686  0.62622779  1  0  0.103412  0  0.964885  0  0  0.114127  0  1.026182  0  0  0.117554  0  1.024286  0  0  0.107122  0.11162  0  1.027788  0
H  H11  1  0.36090585  0.85731019  0.37377023  1  0  0.103403  0  0.964877  0  0  0.114133  0  1.026171  0  0  0.117561  0  1.024272  0  0  0.107135  0.111626  0  1.027775  0
H  H12  1  0.14099759  0.52040439  0.91489263  1  0  0.146653  0  1.004626  0  0  0.167567  0  1.057966  0  0  0.1696  0  1.060629  0  0  0.085619  0.166044  0  1.056312  0
H  H13  1  0.85900407  0.47959749  0.08510834  1  0  0.146633  0  1.004576  0  0  0.167535  0  1.057944  0  0  0.169566  0  1.060611  0  0  0.085614  0.166021  0  1.05628  0
H  H14  1  0.18888584  0.35270069  0.88691432  1  0  0.137752  0  1.003374  0  0  0.154853  0  1.063985  0  0  0.157384  0  1.065105  0  0  0.079954  0.152977  0  1.063433  0
H  H15  1  0.81111266  0.64730215  0.11308682  1  0  0.13768  0  1.003419  0  0  0.15478  0  1.064042  0  0  0.157312  0  1.065161  0  0  0.07994  0.152904  0  1.063489  0
H  H16  1  0.93626228  0.43312731  0.89438972  1  0  0.145597  0  0.997386  0  0  0.164116  0  1.055301  0  0  0.166606  0  1.056924  0  0  0.084758  0.162315  0  1.054271  0
H  H17  1  0.06373638  0.56687456  0.10561295  1  0  0.145574  0  0.99739  0  0  0.16409  0  1.055313  0  0  0.16658  0  1.056937  0  0  0.08476  0.162289  0  1.054283  0
H  H18  1  0.10213706  0.64433229  0.54390340  1  0  0.143864  0  0.992007  0  0  0.16204  0  1.049543  0  0  0.164277  0  1.051648  0  0  0.083763  0.160415  0  1.04826  0
H  H19  1  0.89785859  0.35566959  0.45609726  1  0  0.143925  0  0.991952  0  0  0.16205  0  1.049547  0  0  0.164283  0  1.051656  0  0  0.083758  0.160426  0  1.048267  0
H  H20  1  0.19207953  0.48136683  0.51353374  1  0  0.153929  0  0.989924  0  0  0.17216  0  1.046657  0  0  0.17471  0  1.048552  0  0  0.088906  0.170302  0  1.045485  0
H  H21  1  0.80791747  0.51863603  0.48646602  1  0  0.153934  0  0.989961  0  0  0.172163  0  1.046681  0  0  0.174714  0  1.048575  0  0  0.088911  0.170305  0  1.045508  0
H  H22  1  0.36493318  0.58660179  0.54331945  1  0  0.147343  0  1.0011  0  0  0.168264  0  1.054593  0  0  0.170067  0  1.057481  0  0  0.087591  0.166932  0  1.052733  0
H  H23  1  0.63506143  0.41339717  0.45668220  1  0  0.14742  0  1.001192  0  0  0.16835  0  1.054639  0  0  0.170154  0  1.057525  0  0  0.087653  0.167019  0  1.05278  0
H  H24  1  0.36054737  0.00882596  0.84262269  1  0  0.074387  0  0.970067  0  0  0.08023  0  1.040521  0  0  0.083462  0  1.037596  0  0  0.110945  0.07779  0  1.042809  0
H  H25  1  0.63945668  0.99117982  0.15737565  1  0  0.074395  0  0.970083  0  0  0.080224  0  1.040554  0  0  0.083454  0  1.037629  0  0  0.11095  0.077784  0  1.042842  0
H  H26  1  0.44130781  0.20569739  0.92182778  1  0  0.099946  0  0.952959  0  0  0.113709  0  1.007677  0  0  0.116664  0  1.006956  0  0  0.10877  0.111525  0  1.008517  0
H  H27  1  0.55870256  0.79430645  0.07816874  1  0  0.099857  0  0.953051  0  0  0.113653  0  1.007741  0  0  0.116599  0  1.007043  0  0  0.108741  0.111469  0  1.008577  0
H  H28  1  0.79899436  0.21310798  0.95601683  1  0  0.095225  0  0.94375  0  0  0.110235  0  0.996827  0  0  0.112978  0  0.995192  0  0  0.110106  0.108218  0  0.998067  0
H  H29  1  0.20101362  0.78689200  0.04397860  1  0  0.095211  0  0.94383  0  0  0.110219  0  0.996918  0  0  0.112964  0  0.99528  0  0  0.110122  0.108202  0  0.998157  0
H  H30  1  0.05845853  0.03062160  0.90210425  1  0  0.100923  0  0.973523  0  0  0.109701  0  1.03736  0  0  0.112994  0  1.035935  0  0  0.104671  0.107339  0  1.038481  0
H  H31  1  0.94154405  0.96937446  0.09789848  1  0  0.100905  0  0.973503  0  0  0.109712  0  1.037322  0  0  0.113008  0  1.035892  0  0  0.104669  0.107351  0  1.038444  0
H  H32  1  0.43054933  0.77727350  0.57712255  1  0  0.143834  0  1.008765  0  0  0.16376  0  1.065337  0  0  0.165967  0  1.067329  0  0  0.084996  0.162104  0  1.064145  0
H  H33  1  0.56944886  0.22273131  0.42287479  1  0  0.143888  0  1.008739  0  0  0.163792  0  1.065337  0  0  0.165997  0  1.067331  0  0  0.084997  0.162138  0  1.064143  0
H  H34  1  0.69987120  0.74154335  0.55924446  1  0  0.15378  0  0.988319  0  0  0.173636  0  1.042382  0  0  0.176365  0  1.0438  0  0  0.088291  0.171684  0  1.041469  0
H  H35  1  0.30012699  0.25846145  0.44075436  1  0  0.153781  0  0.988369  0  0  0.173645  0  1.042416  0  0  0.176375  0  1.043833  0  0  0.088291  0.171693  0  1.041504  0
H  H36  1  0.58886384  0.89516740  0.60330879  1  0  0.137356  0  1.006992  0  0  0.154589  0  1.069337  0  0  0.156731  0  1.071073  0  0  0.080374  0.152931  0  1.06852  0
H  H37  1  0.41113616  0.10483546  0.39669076  1  0  0.137414  0  1.006963  0  0  0.154648  0  1.069302  0  0  0.15679  0  1.071039  0  0  0.080402  0.15299  0  1.068485  0
H  H38  1  0.40323685  0.65429134  0.94852002  1  0  0.139759  0  1.011308  0  0  0.156427  0  1.072551  0  0  0.158844  0  1.073962  0  0  0.083071  0.154622  0  1.071775  0
H  H39  1  0.59676512  0.34570859  0.05148253  1  0  0.139699  0  1.011372  0  0  0.156406  0  1.07255  0  0  0.15882  0  1.073966  0  0  0.083059  0.154602  0  1.071772  0
H  H40  1  0.67517272  0.63041876  0.93918684  1  0  0.145045  0  0.99146  0  0  0.163163  0  1.04949  0  0  0.165496  0  1.051524  0  0  0.084903  0.1615  0  1.048134  0
H  H41  1  0.32483029  0.36958409  0.06081398  1  0  0.145094  0  0.991436  0  0  0.163205  0  1.049475  0  0  0.165542  0  1.051505  0  0  0.084927  0.161544  0  1.048119  0
H  H42  1  0.53929520  0.51078620  0.89691608  1  0  0.149044  0  0.992453  0  0  0.170223  0  1.043976  0  0  0.172384  0  1.046341  0  0  0.087933  0.168573  0  1.042624  0
H  H43  1  0.46071082  0.48921665  0.10308452  1  0  0.149024  0  0.992532  0  0  0.170205  0  1.044057  0  0  0.172367  0  1.046422  0  0  0.087901  0.168555  0  1.042702  0
C  C44  1  0.18644760  0.17206275  0.65971207  1  0  0.113002  0  3.724808  0  0  0.086329  0  3.977597  0  0  0.091477  0  3.995331  0  0  0.046481  0.083035  0  3.965466  0
C  C45  1  0.81354566  0.82793524  0.34029047  1  0  0.112946  0  3.724871  0  0  0.086276  0  3.977671  0  0  0.091432  0  3.995398  0  0  0.046464  0.082983  0  3.965537  0
C  C46  1  0.14120423  0.05494264  0.62960037  1  0  -0.113536  0  3.73238  0  0  -0.127377  0  3.982605  0  0  -0.132931  0  4.003565  0  0  -0.081832  -0.123836  0  3.968632  0
C  C47  1  0.85879069  0.94505440  0.37039989  1  0  -0.113397  0  3.73245  0  0  -0.12724  0  3.982653  0  0  -0.132799  0  4.003618  0  0  -0.081738  -0.123701  0  3.968682  0
C  C48  1  0.94218518  0.04289683  0.61652440  1  0  -0.015318  0  3.740716  0  0  -0.033637  0  3.993345  0  0  -0.031433  0  4.012116  0  0  -0.070023  -0.034861  0  3.980391  0
C  C49  1  0.05780958  0.95710120  0.38347283  1  0  -0.015566  0  3.740867  0  0  -0.033893  0  3.993529  0  0  -0.031689  0  4.012299  0  0  -0.070116  -0.035119  0  3.980578  0
C  C50  1  0.79639519  0.14721541  0.63479418  1  0  -0.120929  0  3.720567  0  0  -0.142971  0  3.969276  0  0  -0.147839  0  3.989979  0  0  -0.080893  -0.139911  0  3.955605  0
C  C51  1  0.20359806  0.85278259  0.36520762  1  0  -0.120775  0  3.720645  0  0  -0.142851  0  3.96936  0  0  -0.147711  0  3.990058  0  0  -0.080871  -0.139786  0  3.955685  0
C  C52  1  0.85319725  0.26128266  0.66567587  1  0  0.097742  0  3.740709  0  0  0.103655  0  3.980461  0  0  0.10496  0  4.000052  0  0  0.116515  0.102601  0  3.967256  0
C  C53  1  0.14679766  0.73871436  0.33432736  1  0  0.097467  0  3.74087  0  0  0.103435  0  3.98064  0  0  0.104725  0  4.000233  0  0  0.116456  0.102376  0  3.967432  0
C  C54  1  0.69751354  0.37706004  0.68858501  1  0  0.619205  0  3.955957  0  0  0.5695  0  4.253156  0  0  0.603316  0  4.245481  0  0  0.210727  0.54675  0  4.257131  0
C  C55  1  0.30247837  0.62293700  0.31141472  1  0  0.619183  0  3.955883  0  0  0.569402  0  4.253232  0  0  0.603228  0  4.245544  0  0  0.210649  0.546655  0  4.2572  0
C  C56  1  0.09709852  0.44443142  0.87347884  1  0  -0.637857  0  3.527753  0  0  -0.684845  0  3.772464  0  0  -0.700506  0  3.781042  0  0  -0.337267  -0.674299  0  3.767011  0
C  C57  1  0.90289998  0.55557142  0.12652305  1  0  -0.637728  0  3.527695  0  0  -0.684692  0  3.772409  0  0  -0.700353  0  3.780988  0  0  -0.337248  -0.674157  0  3.766944  0
C  C58  1  0.20985512  0.56072125  0.55899896  1  0  -0.631819  0  3.518362  0  0  -0.681706  0  3.76662  0  0  -0.697344  0  3.775271  0  0  -0.334826  -0.671223  0  3.760988  0
C  C59  1  0.79013903  0.43928062  0.44100255  1  0  -0.63198  0  3.518522  0  0  -0.681825  0  3.76681  0  0  -0.697453  0  3.775449  0  0  -0.334891  -0.671343  0  3.761182  0
C  C60  1  0.51332085  0.02033433  0.85679286  1  0  0.11701  0  3.724125  0  0  0.089102  0  3.981566  0  0  0.093973  0  4.000057  0  0  0.048079  0.086044  0  3.968832  0
C  C61  1  0.48668382  0.97966756  0.14320641  1  0  0.116959  0  3.724062  0  0  0.089066  0  3.981524  0  0  0.093941  0  4.000017  0  0  0.048058  0.086009  0  3.968789  0
C  C62  1  0.55881123  0.12796656  0.90134905  1  0  -0.0974  0  3.71532  0  0  -0.113496  0  3.969032  0  0  -0.118452  0  3.98966  0  0  -0.075384  -0.110211  0  3.954999  0
C  C63  1  0.44119691  0.87203242  0.09864939  1  0  -0.097231  0  3.715318  0  0  -0.113363  0  3.969063  0  0  -0.118322  0  3.989688  0  0  -0.075325  -0.110079  0  3.955029  0
C  C64  1  0.75692241  0.13255803  0.91931938  1  0  -0.005643  0  3.707694  0  0  -0.024775  0  3.959992  0  0  -0.022498  0  3.977939  0  0  -0.064839  -0.026012  0  3.94747  0
C  C65  1  0.24308183  0.86743704  0.08068404  1  0  -0.005692  0  3.70787  0  0  -0.02483  0  3.960216  0  0  -0.022553  0  3.978165  0  0  -0.064881  -0.026068  0  3.947692  0
C  C66  1  0.90187654  0.03145339  0.89024023  1  0  -0.115477  0  3.723401  0  0  -0.135761  0  3.970964  0  0  -0.140644  0  3.992309  0  0  -0.079197  -0.132693  0  3.956812  0
C  C67  1  0.09812905  0.96854268  0.10976080  1  0  -0.115354  0  3.723303  0  0  -0.135667  0  3.970875  0  0  -0.140552  0  3.992222  0  0  -0.079178  -0.132602  0  3.956718  0
C  C68  1  0.84547229  0.92815224  0.84408808  1  0  0.088141  0  3.751047  0  0  0.095127  0  3.988435  0  0  0.095496  0  4.009241  0  0  0.109834  0.094591  0  3.974581  0
C  C69  1  0.15453164  0.07184478  0.15591598  1  0  0.087901  0  3.751344  0  0  0.094918  0  3.988724  0  0  0.095284  0  4.009536  0  0  0.109776  0.094389  0  3.974856  0
C  C70  1  0.00373710  0.82035737  0.80521728  1  0  0.607553  0  3.969309  0  0  0.558329  0  4.26673  0  0  0.592022  0  4.259417  0  0  0.205249  0.535584  0  4.270593  0
C  C71  1  0.99627134  0.17963966  0.19478423  1  0  0.607668  0  3.969388  0  0  0.558442  0  4.266798  0  0  0.592132  0  4.259494  0  0  0.205287  0.535698  0  4.270661  0
C  C72  1  0.57102499  0.79169547  0.60482948  1  0  -0.64817  0  3.525967  0  0  -0.697393  0  3.775684  0  0  -0.712682  0  3.782677  0  0  -0.336081  -0.686994  0  3.771259  0
C  C73  1  0.42897170  0.20830933  0.39516871  1  0  -0.648287  0  3.526038  0  0  -0.6975  0  3.775771  0  0  -0.712792  0  3.782765  0  0  -0.336088  -0.687101  0  3.771346  0
C  C74  1  0.54281418  0.61414024  0.90493331  1  0  -0.630367  0  3.525438  0  0  -0.680902  0  3.775134  0  0  -0.696804  0  3.784444  0  0  -0.333393  -0.669957  0  3.768893  0
C  C75  1  0.45718748  0.38586163  0.09506841  1  0  -0.63036  0  3.525501  0  0  -0.680926  0  3.775163  0  0  -0.696834  0  3.784474  0  0  -0.333368  -0.669984  0  3.768932  0
N  N76  1  0.04585326  0.27271865  0.67665613  1  0  -0.330212  0  3.216064  0  0  -0.268461  0  3.464731  0  0  -0.283655  0  3.484978  0  0  -0.299833  -0.257903  0  3.450674  0
N  N77  1  0.95414285  0.72728033  0.32334318  1  0  -0.32996  0  3.215986  0  0  -0.268253  0  3.464671  0  0  -0.283439  0  3.484913  0  0  -0.299763  -0.257692  0  3.450606  0
N  N78  1  0.65308553  0.92299097  0.82898450  1  0  -0.33947  0  3.222573  0  0  -0.278168  0  3.473643  0  0  -0.293727  0  3.495128  0  0  -0.301333  -0.267142  0  3.45861  0
N  N79  1  0.34691944  0.07700898  0.17101486  1  0  -0.339401  0  3.222767  0  0  -0.27812  0  3.473839  0  0  -0.29368  0  3.495326  0  0  -0.301329  -0.267096  0  3.458803  0
O  O80  1  0.51435844  0.35639112  0.69673322  1  0  -0.646622  0  1.976411  0  0  -0.593869  0  2.216286  0  0  -0.620336  0  2.208895  0  0  -0.314207  -0.57512  0  2.220406  0
O  O81  1  0.48563678  0.64360400  0.30326416  1  0  -0.646533  0  1.976312  0  0  -0.593752  0  2.216203  0  0  -0.62022  0  2.208804  0  0  -0.314122  -0.575002  0  2.220318  0
O  O82  1  0.76578261  0.48454040  0.69772488  1  0  -0.66554  0  2.045403  0  0  -0.595602  0  2.293475  0  0  -0.624964  0  2.285684  0  0  -0.303292  -0.574916  0  2.297814  0
O  O83  1  0.23420691  0.51545269  0.30228565  1  0  -0.665603  0  2.045489  0  0  -0.595582  0  2.293461  0  0  -0.624942  0  2.285657  0  0  -0.303314  -0.574898  0  2.2978  0
O  O84  1  0.18163965  0.82551805  0.82317582  1  0  -0.650089  0  1.975425  0  0  -0.599964  0  2.219694  0  0  -0.626051  0  2.212049  0  0  -0.315655  -0.581326  0  2.22388  0
O  O85  1  0.81836802  0.17448383  0.17682472  1  0  -0.650097  0  1.975406  0  0  -0.600007  0  2.219742  0  0  -0.626069  0  2.212049  0  0  -0.315697  -0.581369  0  2.223935  0
O  O86  1  0.94434642  0.73546341  0.75583960  1  0  -0.66342  0  2.035985  0  0  -0.593413  0  2.282354  0  0  -0.622476  0  2.274188  0  0  -0.306444  -0.572823  0  2.286908  0
O  O87  1  0.05566518  0.26453266  0.24416100  1  0  -0.663437  0  2.035992  0  0  -0.593435  0  2.282365  0  0  -0.6225  0  2.2742  0  0  -0.306421  -0.572846  0  2.286922  0
