# generated using pymatgen
data_FeH3C7O3
_symmetry_space_group_name_H-M   'P 1'
_cell_length_a   6.68105492
_cell_length_b   21.98583706
_cell_length_c   21.99028488
_cell_angle_alpha   120.00480742
_cell_angle_beta   89.99865820
_cell_angle_gamma   90.01820317
_symmetry_Int_Tables_number   1
_chemical_formula_structural   FeH3C7O3
_chemical_formula_sum   'Fe6 H18 C42 O18'
_cell_volume   2797.23186154
_cell_formula_units_Z   6
loop_
 _symmetry_equiv_pos_site_id
 _symmetry_equiv_pos_as_xyz
  1  'x, y, z'
loop_
 _atom_site_type_symbol
 _atom_site_label
 _atom_site_symmetry_multiplicity
 _atom_site_fract_x
 _atom_site_fract_y
 _atom_site_fract_z
 _atom_site_occupancy
 _atom_site_pbe_bader_charge
 _atom_site_pbe_bader_spin_density
 _atom_site_pbe_cm5_charge
 _atom_site_pbe_ddec_charge
 _atom_site_pbe_ddec_spin_density
 _atom_site_pbe_ddec_sum_bond_order
 _atom_site_pbe_magmom
Fe  Fe0  1  0.85093687  0.66409610  0.29091603  1  1.340037  3.591499  0.678119  0.903065  3.819231  2.551453  3.536
Fe  Fe1  1  0.18440123  0.62682263  0.33586054  1  1.339581  3.590826  0.677808  0.903014  3.822972  2.55137  3.536
Fe  Fe2  1  0.51769538  0.70904521  0.37317958  1  1.34302  3.590571  0.677662  0.902542  3.820117  2.551022  3.536
Fe  Fe3  1  0.14906607  0.33589910  0.62682691  1  1.338481  3.591566  0.678049  0.90305  3.819312  2.551429  3.536
Fe  Fe4  1  0.48230449  0.29094670  0.66413969  1  1.341343  3.590553  0.677625  0.902567  3.82004  2.550991  3.536
Fe  Fe5  1  0.81560134  0.37317490  0.70904261  1  1.339686  3.590911  0.677882  0.903121  3.823016  2.55122  3.536
H  H6  1  0.56882615  0.54078097  0.08772747  1  0.086812  0.000496  0.105147  0.107021  -1.3e-05  1.025899  0.0
H  H7  1  0.90318756  0.54699241  0.45918183  1  0.092125  0.000502  0.105189  0.107327  -1.5e-05  1.025584  0.0
H  H8  1  0.23591155  0.91234387  0.45318217  1  0.097758  0.000496  0.105076  0.107372  -1.5e-05  1.02564  0.0
H  H9  1  0.43119208  0.45921988  0.54694561  1  0.089109  0.000497  0.105109  0.106896  -1.4e-05  1.025944  0.0
H  H10  1  0.76408099  0.08764835  0.54085073  1  0.094741  0.000492  0.105126  0.107427  -1.5e-05  1.025591  0.0
H  H11  1  0.09682352  0.45301713  0.91219056  1  0.114164  0.000494  0.105147  0.107331  -1.4e-05  1.025703  0.0
H  H12  1  0.99163000  0.45009932  0.00504329  1  0.06809  0.000327  0.100446  0.095227  -3.8e-05  1.028906  0.0
H  H13  1  0.32614456  0.55480757  0.54978601  1  0.030584  0.000314  0.100181  0.094979  -3.8e-05  1.028887  0.0
H  H14  1  0.65881772  0.99492035  0.44508050  1  0.047342  0.000325  0.10043  0.094992  -3.7e-05  1.028554  0.0
H  H15  1  0.00837014  0.54991790  0.55495531  1  0.059541  0.000328  0.100509  0.095387  -3.8e-05  1.029104  0.0
H  H16  1  0.34115764  0.00507738  0.45014970  1  0.027503  0.00032  0.100421  0.09507  -3.8e-05  1.028732  0.0
H  H17  1  0.67386738  0.44519968  0.99497393  1  0.029893  0.000317  0.100105  0.094886  -3.8e-05  1.028683  0.0
H  H18  1  0.85715039  0.50621577  0.12592696  1  0.113096  0.000257  0.1048  0.121489  -0.000195  1.012198  0.0
H  H19  1  0.19151008  0.61959874  0.49377895  1  0.087917  0.000276  0.104833  0.1218  -0.000193  1.012709  0.0
H  H20  1  0.52442365  0.87397909  0.38023678  1  0.095765  0.000271  0.104808  0.121534  -0.000195  1.012597  0.0
H  H21  1  0.14284416  0.49379464  0.61971787  1  0.110499  0.00026  0.104851  0.121633  -0.000194  1.012451  0.0
H  H22  1  0.47555653  0.12601648  0.50624834  1  0.100515  0.000269  0.104809  0.121491  -0.000195  1.01257  0.0
H  H23  1  0.80848915  0.38040535  0.87417747  1  0.079227  0.00028  0.104817  0.121816  -0.000194  1.012647  0.0
C  C24  1  0.13611110  0.55216101  0.17617901  1  0.598931  0.001433  0.09506  0.351129  -0.000492  4.024785  0.0
C  C25  1  0.47025156  0.62402609  0.44785671  1  0.589132  0.001443  0.095303  0.352039  -0.000489  4.024569  0.0
C  C26  1  0.80329974  0.82377500  0.37592306  1  0.589476  0.00138  0.094806  0.351512  -0.000518  4.025311  0.0
C  C27  1  0.86389632  0.44784233  0.62401725  1  0.657338  0.001257  0.095088  0.35129  -0.000492  4.024623  0.0
C  C28  1  0.19669082  0.17621836  0.55215781  1  0.597837  0.001411  0.09481  0.351235  -0.000516  4.025652  0.0
C  C29  1  0.52975134  0.37597395  0.82382945  1  0.593831  0.001391  0.095366  0.352073  -0.00049  4.023911  0.0
C  C30  1  0.34171394  0.56097431  0.16380352  1  0.002364  0.021299  -0.037677  -0.183508  0.008736  3.979172  0.015
C  C31  1  0.67581769  0.60284896  0.43903040  1  0.00795  0.021292  -0.037473  -0.183843  0.008756  3.979668  0.015
C  C32  1  0.00885749  0.83618352  0.39717129  1  -0.042958  0.021352  -0.03751  -0.184975  0.008733  3.981236  0.015
C  C33  1  0.65829027  0.43902217  0.60283300  1  -0.029519  0.021351  -0.037671  -0.183568  0.008735  3.978792  0.015
C  C34  1  0.99113792  0.16380989  0.56100105  1  -0.016645  0.021318  -0.037461  -0.184741  0.00873  3.981183  0.015
C  C35  1  0.32417161  0.39715827  0.83618638  1  -0.043288  0.021374  -0.037551  -0.183882  0.008761  3.979587  0.015
C  C36  1  0.41269571  0.53090088  0.09429819  1  -0.070263  -0.001648  -0.081983  -0.121358  -0.002437  3.959984  -0.002
C  C37  1  0.74705123  0.56341872  0.46909904  1  -0.06444  -0.001681  -0.081971  -0.121108  -0.002456  3.960258  -0.002
C  C38  1  0.07986451  0.90571034  0.43663581  1  -0.031197  -0.001736  -0.081882  -0.120969  -0.002453  3.96121  -0.002
C  C39  1  0.58732015  0.46910387  0.56339869  1  -0.010214  -0.001719  -0.081878  -0.121129  -0.002445  3.959841  -0.002
C  C40  1  0.92013054  0.09428115  0.53093234  1  -0.051309  -0.001718  -0.082061  -0.12135  -0.002453  3.961299  -0.002
C  C41  1  0.25294026  0.43658843  0.90567624  1  -0.039665  -0.001727  -0.081962  -0.121208  -0.00245  3.959826  -0.002
C  C42  1  0.29233957  0.49040730  0.03607109  1  0.028133  0.014068  -0.019248  0.046323  0.006475  4.035651  0.009
C  C43  1  0.62688876  0.54566584  0.50959427  1  0.027637  0.01402  -0.019556  0.04486  0.006469  4.037432  0.009
C  C44  1  0.95956362  0.96392650  0.45432254  1  0.081329  0.014007  -0.019293  0.04573  0.00648  4.037242  0.009
C  C45  1  0.70766423  0.50959941  0.54567245  1  -0.033695  0.014111  -0.019252  0.046503  0.006469  4.035859  0.009
C  C46  1  0.04042482  0.03606809  0.49039579  1  0.051173  0.01405  -0.019183  0.046054  0.006476  4.037362  0.009
C  C47  1  0.37312291  0.45434747  0.96393656  1  0.02949  0.014043  -0.01963  0.044957  0.00648  4.036478  0.009
C  C48  1  0.08954814  0.48255900  0.04927115  1  -0.052618  -0.003309  -0.081442  -0.091121  -0.00406  3.98997  -0.002
C  C49  1  0.42406465  0.56665148  0.51741355  1  -0.043381  -0.003285  -0.081075  -0.090298  -0.004083  3.988029  -0.002
C  C50  1  0.75679764  0.95070364  0.43326770  1  -0.11152  -0.003245  -0.081341  -0.090295  -0.004082  3.988375  -0.002
C  C51  1  0.91045885  0.51745730  0.56671696  1  -0.024987  -0.003337  -0.081552  -0.091484  -0.004068  3.989685  -0.002
C  C52  1  0.24318142  0.04928782  0.48255909  1  -0.095757  -0.003232  -0.081469  -0.090656  -0.004083  3.989021  -0.002
C  C53  1  0.57594573  0.43334841  0.95074574  1  -0.044923  -0.003278  -0.081001  -0.090129  -0.004075  3.988517  -0.002
C  C54  1  0.01360929  0.51292018  0.11663945  1  -0.063801  0.017  -0.104914  -0.201949  0.007597  3.977418  0.011
C  C55  1  0.34793543  0.60367797  0.48707251  1  0.008772  0.016925  -0.105213  -0.202803  0.007586  3.977319  0.011
C  C56  1  0.68083134  0.88330840  0.39623028  1  0.015514  0.016944  -0.105111  -0.202515  0.0076  3.977424  0.011
C  C57  1  0.98641166  0.48708355  0.60372980  1  -0.113762  0.017117  -0.104921  -0.202045  0.007598  3.97732  0.011
C  C58  1  0.31915845  0.11668815  0.51292231  1  0.013361  0.016957  -0.105049  -0.202198  0.0076  3.977534  0.011
C  C59  1  0.65205772  0.39633137  0.88340334  1  0.013902  0.01693  -0.105185  -0.202928  0.007585  3.978037  0.011
C  C60  1  0.48691248  0.59941905  0.21989822  1  1.422248  -0.004251  0.22453  0.617187  -0.006395  4.088662  -0.003
C  C61  1  0.82070368  0.62050386  0.40055249  1  1.43453  -0.004343  0.224577  0.617599  -0.00643  4.089772  -0.003
C  C62  1  0.15391832  0.78008686  0.37954237  1  1.440559  -0.004444  0.224885  0.618544  -0.006438  4.088284  -0.003
C  C63  1  0.51308742  0.40057588  0.62048031  1  1.435308  -0.004273  0.22467  0.617318  -0.006393  4.088804  -0.003
C  C64  1  0.84607779  0.21990162  0.59947260  1  1.403467  -0.004271  0.224685  0.618608  -0.006442  4.088521  -0.003
C  C65  1  0.17930270  0.37949583  0.78005092  1  1.446742  -0.004425  0.224651  0.617704  -0.006424  4.089725  -0.003
O  O66  1  0.05300964  0.57825940  0.23978260  1  -1.159207  0.153788  -0.348812  -0.55218  0.072225  2.480533  0.125
O  O67  1  0.38694692  0.66153405  0.42177753  1  -1.161725  0.153913  -0.348703  -0.552811  0.072272  2.478798  0.125
O  O68  1  0.72007611  0.76017304  0.33839279  1  -1.161057  0.1538  -0.348654  -0.552135  0.072081  2.480498  0.125
O  O69  1  0.94699692  0.42173791  0.66152418  1  -1.162552  0.153636  -0.348877  -0.552377  0.072241  2.480144  0.125
O  O70  1  0.27992238  0.23982188  0.57823089  1  -1.161227  0.153933  -0.34858  -0.552076  0.072084  2.480631  0.125
O  O71  1  0.61304294  0.33846162  0.76024595  1  -1.162165  0.153773  -0.348677  -0.552715  0.072255  2.478929  0.125
O  O72  1  0.44395312  0.61450736  0.28410128  1  -1.178233  0.13219  -0.33483  -0.586315  0.062476  2.574697  0.103
O  O73  1  0.77741478  0.66956300  0.38542241  1  -1.184519  0.132326  -0.334833  -0.585977  0.062447  2.575121  0.103
O  O74  1  0.11071244  0.71586767  0.33046674  1  -1.196088  0.132547  -0.335123  -0.586881  0.062521  2.575036  0.103
O  O75  1  0.55605443  0.38548080  0.66958355  1  -1.178068  0.132196  -0.334942  -0.586465  0.062464  2.574798  0.103
O  O76  1  0.88929694  0.28412709  0.61462249  1  -1.179086  0.13247  -0.335017  -0.586922  0.062528  2.575163  0.103
O  O77  1  0.22259313  0.33044158  0.71587153  1  -1.18531  0.132316  -0.334789  -0.585982  0.062438  2.575375  0.103
O  O78  1  0.65729507  0.61737132  0.20818289  1  -1.151609  0.077219  -0.298791  -0.504469  0.035416  2.294831  0.053
O  O79  1  0.99107970  0.59087378  0.38259349  1  -1.150977  0.077524  -0.299216  -0.504911  0.035459  2.29547  0.053
O  O80  1  0.32432303  0.79180456  0.40917269  1  -1.146705  0.077282  -0.299  -0.504987  0.035416  2.295481  0.053
O  O81  1  0.34270641  0.38263226  0.59081900  1  -1.151077  0.077154  -0.298851  -0.50443  0.03541  2.29487  0.053
O  O82  1  0.67566827  0.20818454  0.61738131  1  -1.147247  0.077381  -0.298894  -0.505008  0.035409  2.295698  0.053
O  O83  1  0.00891944  0.40912404  0.79172102  1  -1.155063  0.07755  -0.299274  -0.504999  0.035465  2.295313  0.053
