# generated using pymatgen
data_CuH6C3IN
_symmetry_space_group_name_H-M   'P 1'
_cell_length_a   15.82092501
_cell_length_b   17.83712645
_cell_length_c   17.83711085
_cell_angle_alpha   90.00001645
_cell_angle_beta   89.99999970
_cell_angle_gamma   89.99998802
_symmetry_Int_Tables_number   1
_chemical_formula_structural   CuH6C3IN
_chemical_formula_sum   'Cu32 H192 C96 I32 N32'
_cell_volume   5033.62982844
_cell_formula_units_Z   32
loop_
 _symmetry_equiv_pos_site_id
 _symmetry_equiv_pos_as_xyz
  1  'x, y, z'
loop_
 _atom_site_type_symbol
 _atom_site_label
 _atom_site_symmetry_multiplicity
 _atom_site_fract_x
 _atom_site_fract_y
 _atom_site_fract_z
 _atom_site_occupancy
 _atom_site_pbe_bader_charge
 _atom_site_pbe_bader_spin_density
 _atom_site_pbe_cm5_charge
 _atom_site_pbe_ddec_charge
 _atom_site_pbe_ddec_spin_density
 _atom_site_pbe_ddec_sum_bond_order
 _atom_site_pbe_magmom
Cu  Cu0  1  0.00000062  0.10371182  0.32282360  1  0.360641  0  0.238232  0.128872  0  2.690463  0
Cu  Cu1  1  0.49999856  0.10371238  0.67717751  1  0.360569  0  0.238216  0.128836  0  2.690453  0
Cu  Cu2  1  0.00000179  0.89628684  0.67717818  1  0.360521  0  0.238202  0.128802  0  2.690514  0
Cu  Cu3  1  0.49999973  0.89628674  0.32282371  1  0.360536  0  0.23822  0.128807  0  2.690503  0
Cu  Cu4  1  0.50000107  0.32282159  0.10371415  1  0.360525  0  0.238224  0.128841  0  2.690476  0
Cu  Cu5  1  0.00000249  0.32282175  0.89628814  1  0.360695  0  0.238218  0.128826  0  2.690499  0
Cu  Cu6  1  0.99999644  0.67717682  0.10371252  1  0.360513  0  0.238213  0.12882  0  2.690511  0
Cu  Cu7  1  0.50000102  0.67717754  0.89628819  1  0.360518  0  0.238214  0.128844  0  2.690443  0
Cu  Cu8  1  0.99999997  0.22961382  0.26117293  1  0.360079  0  0.228355  0.117932  0  2.640718  0
Cu  Cu9  1  0.50000108  0.22961328  0.73882708  1  0.360083  0  0.228351  0.11794  0  2.640732  0
Cu  Cu10  1  0.00000180  0.77038541  0.73882772  1  0.36008  0  0.228344  0.117889  0  2.640721  0
Cu  Cu11  1  0.49999912  0.77038641  0.26117245  1  0.360076  0  0.228371  0.117947  0  2.640683  0
Cu  Cu12  1  0.49999728  0.26117266  0.22961458  1  0.360077  0  0.22835  0.117905  0  2.640738  0
Cu  Cu13  1  0.00000186  0.26117334  0.77038769  1  0.360071  0  0.228366  0.117951  0  2.640692  0
Cu  Cu14  1  0.99999896  0.73882578  0.22961408  1  0.360089  0  0.228336  0.117913  0  2.64075  0
Cu  Cu15  1  0.49999975  0.73882703  0.77038664  1  0.360092  0  0.228346  0.11793  0  2.640702  0
Cu  Cu16  1  0.08181946  0.21428232  0.38308954  1  0.358733  0  0.231529  0.127373  0  2.663924  0
Cu  Cu17  1  0.41817969  0.21428232  0.61691104  1  0.382632  0  0.231481  0.127241  0  2.664121  0
Cu  Cu18  1  0.08181876  0.78571745  0.61690944  1  0.382672  0  0.231511  0.127315  0  2.663967  0
Cu  Cu19  1  0.41818342  0.78571682  0.38309298  1  0.358653  0  0.231542  0.127394  0  2.663946  0
Cu  Cu20  1  0.41817967  0.38308972  0.21428476  1  0.382638  0  0.231513  0.127322  0  2.664011  0
Cu  Cu21  1  0.08181502  0.38309488  0.78571699  1  0.358677  0  0.231546  0.127405  0  2.663928  0
Cu  Cu22  1  0.08181752  0.61690769  0.21427918  1  0.358613  0  0.231533  0.127345  0  2.663957  0
Cu  Cu23  1  0.41818281  0.61690774  0.78571926  1  0.358677  0  0.231514  0.12733  0  2.664018  0
Cu  Cu24  1  0.91818200  0.78571793  0.61691000  1  0.358739  0  0.231514  0.127338  0  2.663992  0
Cu  Cu25  1  0.58182050  0.78571681  0.38308962  1  0.382661  0  0.23151  0.127349  0  2.66399  0
Cu  Cu26  1  0.91818017  0.21428224  0.38309010  1  0.38262  0  0.231517  0.127354  0  2.663977  0
Cu  Cu27  1  0.58181551  0.21428175  0.61690599  1  0.358682  0  0.231532  0.127391  0  2.66391  0
Cu  Cu28  1  0.58181736  0.61690828  0.78571702  1  0.38261  0  0.231533  0.12733  0  2.66401  0
Cu  Cu29  1  0.91818138  0.61690649  0.21428423  1  0.382718  0  0.231536  0.127358  0  2.66393  0
Cu  Cu30  1  0.91817951  0.38308920  0.78572035  1  0.382521  0  0.231514  0.127338  0  2.663978  0
Cu  Cu31  1  0.58181739  0.38309251  0.21428139  1  0.358714  0  0.231541  0.127418  0  2.663892  0
H  H32  1  0.05621793  0.19162461  0.98864276  1  0.070273  0  0.09454  0.08375  0  0.999813  0
H  H33  1  0.44378124  0.19162444  0.01135781  1  0.070249  0  0.094561  0.083794  0  0.99971  0
H  H34  1  0.05621786  0.80837572  0.01135734  1  0.070273  0  0.094547  0.083763  0  0.999774  0
H  H35  1  0.44378179  0.80837582  0.98864285  1  0.070267  0  0.09454  0.083748  0  0.99979  0
H  H36  1  0.44378114  0.98864241  0.19162422  1  0.070434  0  0.094541  0.083761  0  0.99975  0
H  H37  1  0.05621846  0.98864254  0.80837601  1  0.070266  0  0.094531  0.083742  0  0.999808  0
H  H38  1  0.05621795  0.01135723  0.19162464  1  0.070455  0  0.094538  0.083762  0  0.999817  0
H  H39  1  0.44378189  0.01135729  0.80837587  1  0.070444  0  0.094539  0.083748  0  0.999792  0
H  H40  1  0.94378164  0.80837564  0.01135733  1  0.070264  0  0.094541  0.08375  0  0.999786  0
H  H41  1  0.55621833  0.80837581  0.98864285  1  0.070271  0  0.094546  0.083758  0  0.999779  0
H  H42  1  0.94378171  0.19162453  0.98864276  1  0.07027  0  0.094537  0.083746  0  0.999816  0
H  H43  1  0.55621777  0.19162443  0.01135781  1  0.07027  0  0.094538  0.083763  0  0.999804  0
H  H44  1  0.55621842  0.01135728  0.80837587  1  0.07027  0  0.094543  0.083757  0  0.999782  0
H  H45  1  0.94378173  0.01135771  0.19162464  1  0.070443  0  0.09452  0.083739  0  0.999836  0
H  H46  1  0.94378161  0.98864302  0.80837545  1  0.070446  0  0.094529  0.083747  0  0.999828  0
H  H47  1  0.55621831  0.98864240  0.19162422  1  0.070271  0  0.094527  0.08375  0  0.999818  0
H  H48  1  0.94381964  0.15869702  0.11702458  1  0.072199  0  0.0923  0.08375  0  1.009366  0
H  H49  1  0.55618048  0.15869716  0.88297542  1  0.072204  0  0.092304  0.083764  0  1.009345  0
H  H50  1  0.94381955  0.84130315  0.88297495  1  0.0722  0  0.092296  0.083746  0  1.009358  0
H  H51  1  0.55618040  0.84130308  0.11702468  1  0.0722  0  0.092303  0.083758  0  1.009348  0
H  H52  1  0.55618049  0.11702443  0.15869668  1  0.072203  0  0.092308  0.08377  0  1.009328  0
H  H53  1  0.94381964  0.11702505  0.84130274  1  0.072204  0  0.092301  0.083755  0  1.009349  0
H  H54  1  0.94381955  0.88297512  0.15869679  1  0.072204  0  0.092277  0.083712  0  1.009368  0
H  H55  1  0.55618039  0.88297525  0.84130285  1  0.072205  0  0.09231  0.083761  0  1.009337  0
H  H56  1  0.05618056  0.84130323  0.88297552  1  0.072196  0  0.092302  0.083757  0  1.009329  0
H  H57  1  0.44381908  0.84130309  0.11702468  1  0.072196  0  0.092291  0.083745  0  1.009346  0
H  H58  1  0.05618064  0.15869654  0.11702458  1  0.07219  0  0.092294  0.08375  0  1.009351  0
H  H59  1  0.44381916  0.15869717  0.88297542  1  0.072198  0  0.092297  0.083761  0  1.009332  0
H  H60  1  0.44381971  0.88297526  0.84130341  1  0.072198  0  0.092304  0.083751  0  1.009344  0
H  H61  1  0.05618055  0.88297520  0.15869679  1  0.0722  0  0.092269  0.083707  0  1.009363  0
H  H62  1  0.05618064  0.11702513  0.84130330  1  0.072198  0  0.092295  0.083755  0  1.009331  0
H  H63  1  0.44381917  0.11702444  0.15869668  1  0.072197  0  0.092303  0.083768  0  1.009314  0
H  H64  1  0.11405019  0.22425985  0.55168299  1  0.041148  0  0.089187  0.074648  0  1.04083  0
H  H65  1  0.38595022  0.22426037  0.44831759  1  0.041162  0  0.089164  0.074606  0  1.040787  0
H  H66  1  0.11405013  0.77573992  0.44831711  1  0.04115  0  0.089199  0.074666  0  1.040816  0
H  H67  1  0.38594953  0.77573990  0.55168250  1  0.041159  0  0.089193  0.074658  0  1.040837  0
H  H68  1  0.38594955  0.55168303  0.22426061  1  0.041153  0  0.089189  0.074618  0  1.040892  0
H  H69  1  0.11405079  0.55168313  0.77573950  1  0.041152  0  0.08919  0.074644  0  1.040886  0
H  H70  1  0.11405017  0.44831775  0.22426004  1  0.041154  0  0.089188  0.074641  0  1.040839  0
H  H71  1  0.38594956  0.44831724  0.77573948  1  0.041158  0  0.089161  0.074597  0  1.040837  0
H  H72  1  0.88595000  0.77574040  0.44831711  1  0.041147  0  0.089199  0.074649  0  1.040813  0
H  H73  1  0.61405060  0.77573988  0.55168250  1  0.041166  0  0.089198  0.074659  0  1.040822  0
H  H74  1  0.88594943  0.22425977  0.55168242  1  0.041157  0  0.089183  0.074622  0  1.040844  0
H  H75  1  0.61405004  0.22425978  0.44831703  1  0.04114  0  0.089197  0.074649  0  1.040823  0
H  H76  1  0.61405064  0.44831722  0.77573948  1  0.041157  0  0.08919  0.074616  0  1.04088  0
H  H77  1  0.88594941  0.44831656  0.22426004  1  0.041157  0  0.089191  0.074632  0  1.040849  0
H  H78  1  0.88594939  0.55168306  0.77573894  1  0.04116  0  0.089191  0.074627  0  1.040886  0
H  H79  1  0.61405000  0.55168245  0.22426005  1  0.041153  0  0.089184  0.074611  0  1.04088  0
H  H80  1  0.13371970  0.31410727  0.51401042  1  0.062812  0  0.092113  0.080766  0  1.006082  0
H  H81  1  0.36628069  0.31410724  0.48599074  1  0.062797  0  0.092095  0.080735  0  1.006101  0
H  H82  1  0.13371966  0.68589305  0.48598968  1  0.06282  0  0.092118  0.080777  0  1.00609  0
H  H83  1  0.36628065  0.68589303  0.51400991  1  0.062812  0  0.092113  0.08077  0  1.006101  0
H  H84  1  0.36628004  0.51401050  0.31410756  1  0.062816  0  0.092112  0.080761  0  1.006069  0
H  H85  1  0.13371968  0.51401057  0.68589254  1  0.062809  0  0.09213  0.080766  0  1.00609  0
H  H86  1  0.13371968  0.48599031  0.31410699  1  0.062817  0  0.092116  0.08076  0  1.006096  0
H  H87  1  0.36628067  0.48598978  0.68589198  1  0.0628  0  0.092109  0.080758  0  1.006096  0
H  H88  1  0.86628049  0.68589298  0.48599024  1  0.062814  0  0.092114  0.080751  0  1.006093  0
H  H89  1  0.63372013  0.68589301  0.51400991  1  0.062811  0  0.092117  0.080771  0  1.006064  0
H  H90  1  0.86627990  0.31410720  0.51400986  1  0.06281  0  0.09212  0.080754  0  1.006076  0
H  H91  1  0.63371954  0.31410722  0.48599018  1  0.062811  0  0.092111  0.080753  0  1.006101  0
H  H92  1  0.63371952  0.48598975  0.68589198  1  0.062799  0  0.092107  0.080742  0  1.00607  0
H  H93  1  0.86627988  0.48598968  0.31410755  1  0.062807  0  0.092116  0.080761  0  1.006065  0
H  H94  1  0.86628051  0.51401050  0.68589198  1  0.062799  0  0.092117  0.080743  0  1.006086  0
H  H95  1  0.63371952  0.51400991  0.31410700  1  0.062816  0  0.092116  0.080746  0  1.006084  0
H  H96  1  0.07592535  0.38748842  0.03895087  1  0.051791  0  0.086727  0.078605  0  1.028303  0
H  H97  1  0.42407503  0.38748852  0.96104863  1  0.051781  0  0.086728  0.078586  0  1.028327  0
H  H98  1  0.07592532  0.61251135  0.96104866  1  0.051787  0  0.08673  0.078602  0  1.028319  0
H  H99  1  0.42407501  0.61251174  0.03895090  1  0.051788  0  0.086727  0.078586  0  1.028309  0
H  H100  1  0.42407507  0.03895136  0.38748877  1  0.051781  0  0.086733  0.078588  0  1.028315  0
H  H101  1  0.07592539  0.03895142  0.61251120  1  0.051782  0  0.086732  0.078578  0  1.028314  0
H  H102  1  0.07592528  0.96104835  0.38748834  1  0.051786  0  0.086726  0.078586  0  1.028305  0
H  H103  1  0.42407496  0.96104835  0.61251133  1  0.051787  0  0.08672  0.078603  0  1.028298  0
H  H104  1  0.92407484  0.61251183  0.96104810  1  0.051793  0  0.08673  0.078599  0  1.02831  0
H  H105  1  0.57592517  0.61251173  0.03895146  1  0.051791  0  0.086726  0.078596  0  1.028314  0
H  H106  1  0.92407487  0.38748834  0.03895087  1  0.051794  0  0.086708  0.078584  0  1.028279  0
H  H107  1  0.57592519  0.38748851  0.96104863  1  0.05178  0  0.086734  0.078588  0  1.028331  0
H  H108  1  0.57592512  0.96104889  0.61251189  1  0.051792  0  0.086726  0.078597  0  1.028304  0
H  H109  1  0.92407480  0.96104883  0.38748834  1  0.051785  0  0.086719  0.078579  0  1.028327  0
H  H110  1  0.92407491  0.03895134  0.61251119  1  0.051783  0  0.086733  0.078596  0  1.028327  0
H  H111  1  0.57592523  0.03895134  0.38748821  1  0.051788  0  0.086723  0.078596  0  1.028317  0
H  H112  1  0.13192967  0.30360270  0.01771031  1  0.038542  0  0.090673  0.080744  0  1.013187  0
H  H113  1  0.36807010  0.30360282  0.98228917  1  0.038507  0  0.090648  0.080747  0  1.013167  0
H  H114  1  0.13192962  0.69639761  0.98228922  1  0.038491  0  0.090634  0.080692  0  1.013214  0
H  H115  1  0.36807005  0.69639745  0.01771093  1  0.038545  0  0.090646  0.080733  0  1.013175  0
H  H116  1  0.36807013  0.01771082  0.30360298  1  0.038546  0  0.090646  0.080734  0  1.01318  0
H  H117  1  0.13193033  0.01771090  0.69639697  1  0.038501  0  0.090642  0.08072  0  1.013186  0
H  H118  1  0.13192959  0.98228886  0.30360256  1  0.038546  0  0.090646  0.080731  0  1.01318  0
H  H119  1  0.36807002  0.98228889  0.69639767  1  0.038547  0  0.090657  0.080753  0  1.013181  0
H  H120  1  0.86807052  0.69639699  0.98228922  1  0.038543  0  0.090667  0.080732  0  1.013199  0
H  H121  1  0.63192947  0.69639743  0.01771037  1  0.038484  0  0.090674  0.080732  0  1.013218  0
H  H122  1  0.86807057  0.30360264  0.01771087  1  0.03855  0  0.090661  0.080728  0  1.013216  0
H  H123  1  0.63192951  0.30360280  0.98228917  1  0.038493  0  0.090626  0.080677  0  1.01322  0
H  H124  1  0.63192943  0.98228943  0.69639711  1  0.038548  0  0.090653  0.080712  0  1.013215  0
H  H125  1  0.86807049  0.98228879  0.30360256  1  0.038549  0  0.090645  0.080732  0  1.013192  0
H  H126  1  0.86807060  0.01771083  0.69639697  1  0.038559  0  0.090635  0.080661  0  1.01325  0
H  H127  1  0.63192955  0.01771080  0.30360242  1  0.038485  0  0.090657  0.080751  0  1.013178  0
H  H128  1  0.24707530  0.12750264  0.41483065  1  0.049384  0  0.096789  0.090993  0  0.984504  0
H  H129  1  0.25292514  0.12750266  0.58516990  1  0.049377  0  0.096795  0.090975  0  0.98449  0
H  H130  1  0.24707521  0.87249766  0.58516944  1  0.049385  0  0.09679  0.090992  0  0.984495  0
H  H131  1  0.25292506  0.87249764  0.41483020  1  0.049374  0  0.096794  0.090975  0  0.984491  0
H  H132  1  0.25292574  0.41483027  0.12750221  1  0.049388  0  0.096796  0.091013  0  0.984505  0
H  H133  1  0.24707463  0.41483037  0.87249730  1  0.049386  0  0.096797  0.090984  0  0.984479  0
H  H134  1  0.24707461  0.58516992  0.12750223  1  0.049374  0  0.096792  0.090974  0  0.984487  0
H  H135  1  0.25292572  0.58516947  0.87249732  1  0.04939  0  0.096795  0.090987  0  0.984494  0
H  H136  1  0.75292553  0.87249817  0.58516944  1  0.049385  0  0.096793  0.090989  0  0.984517  0
H  H137  1  0.74707505  0.87249759  0.41483020  1  0.04938  0  0.096789  0.090986  0  0.984488  0
H  H138  1  0.75292499  0.12750203  0.41483009  1  0.049376  0  0.096788  0.090982  0  0.984489  0
H  H139  1  0.74707451  0.12750205  0.58516934  1  0.049384  0  0.096792  0.090987  0  0.9845  0
H  H140  1  0.74707445  0.58516942  0.87249732  1  0.049388  0  0.096795  0.090994  0  0.984497  0
H  H141  1  0.75292556  0.58516932  0.12750223  1  0.04939  0  0.096799  0.090998  0  0.984514  0
H  H142  1  0.75292558  0.41483089  0.87249730  1  0.049396  0  0.096797  0.091019  0  0.984493  0
H  H143  1  0.74707511  0.41483078  0.12750221  1  0.049383  0  0.096788  0.090983  0  0.9845  0
H  H144  1  0.16473751  0.11028912  0.47969541  1  0.067782  0  0.082161  0.081576  0  1.055469  0
H  H145  1  0.33526230  0.11028911  0.52030457  1  0.067749  0  0.082166  0.081567  0  1.055456  0
H  H146  1  0.16473742  0.88971119  0.52030412  1  0.067779  0  0.082147  0.081555  0  1.05551  0
H  H147  1  0.33526221  0.88971117  0.47969553  1  0.067743  0  0.082162  0.081558  0  1.055491  0
H  H148  1  0.33526289  0.47969552  0.11028923  1  0.067733  0  0.08217  0.081626  0  1.055539  0
H  H149  1  0.16473746  0.47969565  0.88971086  1  0.067745  0  0.082149  0.081538  0  1.055514  0
H  H150  1  0.16473746  0.52030466  0.11028868  1  0.067737  0  0.082153  0.081547  0  1.055505  0
H  H151  1  0.33526225  0.52030420  0.88971086  1  0.067746  0  0.082166  0.081564  0  1.055483  0
H  H152  1  0.83526269  0.88971113  0.52030412  1  0.067777  0  0.082173  0.08162  0  1.05553  0
H  H153  1  0.66473789  0.88971114  0.47969552  1  0.067746  0  0.082162  0.081569  0  1.05548  0
H  H154  1  0.83526278  0.11028906  0.47969541  1  0.067775  0  0.082165  0.081584  0  1.055504  0
H  H155  1  0.66473798  0.11028908  0.52030401  1  0.067742  0  0.082175  0.081588  0  1.055496  0
H  H156  1  0.66473730  0.52030473  0.88971086  1  0.067746  0  0.082164  0.081601  0  1.055469  0
H  H157  1  0.83526273  0.52030404  0.11028923  1  0.067735  0  0.082174  0.081618  0  1.055537  0
H  H158  1  0.83526273  0.47969559  0.88971030  1  0.067748  0  0.082156  0.081583  0  1.055488  0
H  H159  1  0.66473794  0.47969549  0.11028867  1  0.067743  0  0.08216  0.081557  0  1.055476  0
H  H160  1  0.13210286  0.27209372  0.14643463  1  0.067326  0  0.087033  0.080068  0  1.030352  0
H  H161  1  0.36789754  0.27209380  0.85356540  1  0.067331  0  0.087055  0.080137  0  1.030335  0
H  H162  1  0.13210217  0.72790603  0.85356491  1  0.067345  0  0.087008  0.080033  0  1.030363  0
H  H163  1  0.36789749  0.72790591  0.14643469  1  0.067334  0  0.087038  0.080094  0  1.03035  0
H  H164  1  0.36789756  0.14643503  0.27209397  1  0.067336  0  0.087041  0.080089  0  1.030332  0
H  H165  1  0.13210288  0.14643511  0.72790602  1  0.06736  0  0.087035  0.080074  0  1.030353  0
H  H166  1  0.13210279  0.85356520  0.27209408  1  0.067333  0  0.087005  0.080033  0  1.030378  0
H  H167  1  0.36789748  0.85356469  0.72790612  1  0.067369  0  0.087052  0.080117  0  1.030354  0
H  H168  1  0.86789733  0.72790597  0.85356490  1  0.067329  0  0.087034  0.080074  0  1.030353  0
H  H169  1  0.63210265  0.72790645  0.14643469  1  0.06733  0  0.087009  0.080054  0  1.030394  0
H  H170  1  0.86789802  0.27209366  0.14643463  1  0.067336  0  0.087039  0.080077  0  1.030332  0
H  H171  1  0.63210207  0.27209434  0.85356540  1  0.06734  0  0.087041  0.080091  0  1.030339  0
H  H172  1  0.63210263  0.85356522  0.72790556  1  0.067335  0  0.087039  0.080074  0  1.030352  0
H  H173  1  0.86789732  0.85356514  0.27209407  1  0.067366  0  0.087038  0.080078  0  1.030346  0
H  H174  1  0.86789740  0.14643449  0.72790602  1  0.067337  0  0.087011  0.080051  0  1.030369  0
H  H175  1  0.63210272  0.14643500  0.27209397  1  0.067332  0  0.087037  0.080073  0  1.030347  0
H  H176  1  0.07434959  0.35531566  0.16669128  1  0.043413  0  0.09332  0.076236  0  1.025484  0
H  H177  1  0.42565079  0.35531572  0.83330877  1  0.043417  0  0.093319  0.076272  0  1.025466  0
H  H178  1  0.07434892  0.64468411  0.83330881  1  0.043415  0  0.093315  0.076243  0  1.025471  0
H  H179  1  0.42565076  0.64468454  0.16669132  1  0.043415  0  0.093321  0.076257  0  1.025485  0
H  H180  1  0.42565082  0.16669110  0.35531597  1  0.043408  0  0.093316  0.076239  0  1.025485  0
H  H181  1  0.07434898  0.16669117  0.64468403  1  0.043406  0  0.093314  0.076231  0  1.025481  0
H  H182  1  0.07434954  0.83330860  0.35531551  1  0.043412  0  0.093311  0.076239  0  1.025484  0
H  H183  1  0.42565074  0.83330860  0.64468412  1  0.043412  0  0.093315  0.076243  0  1.025484  0
H  H184  1  0.92565060  0.64468459  0.83330881  1  0.043419  0  0.093325  0.07625  0  1.025477  0
H  H185  1  0.57434940  0.64468453  0.16669132  1  0.04342  0  0.093315  0.076264  0  1.025482  0
H  H186  1  0.92565064  0.35531558  0.16669128  1  0.043414  0  0.093321  0.076241  0  1.025468  0
H  H187  1  0.57434880  0.35531571  0.83330877  1  0.043412  0  0.093318  0.076252  0  1.025467  0
H  H188  1  0.57434938  0.83330859  0.64468412  1  0.043407  0  0.093315  0.076226  0  1.025485  0
H  H189  1  0.92565121  0.83330852  0.35531607  1  0.0434  0  0.093309  0.07622  0  1.025487  0
H  H190  1  0.92565066  0.16669109  0.64468402  1  0.043409  0  0.093307  0.076237  0  1.02548  0
H  H191  1  0.57434946  0.16669108  0.35531541  1  0.043413  0  0.093319  0.076229  0  1.025502  0
H  H192  1  0.23791652  0.32658347  0.41768540  1  0.032162  0  0.10047  0.083597  0  0.985206  0
H  H193  1  0.26208388  0.32658293  0.58231520  1  0.032478  0  0.100468  0.083644  0  0.985208  0
H  H194  1  0.23791584  0.67341683  0.58231525  1  0.032481  0  0.100483  0.08365  0  0.985208  0
H  H195  1  0.26208384  0.67341680  0.41768489  1  0.032486  0  0.100456  0.083616  0  0.985192  0
H  H196  1  0.26208387  0.41768501  0.32658322  1  0.032481  0  0.100484  0.083649  0  0.985204  0
H  H197  1  0.23791587  0.41768507  0.67341573  1  0.032137  0  0.100454  0.083609  0  0.985211  0
H  H198  1  0.23791522  0.58231523  0.32658380  1  0.03215  0  0.100488  0.083659  0  0.985169  0
H  H199  1  0.26208448  0.58231528  0.67341632  1  0.032143  0  0.100469  0.083622  0  0.985209  0
H  H200  1  0.76208431  0.67341678  0.58231469  1  0.032475  0  0.100467  0.083641  0  0.98521  0
H  H201  1  0.73791632  0.67341676  0.41768489  1  0.032168  0  0.100461  0.083622  0  0.985183  0
H  H202  1  0.76208372  0.32658286  0.41768484  1  0.032487  0  0.100458  0.083611  0  0.985195  0
H  H203  1  0.73791573  0.32658345  0.58231464  1  0.032476  0  0.100454  0.083613  0  0.985211  0
H  H204  1  0.73791570  0.58231524  0.67341575  1  0.032138  0  0.100467  0.083619  0  0.985209  0
H  H205  1  0.76208369  0.58231518  0.32658324  1  0.032479  0  0.100483  0.083648  0  0.985212  0
H  H206  1  0.76208434  0.41768502  0.67341573  1  0.032137  0  0.100466  0.083618  0  0.985213  0
H  H207  1  0.73791572  0.41768497  0.32658378  1  0.032151  0  0.100477  0.083649  0  0.985198  0
H  H208  1  0.27158586  0.24736106  0.36523351  1  0.041344  0  0.095461  0.084948  0  1.009543  0
H  H209  1  0.22841455  0.24736166  0.63476707  1  0.041327  0  0.095437  0.084958  0  1.009536  0
H  H210  1  0.27158517  0.75263867  0.63476714  1  0.04134  0  0.095471  0.08498  0  1.00955  0
H  H211  1  0.22841449  0.75263864  0.36523302  1  0.041333  0  0.095457  0.084968  0  1.00954  0
H  H212  1  0.22841454  0.36523373  0.24736130  1  0.041343  0  0.095458  0.084951  0  1.009561  0
H  H213  1  0.27158458  0.36523324  0.75263820  1  0.041348  0  0.095451  0.084972  0  1.009507  0
H  H214  1  0.27158518  0.63476705  0.24736134  1  0.041334  0  0.095463  0.084973  0  1.009566  0
H  H215  1  0.22841514  0.63476657  0.75263823  1  0.041343  0  0.095453  0.08496  0  1.009533  0
H  H216  1  0.72841497  0.75263863  0.63476714  1  0.041335  0  0.095457  0.084978  0  1.009539  0
H  H217  1  0.77158564  0.75263915  0.36523302  1  0.04133  0  0.095454  0.084961  0  1.009548  0
H  H218  1  0.72841439  0.24736102  0.36523295  1  0.041332  0  0.095436  0.084948  0  1.009536  0
H  H219  1  0.77158507  0.24736105  0.63476707  1  0.041342  0  0.095467  0.084989  0  1.009542  0
H  H220  1  0.77158502  0.63476708  0.75263823  1  0.041345  0  0.095457  0.084967  0  1.009526  0
H  H221  1  0.72841498  0.63476645  0.24736134  1  0.041349  0  0.095464  0.084962  0  1.009556  0
H  H222  1  0.72841501  0.36523320  0.75263819  1  0.041345  0  0.095455  0.084967  0  1.009529  0
H  H223  1  0.77158506  0.36523312  0.24736130  1  0.041338  0  0.095467  0.084981  0  1.009557  0
C  C224  1  0.99999997  0.21297994  0.01784261  1  0.229514  0  -0.07975  -0.081458  0  3.81218  0
C  C225  1  0.50000045  0.21298003  0.98215685  1  0.229545  0  -0.07978  -0.081534  0  3.812168  0
C  C226  1  0.99999990  0.78701985  0.98215749  1  0.229533  0  -0.079775  -0.081476  0  3.81216  0
C  C227  1  0.49999975  0.78702022  0.01784269  1  0.229534  0  -0.079774  -0.081485  0  3.812148  0
C  C228  1  0.49999984  0.01784367  0.21297956  1  0.229349  0  -0.079743  -0.081496  0  3.812135  0
C  C229  1  1.00000000  0.01784379  0.78702040  1  0.229348  0  -0.079731  -0.081466  0  3.812176  0
C  C230  1  0.99999957  0.98215590  0.21297970  1  0.229158  0  -0.079732  -0.081457  0  3.81227  0
C  C231  1  0.49999972  0.98215602  0.78702053  1  0.22937  0  -0.079762  -0.081493  0  3.812169  0
C  C232  1  0.99999998  0.19144733  0.10173231  1  0.190348  0  -0.082641  -0.081999  0  3.801217  0
C  C233  1  0.49999982  0.19144796  0.89826826  1  0.190323  0  -0.082653  -0.08205  0  3.801272  0
C  C234  1  0.99999990  0.80855245  0.89826835  1  0.190327  0  -0.082646  -0.082026  0  3.80124  0
C  C235  1  0.49999975  0.80855229  0.10173184  1  0.190329  0  -0.08264  -0.082024  0  3.801231  0
C  C236  1  0.49999983  0.10173161  0.19144806  1  0.190317  0  -0.082654  -0.082051  0  3.801275  0
C  C237  1  0.99999999  0.10173175  0.80855248  1  0.190306  0  -0.082655  -0.082043  0  3.80125  0
C  C238  1  0.00000021  0.89826850  0.19144761  1  0.190305  0  -0.082615  -0.081984  0  3.801286  0
C  C239  1  0.49999973  0.89826808  0.80855260  1  0.190295  0  -0.082636  -0.08197  0  3.801193  0
C  C240  1  0.16295947  0.25962652  0.52622091  1  0.236376  0  -0.083928  -0.092741  0  3.826685  0
C  C241  1  0.33704031  0.25962650  0.47377968  1  0.236379  0  -0.083869  -0.092606  0  3.826562  0
C  C242  1  0.16295941  0.74037379  0.47377863  1  0.236369  0  -0.083938  -0.092752  0  3.826694  0
C  C243  1  0.33704025  0.74037378  0.52622154  1  0.235427  0  -0.083922  -0.092717  0  3.826731  0
C  C244  1  0.33704028  0.52622154  0.25962620  1  0.236371  0  -0.083902  -0.092639  0  3.826694  0
C  C245  1  0.16295943  0.52622162  0.74037334  1  0.236331  0  -0.08393  -0.092732  0  3.826751  0
C  C246  1  0.16295944  0.47377869  0.25962619  1  0.236208  0  -0.083915  -0.092703  0  3.826653  0
C  C247  1  0.33704029  0.47377874  0.74037333  1  0.236384  0  -0.083907  -0.092697  0  3.826723  0
C  C248  1  0.83704073  0.74037373  0.47377919  1  0.236372  0  -0.083909  -0.092635  0  3.826627  0
C  C249  1  0.66295988  0.74037375  0.52622098  1  0.23638  0  -0.083923  -0.092692  0  3.826661  0
C  C250  1  0.83704078  0.25962590  0.52622091  1  0.236225  0  -0.083901  -0.092592  0  3.826592  0
C  C251  1  0.66295931  0.25962647  0.47377856  1  0.236386  0  -0.083914  -0.09267  0  3.82667  0
C  C252  1  0.66295928  0.47377871  0.74037333  1  0.236378  0  -0.083883  -0.092616  0  3.826645  0
C  C253  1  0.83704013  0.47377863  0.25962619  1  0.236391  0  -0.083902  -0.092664  0  3.826726  0
C  C254  1  0.83704075  0.52622100  0.74037334  1  0.236371  0  -0.083903  -0.092659  0  3.82671  0
C  C255  1  0.66295928  0.52622151  0.25962620  1  0.236366  0  -0.083875  -0.092569  0  3.826571  0
C  C256  1  0.07645314  0.32639450  0.04689890  1  0.266092  0  -0.084321  -0.086341  0  3.810441  0
C  C257  1  0.42354725  0.32639516  0.95310171  1  0.266077  0  -0.084298  -0.086279  0  3.810355  0
C  C258  1  0.07645246  0.67360527  0.95310120  1  0.266103  0  -0.084306  -0.086301  0  3.810448  0
C  C259  1  0.42354722  0.67360510  0.04689839  1  0.266102  0  -0.084274  -0.086244  0  3.810291  0
C  C260  1  0.42354729  0.04689826  0.32639479  1  0.266076  0  -0.084272  -0.086262  0  3.810307  0
C  C261  1  0.07645317  0.04689890  0.67360517  1  0.266093  0  -0.084285  -0.086259  0  3.810357  0
C  C262  1  0.07645306  0.95310143  0.32639492  1  0.266093  0  -0.084311  -0.086282  0  3.810381  0
C  C263  1  0.42354718  0.95310089  0.67360530  1  0.266101  0  -0.084323  -0.086366  0  3.810393  0
C  C264  1  0.92354642  0.67360519  0.95310120  1  0.266062  0  -0.084339  -0.086322  0  3.810366  0
C  C265  1  0.57645294  0.67360509  0.04689839  1  0.266089  0  -0.0843  -0.086278  0  3.81041  0
C  C266  1  0.92354710  0.32639442  0.04689890  1  0.266046  0  -0.084303  -0.086324  0  3.810388  0
C  C267  1  0.57645235  0.32639515  0.95310171  1  0.266124  0  -0.084262  -0.086195  0  3.810343  0
C  C268  1  0.57645291  0.95310143  0.67360530  1  0.266096  0  -0.084305  -0.086291  0  3.810361  0
C  C269  1  0.92354702  0.95310135  0.32639492  1  0.266098  0  -0.084321  -0.086302  0  3.81036  0
C  C270  1  0.92354776  0.04689882  0.67360517  1  0.266049  0  -0.084299  -0.086265  0  3.810448  0
C  C271  1  0.57645301  0.04689880  0.32639479  1  0.266106  0  -0.084313  -0.086367  0  3.810408  0
C  C272  1  0.21860224  0.14691553  0.46753594  1  0.201774  0  -0.090827  -0.087484  0  3.832759  0
C  C273  1  0.28139819  0.14691609  0.53246462  1  0.233166  0  -0.090798  -0.087319  0  3.832633  0
C  C274  1  0.21860153  0.85308421  0.53246416  1  0.201945  0  -0.090816  -0.087444  0  3.832725  0
C  C275  1  0.28139811  0.85308420  0.46753548  1  0.23334  0  -0.090798  -0.08733  0  3.832666  0
C  C276  1  0.28139879  0.46753607  0.14691568  1  0.201994  0  -0.090857  -0.08759  0  3.832893  0
C  C277  1  0.21860157  0.46753561  0.85308385  1  0.233344  0  -0.090794  -0.087329  0  3.832673  0
C  C278  1  0.21860157  0.53246469  0.14691568  1  0.233342  0  -0.090798  -0.087324  0  3.832649  0
C  C279  1  0.28139815  0.53246423  0.85308386  1  0.201986  0  -0.0908  -0.087374  0  3.832707  0
C  C280  1  0.78139858  0.85308416  0.53246415  1  0.233299  0  -0.09084  -0.087473  0  3.832866  0
C  C281  1  0.71860200  0.85308416  0.46753604  1  0.201817  0  -0.090809  -0.087382  0  3.832743  0
C  C282  1  0.78139803  0.14691548  0.46753594  1  0.201773  0  -0.090808  -0.087387  0  3.832732  0
C  C283  1  0.71860208  0.14691549  0.53246405  1  0.233329  0  -0.090814  -0.087404  0  3.832747  0
C  C284  1  0.71860141  0.53246475  0.85308330  1  0.233174  0  -0.090791  -0.087404  0  3.832698  0
C  C285  1  0.78139862  0.53246408  0.14691568  1  0.233338  0  -0.090841  -0.087497  0  3.832875  0
C  C286  1  0.78139800  0.46753612  0.85308385  1  0.201819  0  -0.090853  -0.087544  0  3.832783  0
C  C287  1  0.71860205  0.46753602  0.14691567  1  0.201803  0  -0.090813  -0.087385  0  3.832748  0
C  C288  1  0.07620094  0.30519883  0.13098090  1  0.221605  0  -0.083402  -0.085946  0  3.808988  0
C  C289  1  0.42379945  0.30519835  0.86901914  1  0.221616  0  -0.083419  -0.086116  0  3.809064  0
C  C290  1  0.07620026  0.69480149  0.86901920  1  0.221594  0  -0.083347  -0.085899  0  3.80895  0
C  C291  1  0.42379941  0.69480136  0.13098095  1  0.221605  0  -0.083426  -0.086069  0  3.809018  0
C  C292  1  0.42379948  0.13098074  0.30519911  1  0.22161  0  -0.083413  -0.086006  0  3.80897  0
C  C293  1  0.07620096  0.13098083  0.69480088  1  0.221573  0  -0.083399  -0.085978  0  3.808954  0
C  C294  1  0.07620025  0.86901894  0.30519865  1  0.221613  0  -0.083338  -0.085923  0  3.808957  0
C  C295  1  0.42379939  0.86901896  0.69480155  1  0.221568  0  -0.08339  -0.085998  0  3.809053  0
C  C296  1  0.92379925  0.69480142  0.86901920  1  0.221605  0  -0.08341  -0.085975  0  3.808975  0
C  C297  1  0.57620074  0.69480134  0.13098039  1  0.221613  0  -0.083375  -0.086014  0  3.809032  0
C  C298  1  0.92379930  0.30519876  0.13098090  1  0.221599  0  -0.083407  -0.085956  0  3.808951  0
C  C299  1  0.57620078  0.30519889  0.86901914  1  0.221608  0  -0.083426  -0.08604  0  3.808953  0
C  C300  1  0.57620072  0.86901895  0.69480099  1  0.221606  0  -0.083396  -0.085934  0  3.808961  0
C  C301  1  0.92379923  0.86901886  0.30519921  1  0.221578  0  -0.083399  -0.085957  0  3.808942  0
C  C302  1  0.92379995  0.13098075  0.69480088  1  0.221609  0  -0.083347  -0.085943  0  3.808982  0
C  C303  1  0.57620081  0.13098073  0.30519911  1  0.221602  0  -0.083393  -0.085923  0  3.808968  0
C  C304  1  0.25868965  0.26798042  0.42215136  1  0.272064  0  -0.076913  -0.084589  0  3.816843  0
C  C305  1  0.24131076  0.26798101  0.57784979  1  0.272053  0  -0.076846  -0.084619  0  3.816795  0
C  C306  1  0.25868896  0.73201931  0.57784873  1  0.272064  0  -0.076916  -0.084667  0  3.816959  0
C  C307  1  0.24131134  0.73201985  0.42215087  1  0.272065  0  -0.07689  -0.084626  0  3.816856  0
C  C308  1  0.24131074  0.42215097  0.26798068  1  0.272054  0  -0.076919  -0.084657  0  3.816913  0
C  C309  1  0.25868836  0.42215104  0.73201883  1  0.272066  0  -0.076849  -0.084565  0  3.816817  0
C  C310  1  0.25868898  0.57784926  0.26798070  1  0.27206  0  -0.076934  -0.084723  0  3.81695  0
C  C311  1  0.24131136  0.57784932  0.73201886  1  0.272093  0  -0.076913  -0.084618  0  3.816897  0
C  C312  1  0.74131181  0.73201927  0.57784929  1  0.272056  0  -0.076871  -0.084649  0  3.816902  0
C  C313  1  0.75868943  0.73201981  0.42215087  1  0.272064  0  -0.076881  -0.08463  0  3.816837  0
C  C314  1  0.74131124  0.26798038  0.42215080  1  0.272056  0  -0.076877  -0.084604  0  3.816844  0
C  C315  1  0.75868822  0.26798040  0.57784866  1  0.272075  0  -0.076914  -0.084706  0  3.816936  0
C  C316  1  0.75868882  0.57784872  0.73201885  1  0.272073  0  -0.076906  -0.084649  0  3.816852  0
C  C317  1  0.74131120  0.57784865  0.26798070  1  0.272055  0  -0.076911  -0.084682  0  3.816956  0
C  C318  1  0.74131122  0.42215099  0.73201883  1  0.27206  0  -0.076912  -0.084662  0  3.816867  0
C  C319  1  0.75868884  0.42215093  0.26798068  1  0.272055  0  -0.076924  -0.084711  0  3.816993  0
I  I320  1  0.99999967  0.10894577  0.47122823  1  -0.401152  0  -0.132826  -0.288542  0  2.111104  0
I  I321  1  0.50000046  0.10894527  0.52877119  1  -0.401619  0  -0.132809  -0.288532  0  2.111104  0
I  I322  1  0.99999958  0.89105494  0.52877130  1  -0.401643  0  -0.132808  -0.288534  0  2.111093  0
I  I323  1  0.49999974  0.89105442  0.47122891  1  -0.401103  0  -0.132833  -0.28858  0  2.111126  0
I  I324  1  0.49999979  0.47122778  0.10894596  1  -0.401141  0  -0.132803  -0.288492  0  2.111052  0
I  I325  1  0.99999899  0.47122840  0.89105468  1  -0.401197  0  -0.132808  -0.288512  0  2.111103  0
I  I326  1  0.99999962  0.52877119  0.10894541  1  -0.401615  0  -0.132809  -0.288519  0  2.111092  0
I  I327  1  0.50000041  0.52877079  0.89105469  1  -0.401607  0  -0.132814  -0.288551  0  2.111116  0
I  I328  1  0.15026237  0.14852563  0.26268886  1  -0.421455  0  -0.174023  -0.313433  0  1.90789  0
I  I329  1  0.34973617  0.14852680  0.73731057  1  -0.421578  0  -0.17401  -0.313387  0  1.907884  0
I  I330  1  0.15026292  0.85147413  0.73731123  1  -0.421355  0  -0.174017  -0.313399  0  1.907882  0
I  I331  1  0.34973798  0.85147348  0.26269008  1  -0.421397  0  -0.174018  -0.313417  0  1.907858  0
I  I332  1  0.34973616  0.26269028  0.14852745  1  -0.421618  0  -0.174019  -0.31342  0  1.907914  0
I  I333  1  0.15026299  0.26269040  0.85147201  1  -0.421327  0  -0.174013  -0.313425  0  1.907857  0
I  I334  1  0.15026167  0.73731047  0.14852640  1  -0.421592  0  -0.174005  -0.313408  0  1.907886  0
I  I335  1  0.34973736  0.73730999  0.85147264  1  -0.421629  0  -0.174008  -0.313409  0  1.907892  0
I  I336  1  0.84973782  0.85147406  0.73731067  1  -0.421428  0  -0.174018  -0.313407  0  1.907887  0
I  I337  1  0.65026213  0.85147401  0.26268896  1  -0.421405  0  -0.174014  -0.313414  0  1.907898  0
I  I338  1  0.84973791  0.14852556  0.26268886  1  -0.421407  0  -0.174019  -0.313425  0  1.907888  0
I  I339  1  0.65026095  0.14852677  0.73731001  1  -0.421369  0  -0.174017  -0.313423  0  1.907863  0
I  I340  1  0.65026277  0.73730997  0.85147264  1  -0.421561  0  -0.174007  -0.313391  0  1.907857  0
I  I341  1  0.84973721  0.73730985  0.14852752  1  -0.421564  0  -0.174018  -0.313408  0  1.907872  0
I  I342  1  0.84973663  0.26268922  0.85147313  1  -0.421637  0  -0.174013  -0.313406  0  1.907877  0
I  I343  1  0.65026220  0.26268969  0.14852689  1  -0.421532  0  -0.174028  -0.313444  0  1.907891  0
I  I344  1  0.99999964  0.34291954  0.36092677  1  -0.406772  0  -0.183801  -0.26454  0  1.872438  0
I  I345  1  0.49999980  0.34291963  0.63907215  1  -0.406779  0  -0.183796  -0.264536  0  1.87248  0
I  I346  1  0.99999960  0.65708005  0.63907220  1  -0.406788  0  -0.183799  -0.264514  0  1.872445  0
I  I347  1  0.49999976  0.65708062  0.36092682  1  -0.406695  0  -0.183837  -0.264586  0  1.872548  0
I  I348  1  0.50000106  0.36092753  0.34291937  1  -0.406776  0  -0.183826  -0.264574  0  1.872553  0
I  I349  1  0.99999964  0.36092809  0.65708068  1  -0.406692  0  -0.18384  -0.264586  0  1.872481  0
I  I350  1  0.00000119  0.63907272  0.34291942  1  -0.406766  0  -0.183844  -0.264591  0  1.872556  0
I  I351  1  0.49999976  0.63907216  0.65707960  1  -0.406722  0  -0.183815  -0.264563  0  1.872494  0
N  N352  1  0.99999997  0.25997968  0.14950463  1  -0.971209  0  -0.367485  -0.055111  0  3.487998  0
N  N353  1  0.49999981  0.25997973  0.85049540  1  -0.971197  0  -0.36749  -0.055063  0  3.487999  0
N  N354  1  0.00000054  0.74002010  0.85049603  1  -0.971201  0  -0.367454  -0.055053  0  3.487966  0
N  N355  1  0.49999975  0.74001996  0.14950470  1  -0.971196  0  -0.367487  -0.055047  0  3.487978  0
N  N356  1  0.49999982  0.14950389  0.25997990  1  -0.971186  0  -0.367498  -0.055108  0  3.488088  0
N  N357  1  0.99999998  0.14950457  0.74002009  1  -0.971178  0  -0.367475  -0.055057  0  3.487948  0
N  N358  1  0.99999990  0.85049521  0.25998001  1  -0.97118  0  -0.36748  -0.055058  0  3.487985  0
N  N359  1  0.50000037  0.85049580  0.74002019  1  -0.971188  0  -0.367505  -0.05515  0  3.488114  0
N  N360  1  0.00000060  0.29586436  0.00914614  1  -1.01475  0  -0.36877  -0.059085  0  3.495336  0
N  N361  1  0.49999980  0.29586390  0.99085501  1  -1.014807  0  -0.368776  -0.059119  0  3.495259  0
N  N362  1  0.99999991  0.70413654  0.99085451  1  -1.014776  0  -0.368751  -0.059106  0  3.495289  0
N  N363  1  0.49999976  0.70413635  0.00914564  1  -1.01481  0  -0.368762  -0.059093  0  3.495246  0
N  N364  1  0.50000047  0.00914553  0.29586462  1  -1.014761  0  -0.368775  -0.059048  0  3.495177  0
N  N365  1  0.00000063  0.00914563  0.70413533  1  -1.014736  0  -0.368781  -0.059065  0  3.495202  0
N  N366  1  0.00000051  0.99085471  0.29586420  1  -1.014792  0  -0.368722  -0.059102  0  3.495297  0
N  N367  1  0.49999972  0.99085416  0.70413604  1  -1.014813  0  -0.368756  -0.059071  0  3.495228  0
N  N368  1  0.18677161  0.22432990  0.45349220  1  -0.974707  0  -0.364579  -0.064596  0  3.474921  0
N  N369  1  0.31322818  0.22432934  0.54650838  1  -0.973787  0  -0.364573  -0.064643  0  3.475031  0
N  N370  1  0.18677154  0.77567097  0.54650790  1  -0.973947  0  -0.364558  -0.064551  0  3.474879  0
N  N371  1  0.31322812  0.77567094  0.45349171  1  -0.973959  0  -0.364572  -0.064649  0  3.475017  0
N  N372  1  0.31322815  0.45349233  0.22432956  1  -0.974886  0  -0.364573  -0.064574  0  3.474956  0
N  N373  1  0.18677158  0.45349242  0.77567053  1  -0.974898  0  -0.364597  -0.064698  0  3.475012  0
N  N374  1  0.18677220  0.54650845  0.22432901  1  -0.973795  0  -0.364549  -0.064559  0  3.474835  0
N  N375  1  0.31322877  0.54650795  0.77567054  1  -0.973946  0  -0.364583  -0.064617  0  3.474943  0
N  N376  1  0.81322796  0.77567035  0.54650846  1  -0.973957  0  -0.364601  -0.064674  0  3.475083  0
N  N377  1  0.68677201  0.77567034  0.45349171  1  -0.974728  0  -0.364581  -0.064644  0  3.475061  0
N  N378  1  0.81322802  0.22432985  0.45349163  1  -0.974573  0  -0.364602  -0.064721  0  3.475127  0
N  N379  1  0.68677145  0.22432931  0.54650838  1  -0.973954  0  -0.364561  -0.06461  0  3.475052  0
N  N380  1  0.68677141  0.54650848  0.77566998  1  -0.973796  0  -0.364587  -0.064595  0  3.474917  0
N  N381  1  0.81322799  0.54650727  0.22433013  1  -0.974927  0  -0.364583  -0.064578  0  3.474921  0
N  N382  1  0.81322799  0.45349180  0.77566996  1  -0.974722  0  -0.364591  -0.064599  0  3.474972  0
N  N383  1  0.68677205  0.45349174  0.22432955  1  -0.973768  0  -0.364603  -0.064671  0  3.474953  0
