# generated using pymatgen
data_DyH5C4SN2O7
_symmetry_space_group_name_H-M   'P 1'
_cell_length_a   6.45959624
_cell_length_b   11.16969613
_cell_length_c   12.12652827
_cell_angle_alpha   108.27193726
_cell_angle_beta   89.99996359
_cell_angle_gamma   89.99997828
_symmetry_Int_Tables_number   1
_chemical_formula_structural   DyH5C4SN2O7
_chemical_formula_sum   'Dy4 H20 C16 S4 N8 O28'
_cell_volume   830.83424123
_cell_formula_units_Z   4
loop_
 _symmetry_equiv_pos_site_id
 _symmetry_equiv_pos_as_xyz
  1  'x, y, z'
loop_
 _atom_site_type_symbol
 _atom_site_label
 _atom_site_symmetry_multiplicity
 _atom_site_fract_x
 _atom_site_fract_y
 _atom_site_fract_z
 _atom_site_occupancy
 _atom_site_hle17_bader_spin_density
 _atom_site_hle17_ddec_charge
 _atom_site_hle17_ddec_spin_density
 _atom_site_hle17_ddec_sum_bond_order
 _atom_site_hle17_magmom
 _atom_site_hse06_10hf_bader_spin_density
 _atom_site_hse06_10hf_ddec_charge
 _atom_site_hse06_10hf_ddec_spin_density
 _atom_site_hse06_10hf_ddec_sum_bond_order
 _atom_site_hse06_10hf_magmom
 _atom_site_hse06_bader_spin_density
 _atom_site_hse06_ddec_charge
 _atom_site_hse06_ddec_spin_density
 _atom_site_hse06_ddec_sum_bond_order
 _atom_site_hse06_magmom
 _atom_site_pbe_bader_spin_density
 _atom_site_pbe_cm5_charge
 _atom_site_pbe_ddec_charge
 _atom_site_pbe_ddec_spin_density
 _atom_site_pbe_ddec_sum_bond_order
 _atom_site_pbe_magmom
Dy  Dy0  1  0.86366028  0.84034598  0.39326030  1  0  2.268576  0  1.652605  0  0  2.121177  0  2.121547  0  0  2.243076  0  1.938891  0  0  1.563145  2.087136  0  2.152032  0
Dy  Dy1  1  0.36366038  0.15965369  0.10673935  1  0  2.268613  0  1.652541  0  0  2.12122  0  2.121474  0  0  2.24312  0  1.93882  0  0  1.563182  2.087183  0  2.151959  0
Dy  Dy2  1  0.13633937  0.15965417  0.60674018  1  0  2.268608  0  1.652578  0  0  2.12122  0  2.121498  0  0  2.243109  0  1.938863  0  0  1.563155  2.087186  0  2.151983  0
Dy  Dy3  1  0.63633927  0.84034552  0.89326003  1  0  2.268582  0  1.652612  0  0  2.121205  0  2.121519  0  0  2.24308  0  1.938902  0  0  1.563144  2.087167  0  2.152006  0
H  H4  1  0.72162667  0.43615456  0.55846297  1  0  0.123642  0  0.963472  0  0  0.132502  0  1.025369  0  0  0.135646  0  1.022531  0  0  0.128792  0.130331  0  1.027098  0
H  H5  1  0.22163075  0.56384698  0.94153775  1  0  0.123657  0  0.963456  0  0  0.132499  0  1.025377  0  0  0.135643  0  1.02254  0  0  0.128786  0.130326  0  1.027105  0
H  H6  1  0.27836834  0.56384653  0.44153696  1  0  0.123653  0  0.963459  0  0  0.132496  0  1.025378  0  0  0.135639  0  1.022544  0  0  0.128779  0.130324  0  1.027106  0
H  H7  1  0.77836890  0.43615318  0.05846274  1  0  0.123651  0  0.963451  0  0  0.132494  0  1.025372  0  0  0.135631  0  1.022552  0  0  0.128779  0.13032  0  1.0271  0
H  H8  1  0.77781612  0.48650390  0.22963566  1  0  0.093765  0  0.957767  0  0  0.10128  0  1.023905  0  0  0.104268  0  1.019662  0  0  0.137108  0.099232  0  1.026478  0
H  H9  1  0.27781270  0.51349580  0.27036403  1  0  0.093783  0  0.957783  0  0  0.101265  0  1.023956  0  0  0.104252  0  1.019713  0  0  0.137099  0.099217  0  1.026531  0
H  H10  1  0.22218663  0.51349625  0.77036317  1  0  0.093743  0  0.957818  0  0  0.101256  0  1.023953  0  0  0.104243  0  1.019711  0  0  0.1371  0.099208  0  1.02653  0
H  H11  1  0.72218850  0.48650341  0.72963618  1  0  0.093792  0  0.957789  0  0  0.101256  0  1.023979  0  0  0.104241  0  1.019738  0  0  0.137102  0.099209  0  1.026557  0
H  H12  1  0.72435610  0.33059624  0.34397348  1  0  0.329688  0  0.851714  0  0  0.311788  0  0.906753  0  0  0.319437  0  0.901029  0  0  0.339459  0.306327  0  0.910961  0
H  H13  1  0.22435581  0.66940349  0.15602624  1  0  0.329656  0  0.851745  0  0  0.311756  0  0.90678  0  0  0.319405  0  0.901057  0  0  0.339467  0.306294  0  0.910989  0
H  H14  1  0.27564355  0.66940391  0.65602535  1  0  0.329664  0  0.851706  0  0  0.31176  0  0.906745  0  0  0.319408  0  0.901023  0  0  0.339469  0.3063  0  0.910954  0
H  H15  1  0.77564539  0.33059667  0.84397507  1  0  0.329669  0  0.851718  0  0  0.311763  0  0.906765  0  0  0.319412  0  0.901041  0  0  0.339458  0.306302  0  0.910975  0
H  H16  1  0.04166472  0.91302591  0.19660375  1  0  0.452712  0  0.835025  0  0  0.423017  0  0.895646  0  0  0.433597  0  0.880321  0  0  0.310526  0.415613  0  0.906567  0
H  H17  1  0.54166213  0.08697389  0.30339687  1  0  0.452706  0  0.835042  0  0  0.423011  0  0.895662  0  0  0.433589  0  0.880339  0  0  0.310514  0.415606  0  0.906585  0
H  H18  1  0.95833493  0.08697425  0.80339673  1  0  0.452699  0  0.83504  0  0  0.423005  0  0.895659  0  0  0.433583  0  0.880335  0  0  0.310525  0.415602  0  0.906579  0
H  H19  1  0.45833598  0.91302532  0.69660334  1  0  0.452693  0  0.835048  0  0  0.423002  0  0.89566  0  0  0.433579  0  0.88034  0  0  0.310521  0.415597  0  0.906584  0
H  H20  1  0.06863103  0.03352887  0.31272179  1  0  0.456567  0  0.831749  0  0  0.424707  0  0.895937  0  0  0.436533  0  0.878781  0  0  0.309013  0.416398  0  0.908212  0
H  H21  1  0.56862799  0.96646997  0.18727773  1  0  0.45654  0  0.831793  0  0  0.424644  0  0.896016  0  0  0.436471  0  0.878859  0  0  0.308984  0.416335  0  0.908291  0
H  H22  1  0.93136863  0.96647222  0.68727814  1  0  0.456555  0  0.831771  0  0  0.424661  0  0.895991  0  0  0.436489  0  0.878832  0  0  0.309003  0.416354  0  0.908263  0
H  H23  1  0.43136857  0.03352830  0.81272221  1  0  0.456542  0  0.83179  0  0  0.424651  0  0.896002  0  0  0.436478  0  0.878844  0  0  0.309  0.416342  0  0.908277  0
C  C24  1  0.73929962  0.48748297  0.49690776  1  0  0.036946  0  3.609793  0  0  -0.018961  0  3.88066  0  0  -0.011695  0  3.895143  0  0  0.026863  -0.023292  0  3.869944  0
C  C25  1  0.23930116  0.51251769  0.00309223  1  0  0.036932  0  3.60979  0  0  -0.018977  0  3.880645  0  0  -0.011711  0  3.895125  0  0  0.026869  -0.023305  0  3.869923  0
C  C26  1  0.26069849  0.51251718  0.50309108  1  0  0.036863  0  3.609782  0  0  -0.019044  0  3.88063  0  0  -0.011781  0  3.895111  0  0  0.026854  -0.023357  0  3.869915  0
C  C27  1  0.76070004  0.48748246  0.99690826  1  0  0.036909  0  3.609772  0  0  -0.018999  0  3.880626  0  0  -0.011737  0  3.895105  0  0  0.026852  -0.023327  0  3.869903  0
C  C28  1  0.77183735  0.51118452  0.32299745  1  0  0.265441  0  3.644833  0  0  0.204598  0  3.9259  0  0  0.219089  0  3.938071  0  0  0.159433  0.195452  0  3.918652  0
C  C29  1  0.27183716  0.48881519  0.17700225  1  0  0.265465  0  3.644884  0  0  0.204641  0  3.925949  0  0  0.219132  0  3.938121  0  0  0.159476  0.195492  0  3.918704  0
C  C30  1  0.22816385  0.48881563  0.67700138  1  0  0.265522  0  3.644949  0  0  0.204665  0  3.926018  0  0  0.219157  0  3.938191  0  0  0.159514  0.19552  0  3.918768  0
C  C31  1  0.72816559  0.51118497  0.82299823  1  0  0.265444  0  3.644933  0  0  0.204631  0  3.926001  0  0  0.219122  0  3.938174  0  0  0.159456  0.195482  0  3.91876  0
C  C32  1  0.76755211  0.61321804  0.50777298  1  0  -0.022235  0  3.818916  0  0  -0.016805  0  4.076941  0  0  -0.023787  0  4.10117  0  0  0.064895  -0.012462  0  4.062926  0
C  C33  1  0.26755470  0.38678348  0.99222689  1  0  -0.022247  0  3.819017  0  0  -0.016773  0  4.076964  0  0  -0.023754  0  4.101191  0  0  0.064894  -0.012432  0  4.06295  0
C  C34  1  0.23244599  0.38678305  0.49222612  1  0  -0.022199  0  3.818893  0  0  -0.016744  0  4.076857  0  0  -0.02372  0  4.101073  0  0  0.064895  -0.012441  0  4.062894  0
C  C35  1  0.73244805  0.61321761  0.00777304  1  0  -0.022249  0  3.818889  0  0  -0.016784  0  4.076871  0  0  -0.023759  0  4.101087  0  0  0.064898  -0.012441  0  4.062855  0
C  C36  1  0.77915800  0.72779631  0.60857634  1  0  0.715287  0  3.885959  0  0  0.665294  0  4.178383  0  0  0.702969  0  4.1691  0  0  0.233284  0.640006  0  4.186997  0
C  C37  1  0.27915924  0.27220426  0.89142326  1  0  0.715213  0  3.88607  0  0  0.665228  0  4.178469  0  0  0.702904  0  4.169186  0  0  0.233268  0.63994  0  4.187083  0
C  C38  1  0.22084165  0.27220384  0.39142332  1  0  0.715248  0  3.886004  0  0  0.665282  0  4.178374  0  0  0.702959  0  4.169089  0  0  0.233286  0.640005  0  4.186993  0
C  C39  1  0.72084196  0.72779589  0.10857640  1  0  0.71527  0  3.885956  0  0  0.665257  0  4.178395  0  0  0.702932  0  4.169111  0  0  0.233276  0.639967  0  4.187009  0
S  S40  1  0.32215426  0.83621393  0.46012194  1  0  1.651951  0  5.790182  0  0  1.530246  0  6.329004  0  0  1.58769  0  6.300679  0  0  0.584931  1.490253  0  6.355955  0
S  S41  1  0.82215347  0.16378576  0.03987773  1  0  1.651924  0  5.790126  0  0  1.530207  0  6.328965  0  0  1.587656  0  6.300636  0  0  0.584899  1.490215  0  6.355916  0
S  S42  1  0.67784694  0.16378622  0.53987772  1  0  1.651982  0  5.790095  0  0  1.530263  0  6.32894  0  0  1.58771  0  6.300612  0  0  0.58492  1.490273  0  6.355897  0
S  S43  1  0.17784773  0.83621346  0.96012248  1  0  1.651992  0  5.789919  0  0  1.530291  0  6.328751  0  0  1.587739  0  6.300417  0  0  0.584962  1.490299  0  6.355704  0
N  N44  1  0.74379225  0.42539132  0.38016687  1  0  -0.268418  0  3.424963  0  0  -0.203018  0  3.671039  0  0  -0.218995  0  3.684045  0  0  -0.366985  -0.1921  0  3.661255  0
N  N45  1  0.24379361  0.57461029  0.11983420  1  0  -0.268422  0  3.424986  0  0  -0.203014  0  3.67105  0  0  -0.218991  0  3.684056  0  0  -0.36705  -0.192095  0  3.661262  0
N  N46  1  0.25620585  0.57460977  0.61983306  1  0  -0.268328  0  3.42492  0  0  -0.202905  0  3.670979  0  0  -0.218881  0  3.683988  0  0  -0.366983  -0.191985  0  3.661185  0
N  N47  1  0.75620759  0.42539082  0.88016737  1  0  -0.268377  0  3.424958  0  0  -0.202961  0  3.671005  0  0  -0.218936  0  3.684013  0  0  -0.366971  -0.192044  0  3.661219  0
N  N48  1  0.78797450  0.62597629  0.39826728  1  0  -0.514815  0  3.269234  0  0  -0.46822  0  3.55206  0  0  -0.494072  0  3.572229  0  0  -0.43289  -0.457325  0  3.539523  0
N  N49  1  0.28797447  0.37402436  0.10173267  1  0  -0.51483  0  3.26926  0  0  -0.468249  0  3.552066  0  0  -0.494102  0  3.572233  0  0  -0.432891  -0.457357  0  3.539535  0
N  N50  1  0.21202670  0.37402481  0.60173182  1  0  -0.514932  0  3.269272  0  0  -0.468359  0  3.552115  0  0  -0.494212  0  3.572281  0  0  -0.432973  -0.457455  0  3.539596  0
N  N51  1  0.71202828  0.62597580  0.89826781  1  0  -0.514825  0  3.26927  0  0  -0.468244  0  3.552071  0  0  -0.494095  0  3.572238  0  0  -0.432914  -0.457351  0  3.53954  0
O  O52  1  0.72508800  0.72283564  0.70758424  1  0  -0.721033  0  2.03591  0  0  -0.671314  0  2.299404  0  0  -0.70818  0  2.284889  0  0  -0.404755  -0.653383  0  2.306456  0
O  O53  1  0.22508781  0.27716496  0.79241620  1  0  -0.720979  0  2.035917  0  0  -0.671282  0  2.299436  0  0  -0.708151  0  2.284921  0  0  -0.40474  -0.653353  0  2.306487  0
O  O54  1  0.27491475  0.27716357  0.29241515  1  0  -0.720985  0  2.035906  0  0  -0.671288  0  2.299414  0  0  -0.708159  0  2.284898  0  0  -0.404761  -0.653355  0  2.306461  0
O  O55  1  0.77491339  0.72283519  0.20758428  1  0  -0.721009  0  2.03586  0  0  -0.671305  0  2.299402  0  0  -0.708175  0  2.284887  0  0  -0.404763  -0.653374  0  2.306453  0
O  O56  1  0.84449953  0.82686535  0.58712203  1  0  -0.719642  0  2.045476  0  0  -0.662618  0  2.289984  0  0  -0.697579  0  2.275452  0  0  -0.361676  -0.644723  0  2.298348  0
O  O57  1  0.34449771  0.17313426  0.91287726  1  0  -0.719605  0  2.04551  0  0  -0.662587  0  2.290008  0  0  -0.697549  0  2.275476  0  0  -0.361669  -0.644693  0  2.298372  0
O  O58  1  0.15550322  0.17313480  0.41287762  1  0  -0.719642  0  2.045515  0  0  -0.662637  0  2.290009  0  0  -0.697598  0  2.275476  0  0  -0.361654  -0.644742  0  2.298372  0
O  O59  1  0.65550040  0.82686495  0.08712212  1  0  -0.719615  0  2.045486  0  0  -0.66259  0  2.289998  0  0  -0.697548  0  2.275466  0  0  -0.361661  -0.644697  0  2.298364  0
O  O60  1  0.51011340  0.86333356  0.40267980  1  0  -0.79359  0  2.022926  0  0  -0.739886  0  2.300216  0  0  -0.772223  0  2.2769  0  0  -0.42669  -0.724479  0  2.313394  0
O  O61  1  0.01011353  0.13666531  0.09732140  1  0  -0.793526  0  2.022887  0  0  -0.739814  0  2.300162  0  0  -0.77215  0  2.276846  0  0  -0.42664  -0.724406  0  2.313338  0
O  O62  1  0.48988780  0.13666660  0.59732068  1  0  -0.793559  0  2.022881  0  0  -0.739866  0  2.300183  0  0  -0.772201  0  2.276866  0  0  -0.426672  -0.724458  0  2.31336  0
O  O63  1  0.98988922  0.86333201  0.90267828  1  0  -0.793595  0  2.022804  0  0  -0.739908  0  2.300101  0  0  -0.772238  0  2.276782  0  0  -0.426717  -0.724499  0  2.313278  0
O  O64  1  0.37226879  0.80096704  0.56370200  1  0  -0.705459  0  1.965925  0  0  -0.647285  0  2.207407  0  0  -0.668855  0  2.191685  0  0  -0.316948  -0.631588  0  2.218086  0
O  O65  1  0.87226906  0.19903162  0.93629784  1  0  -0.705463  0  1.965952  0  0  -0.647286  0  2.207438  0  0  -0.668861  0  2.191716  0  0  -0.31692  -0.631581  0  2.218097  0
O  O66  1  0.62773241  0.19903123  0.43629712  1  0  -0.705485  0  1.965975  0  0  -0.647312  0  2.207459  0  0  -0.668885  0  2.191736  0  0  -0.316934  -0.631603  0  2.218115  0
O  O67  1  0.12773214  0.80096760  0.06370320  1  0  -0.705497  0  1.965965  0  0  -0.647316  0  2.207438  0  0  -0.668892  0  2.191716  0  0  -0.316949  -0.631612  0  2.218099  0
O  O68  1  0.19446679  0.73706533  0.37515054  1  0  -0.810859  0  1.946266  0  0  -0.762437  0  2.216698  0  0  -0.792924  0  2.198497  0  0  -0.411673  -0.747116  0  2.2284  0
O  O69  1  0.69446430  0.26293535  0.12485028  1  0  -0.810819  0  1.946162  0  0  -0.762431  0  2.216659  0  0  -0.792919  0  2.198459  0  0  -0.411683  -0.747112  0  2.22836  0
O  O70  1  0.80553441  0.26293576  0.62485021  1  0  -0.81086  0  1.946184  0  0  -0.762422  0  2.216602  0  0  -0.79291  0  2.198402  0  0  -0.411665  -0.747103  0  2.228305  0
O  O71  1  0.30553536  0.73706292  0.87515049  1  0  -0.810823  0  1.946096  0  0  -0.762414  0  2.21655  0  0  -0.7929  0  2.198348  0  0  -0.411655  -0.747093  0  2.22825  0
O  O72  1  0.18082029  0.94977004  0.49192742  1  0  -0.909277  0  2.157007  0  0  -0.843187  0  2.439155  0  0  -0.884323  0  2.422024  0  0  -0.480822  -0.826315  0  2.450503  0
O  O73  1  0.68081807  0.05022782  0.00807261  1  0  -0.909346  0  2.157012  0  0  -0.843209  0  2.439081  0  0  -0.884344  0  2.42195  0  0  -0.480839  -0.826338  0  2.450428  0
O  O74  1  0.81918091  0.05022917  0.50807114  1  0  -0.909342  0  2.157038  0  0  -0.84319  0  2.439082  0  0  -0.884327  0  2.421951  0  0  -0.480833  -0.826321  0  2.450428  0
O  O75  1  0.31918313  0.94976950  0.99192707  1  0  -0.90933  0  2.157034  0  0  -0.843222  0  2.43913  0  0  -0.884358  0  2.421997  0  0  -0.48084  -0.826352  0  2.450476  0
O  O76  1  0.99019918  0.95408503  0.27629941  1  0  -0.929254  0  1.860481  0  0  -0.880888  0  2.059939  0  0  -0.909675  0  2.019294  0  0  -0.655024  -0.867982  0  2.083936  0
O  O77  1  0.49019767  0.04591554  0.22370129  1  0  -0.929242  0  1.86053  0  0  -0.880834  0  2.060072  0  0  -0.909619  0  2.01943  0  0  -0.654989  -0.867926  0  2.084071  0
O  O78  1  0.00980047  0.04591701  0.72370079  1  0  -0.92923  0  1.860525  0  0  -0.880835  0  2.060079  0  0  -0.90962  0  2.019437  0  0  -0.65501  -0.86793  0  2.084074  0
O  O79  1  0.50979888  0.95408367  0.77629810  1  0  -0.929206  0  1.860537  0  0  -0.880814  0  2.060087  0  0  -0.909596  0  2.019449  0  0  -0.654997  -0.867906  0  2.084088  0
