# generated using pymatgen
data_MnV2H3C4(NO3)2
_symmetry_space_group_name_H-M   'P 1'
_cell_length_a   5.92733992
_cell_length_b   8.29000905
_cell_length_c   10.21836636
_cell_angle_alpha   66.05660466
_cell_angle_beta   87.65763512
_cell_angle_gamma   84.19877047
_symmetry_Int_Tables_number   1
_chemical_formula_structural   MnV2H3C4(NO3)2
_chemical_formula_sum   'Mn2 V4 H6 C8 N4 O12'
_cell_volume   456.54890076
_cell_formula_units_Z   2
loop_
 _symmetry_equiv_pos_site_id
 _symmetry_equiv_pos_as_xyz
  1  'x, y, z'
loop_
 _atom_site_type_symbol
 _atom_site_label
 _atom_site_symmetry_multiplicity
 _atom_site_fract_x
 _atom_site_fract_y
 _atom_site_fract_z
 _atom_site_occupancy
 _atom_site_pbe_cm5_charge
 _atom_site_pbe_ddec_charge
 _atom_site_pbe_ddec_spin_density
 _atom_site_pbe_ddec_sum_bond_order
 _atom_site_pbe_magmom
Mn  Mn0  1  0.99985415  0.65981763  0.68049569  1  0.665366  1.150962  -4.296929  2.746595  -4.133
Mn  Mn1  1  0.00014637  0.34018177  0.31950412  1  0.665365  1.15094  -4.29694  2.746619  -4.133
V  V2  1  0.76845703  0.71770510  0.36374926  1  1.452781  1.984356  -0.256854  3.376783  -0.297
V  V3  1  0.23145027  0.91836630  0.36371877  1  1.453102  1.985055  -0.257402  3.375392  -0.297
V  V4  1  0.23154333  0.28229617  0.63625000  1  1.45275  1.984378  -0.256861  3.376741  -0.297
V  V5  1  0.76855009  0.08163498  0.63628049  1  1.453108  1.985086  -0.257393  3.375341  -0.297
H  H6  1  0.56773974  0.82258173  0.99994595  1  0.126275  0.137784  -0.000982  0.975473  -0.001
H  H7  1  0.43225909  0.17741771  0.00005383  1  0.126279  0.13781  -0.000982  0.975478  -0.001
H  H8  1  0.40524931  0.84012514  0.76777013  1  0.133773  0.113325  1.9e-05  1.011015  0.0
H  H9  1  0.59476066  0.39201410  0.76781682  1  0.133351  0.112914  2.2e-05  1.011682  0.0
H  H10  1  0.59474767  0.15987524  0.23223004  1  0.13377  0.113335  1.9e-05  1.011018  0.0
H  H11  1  0.40524001  0.60798538  0.23218159  1  0.133354  0.112911  2.2e-05  1.011682  0.0
C  C12  1  0.34122390  0.75589117  0.87211598  1  0.093165  0.170847  -0.005371  3.833384  -0.005
C  C13  1  0.65879380  0.37191203  0.87214747  1  0.093155  0.170755  -0.005365  3.833782  -0.005
C  C14  1  0.65877631  0.24410904  0.12788567  1  0.09317  0.170808  -0.005371  3.833466  -0.005
C  C15  1  0.34120672  0.62808639  0.12785332  1  0.093114  0.170721  -0.005365  3.833743  -0.005
C  C16  1  0.09382386  0.55229407  0.99998581  1  0.270196  0.277655  -0.009155  3.995204  -0.008
C  C17  1  0.90617313  0.44770631  0.00001435  1  0.270185  0.277678  -0.009154  3.995276  -0.008
C  C18  1  0.43063098  0.74463454  0.99996154  1  -0.058711  -0.153134  -0.002706  3.868325  -0.002
C  C19  1  0.56936785  0.25536490  0.00003823  1  -0.058768  -0.153227  -0.002707  3.868373  -0.002
N  N20  1  0.17256378  0.65899952  0.87273811  1  -0.291892  -0.278534  -0.033465  3.428551  -0.019
N  N21  1  0.82753564  0.46812150  0.87278634  1  -0.2918  -0.278118  -0.033446  3.428287  -0.019
N  N22  1  0.82743320  0.34100183  0.12726108  1  -0.291864  -0.278476  -0.033465  3.42864  -0.019
N  N23  1  0.17246335  0.53187704  0.12721300  1  -0.291813  -0.278137  -0.033445  3.428183  -0.019
O  O24  1  0.79274343  0.62703537  0.54276800  1  -0.593444  -0.855548  -0.017243  1.856054  0.011
O  O25  1  0.20720920  0.82996650  0.54272465  1  -0.593488  -0.855258  -0.017222  1.856541  0.011
O  O26  1  0.20725877  0.37296497  0.45723087  1  -0.593434  -0.855546  -0.017242  1.856059  0.011
O  O27  1  0.79279117  0.17003380  0.45727559  1  -0.593515  -0.855275  -0.017224  1.856555  0.011
O  O28  1  0.99977709  0.85369051  0.29284336  1  -0.689358  -0.985635  -0.009546  1.825645  -0.001
O  O29  1  0.00022158  0.14631080  0.70715586  1  -0.689343  -0.985639  -0.009546  1.825612  -0.001
O  O30  1  0.78600087  0.55810387  0.30167075  1  -0.604284  -0.849896  -0.02364  1.855579  0.002
O  O31  1  0.21400209  0.14010691  0.30172330  1  -0.60468  -0.850613  -0.023555  1.855461  0.002
O  O32  1  0.21399949  0.44189740  0.69832851  1  -0.604285  -0.849917  -0.023641  1.855574  0.002
O  O33  1  0.78599828  0.85989338  0.69827694  1  -0.604667  -0.850603  -0.023554  1.855419  0.002
O  O34  1  0.49989984  0.84652356  0.30659030  1  -0.693468  -0.996873  -0.006573  1.880157  0.002
O  O35  1  0.50010052  0.15347674  0.69340995  1  -0.693448  -0.996891  -0.006573  1.880158  0.002
