# generated using pymatgen
data_CuH12C10S2(NO4)2
_symmetry_space_group_name_H-M   'P 1'
_cell_length_a   8.96012874
_cell_length_b   8.95326174
_cell_length_c   9.56761342
_cell_angle_alpha   114.93734774
_cell_angle_beta   90.00044580
_cell_angle_gamma   90.00045010
_symmetry_Int_Tables_number   1
_chemical_formula_structural   CuH12C10S2(NO4)2
_chemical_formula_sum   'Cu2 H24 C20 S4 N4 O16'
_cell_volume   695.97877134
_cell_formula_units_Z   2
loop_
 _symmetry_equiv_pos_site_id
 _symmetry_equiv_pos_as_xyz
  1  'x, y, z'
loop_
 _atom_site_type_symbol
 _atom_site_label
 _atom_site_symmetry_multiplicity
 _atom_site_fract_x
 _atom_site_fract_y
 _atom_site_fract_z
 _atom_site_occupancy
 _atom_site_hle17_ddec_charge
 _atom_site_hle17_ddec_spin_density
 _atom_site_hle17_ddec_sum_bond_order
 _atom_site_hle17_magmom
 _atom_site_hse06_10hf_ddec_charge
 _atom_site_hse06_10hf_ddec_spin_density
 _atom_site_hse06_10hf_ddec_sum_bond_order
 _atom_site_hse06_10hf_magmom
 _atom_site_hse06_ddec_charge
 _atom_site_hse06_ddec_spin_density
 _atom_site_hse06_ddec_sum_bond_order
 _atom_site_hse06_magmom
 _atom_site_pbe_cm5_charge
 _atom_site_pbe_ddec_charge
 _atom_site_pbe_ddec_spin_density
 _atom_site_pbe_ddec_sum_bond_order
 _atom_site_pbe_magmom
Cu  Cu0  1  0.49999936  0.00000116  0.50000057  1  0.907613  0.714853  1.738808  0.534  0.883161  0.789479  2.114883  0.642  0.966119  0.848188  2.052886  0.718  0.748515  0.832017  0.750576  2.158209  0.595
Cu  Cu1  1  0.00000196  0.50000033  0.00000030  1  0.907567  0.714839  1.738726  0.534  0.883081  0.789482  2.114832  0.642  0.966034  0.848184  2.05281  0.718  0.748484  0.831849  0.750547  2.158208  0.595
H  H2  1  0.64479590  0.74765230  0.21412460  1  0.098443  0.001027  0.936386  0.002  0.104065  0.000765  1.003608  0.001  0.105989  0.000527  1.00176  0.001  0.123433  0.10262  0.001063  1.004901  0.002
H  H3  1  0.14479670  0.75234442  0.28587577  1  0.098457  0.001033  0.936398  0.002  0.104095  0.000765  1.00359  0.001  0.106013  0.000527  1.00175  0.001  0.123425  0.102652  0.001063  1.004883  0.002
H  H4  1  0.35520563  0.25235067  0.78587819  1  0.098448  0.001043  0.936412  0.002  0.104053  0.000764  1.003639  0.001  0.105978  0.000528  1.00179  0.001  0.12344  0.102609  0.001063  1.00493  0.002
H  H5  1  0.85520594  0.24765609  0.71412709  1  0.098444  0.001038  0.936401  0.002  0.104112  0.000764  1.003582  0.001  0.106037  0.000526  1.001733  0.001  0.123446  0.102666  0.001063  1.004873  0.002
H  H6  1  0.39231002  0.76997710  0.83846535  1  0.123475  0.000479  0.954736  0.001  0.13237  0.000128  1.014998  0.0  0.135622  4.3e-05  1.012202  0.0  0.11608  0.129871  0.000149  1.017317  0.0
H  H7  1  0.89231869  0.73002713  0.66153849  1  0.123416  0.000484  0.95463  0.001  0.132296  0.000128  1.014915  0.0  0.135549  4.3e-05  1.012117  0.0  0.116037  0.129794  0.000149  1.017232  0.0
H  H8  1  0.60768927  0.23002219  0.16153388  1  0.123464  0.000473  0.954773  0.001  0.132358  0.000128  1.015031  0.0  0.135609  4.3e-05  1.012236  0.0  0.116068  0.129859  0.000149  1.017348  0.0
H  H9  1  0.10767837  0.26997338  0.33846228  1  0.123393  0.000472  0.954586  0.001  0.132258  0.000128  1.014901  0.0  0.135509  4.3e-05  1.012106  0.0  0.116033  0.129758  0.000149  1.017216  0.0
H  H10  1  0.22380878  0.97427163  0.03364714  1  0.127384  0.00059  0.923545  0.0  0.137243  0.000656  0.976697  0.001  0.141312  0.000458  0.974809  0.0  0.116558  0.134166  0.000824  0.97846  0.001
H  H11  1  0.72381280  0.52573110  0.46635514  1  0.127368  0.000592  0.923663  0.001  0.137247  0.000656  0.976796  0.001  0.141314  0.000457  0.974908  0.0  0.116548  0.134173  0.000824  0.978563  0.001
H  H12  1  0.77619051  0.02572766  0.96635209  1  0.127385  0.000578  0.923545  0.0  0.137244  0.000655  0.9767  0.001  0.141312  0.000457  0.974812  0.0  0.11657  0.134166  0.000824  0.978465  0.001
H  H13  1  0.27618538  0.47427067  0.53364298  1  0.127344  0.000596  0.923676  0.001  0.13721  0.000655  0.97683  0.001  0.14128  0.000457  0.974939  0.0  0.11653  0.134141  0.000824  0.978598  0.001
H  H14  1  0.27678327  0.05734227  0.31430206  1  0.098615  0.001183  0.946589  0.002  0.104444  0.000837  1.013595  0.002  0.106072  0.000544  1.011481  0.001  0.122747  0.103218  0.001092  1.014977  0.002
H  H15  1  0.77678376  0.44265683  0.18569673  1  0.09859  0.001178  0.946593  0.002  0.104429  0.000836  1.013592  0.002  0.106056  0.000545  1.011478  0.001  0.122739  0.103199  0.001093  1.014975  0.002
H  H16  1  0.72321379  0.94265702  0.68569718  1  0.098615  0.001208  0.946592  0.002  0.104437  0.000837  1.013607  0.002  0.106065  0.000545  1.011492  0.001  0.122752  0.103211  0.001092  1.014986  0.002
H  H17  1  0.22321777  0.55734493  0.81430140  1  0.098545  0.0012  0.946649  0.002  0.104417  0.000838  1.013601  0.002  0.106042  0.000545  1.011492  0.001  0.122744  0.103191  0.001093  1.014981  0.002
H  H18  1  0.48046173  0.68069180  0.40196193  1  0.436093  -0.000638  0.863367  -0.001  0.409073  0.000261  0.921404  0.001  0.420145  9.6e-05  0.905767  0.0  0.297814  0.400889  0.000614  0.932937  0.001
H  H19  1  0.98046610  0.81930334  0.09803292  1  0.436107  -0.000639  0.863358  -0.001  0.409023  0.000261  0.921495  0.001  0.420095  9.5e-05  0.905857  0.0  0.297776  0.400835  0.000613  0.933033  0.001
H  H20  1  0.51953645  0.31930872  0.59803675  1  0.4361  -0.000641  0.863358  -0.001  0.409083  0.000261  0.921391  0.001  0.420154  9.5e-05  0.905754  0.0  0.297818  0.400898  0.000614  0.932925  0.001
H  H21  1  0.01953543  0.18069717  0.90196784  1  0.436109  -0.000641  0.863354  -0.001  0.409025  0.000261  0.921492  0.001  0.420097  9.5e-05  0.905855  0.0  0.29777  0.400835  0.000613  0.933031  0.001
H  H22  1  0.41350619  0.78155628  0.56913651  1  0.417909  -0.000849  0.891476  -0.002  0.388667  -2.8e-05  0.953652  0.0  0.400137  -0.000248  0.937379  -0.001  0.292497  0.380612  0.000154  0.964987  0.0
H  H23  1  0.91351254  0.71844581  0.93086036  1  0.417778  -0.000845  0.891613  -0.002  0.388548  -2.8e-05  0.953806  0.0  0.400022  -0.000248  0.937521  -0.001  0.292407  0.380489  0.000154  0.965143  0.0
H  H24  1  0.58649311  0.21844424  0.43086322  1  0.417847  -0.000847  0.891541  -0.002  0.3886  -2.7e-05  0.953737  0.0  0.400072  -0.000248  0.937457  -0.001  0.292469  0.380545  0.000154  0.965071  0.0
H  H25  1  0.08648676  0.28155471  0.06914041  1  0.417758  -0.000847  0.891643  -0.002  0.388526  -2.8e-05  0.95384  0.0  0.400001  -0.000249  0.937554  -0.001  0.292405  0.380468  0.000154  0.965176  0.0
C  C26  1  0.55339654  0.79512057  0.16968048  1  0.137024  -0.013017  3.665307  -0.008  0.09495  -0.002415  3.922  -0.001  0.106738  -0.00418  3.939193  -0.003  0.053303  0.087293  -0.001154  3.91051  0.0
C  C27  1  0.05339958  0.70487739  0.33031554  1  0.137033  -0.013052  3.665127  -0.008  0.094945  -0.002432  3.921823  -0.001  0.106739  -0.004176  3.939013  -0.003  0.053291  0.087262  -0.001156  3.91031  0.0
C  C28  1  0.44660163  0.20487871  0.83031979  1  0.137018  -0.013047  3.665326  -0.008  0.094949  -0.002419  3.922027  -0.001  0.106736  -0.004178  3.939215  -0.003  0.053326  0.087285  -0.001154  3.910528  0.0
C  C29  1  0.94660306  0.29512189  0.66968474  1  0.136993  -0.013081  3.665107  -0.008  0.094861  -0.002426  3.92182  -0.001  0.106649  -0.00417  3.939009  -0.003  0.053239  0.087197  -0.001155  3.910308  0.0
C  C30  1  0.52976098  0.74246416  0.01235033  1  -0.155791  0.011239  3.712294  0.013  -0.124035  0.003898  3.956906  0.005  -0.13643  0.003403  3.978472  0.004  -0.009713  -0.116524  0.004111  3.942167  0.005
C  C31  1  0.02976573  0.75753959  0.48765828  1  -0.155962  0.011233  3.712248  0.013  -0.124191  0.003901  3.956827  0.005  -0.136592  0.003409  3.978399  0.004  -0.009675  -0.116596  0.004112  3.94198  0.005
C  C32  1  0.47023943  0.25753759  0.98765092  1  -0.155783  0.011194  3.712206  0.012  -0.124034  0.003898  3.956824  0.005  -0.136425  0.003408  3.978383  0.004  -0.009695  -0.116502  0.004112  3.942056  0.005
C  C33  1  0.97023468  0.24246092  0.51234249  1  -0.155919  0.011245  3.712331  0.013  -0.124138  0.003908  3.956915  0.005  -0.136543  0.003399  3.978494  0.004  -0.009702  -0.116613  0.004112  3.942148  0.005
C  C34  1  0.41183719  0.80779859  0.96087890  1  0.006812  -0.015616  3.671826  -0.01  -0.027548  -0.004852  3.923063  -0.003  -0.020711  -0.005416  3.93895  -0.003  -0.05589  -0.031904  -0.004455  3.912792  -0.003
C  C35  1  0.91184342  0.69220102  0.53911488  1  0.006938  -0.015604  3.671817  -0.01  -0.027378  -0.004856  3.922999  -0.003  -0.020544  -0.005414  3.938892  -0.003  -0.055885  -0.031756  -0.004454  3.912706  -0.003
C  C36  1  0.58816323  0.19220070  0.03912138  1  0.006798  -0.015547  3.671827  -0.01  -0.027548  -0.004851  3.92305  -0.003  -0.020714  -0.005411  3.938937  -0.003  -0.055884  -0.031912  -0.004455  3.912776  -0.003
C  C37  1  0.08815476  0.30780195  0.46088687  1  0.007002  -0.015558  3.671861  -0.01  -0.027304  -0.004856  3.923047  -0.003  -0.020468  -0.005408  3.938943  -0.003  -0.055826  -0.031664  -0.004453  3.912773  -0.003
C  C38  1  0.31800380  0.92187835  0.06912492  1  -0.079908  0.011758  3.670374  0.013  -0.092029  0.00404  3.92584  0.005  -0.099674  0.003583  3.944257  0.004  -0.069656  -0.087326  0.004388  3.913929  0.005
C  C39  1  0.81800793  0.57812072  0.43087868  1  -0.079916  0.011741  3.670425  0.013  -0.092058  0.004043  3.925867  0.005  -0.099703  0.003582  3.944286  0.004  -0.069596  -0.08736  0.004389  3.913967  0.005
C  C40  1  0.68199549  0.07812094  0.93087431  1  -0.079886  0.011784  3.670376  0.013  -0.092011  0.004043  3.92583  0.005  -0.099655  0.003578  3.944247  0.004  -0.069679  -0.08731  0.004388  3.913918  0.005
C  C41  1  0.18199136  0.42188227  0.56912203  1  -0.079914  0.011738  3.670446  0.013  -0.092046  0.004043  3.9259  0.005  -0.099691  0.003579  3.944315  0.004  -0.069606  -0.087354  0.004389  3.914004  0.005
C  C42  1  0.34647520  0.96866875  0.22473370  1  0.146781  -0.013579  3.629336  -0.009  0.114652  -0.003125  3.886657  -0.002  0.126199  -0.004803  3.903187  -0.003  0.055602  0.107122  -0.001709  3.875816  -0.001
C  C43  1  0.84647656  0.53133074  0.27526295  1  0.146815  -0.013538  3.629307  -0.009  0.114676  -0.003127  3.886606  -0.002  0.126222  -0.004799  3.903139  -0.003  0.055609  0.107149  -0.00171  3.87576  -0.001
C  C44  1  0.65352297  0.03133055  0.77526449  1  0.146734  -0.013668  3.629398  -0.009  0.114615  -0.003131  3.886676  -0.002  0.12616  -0.004796  3.903208  -0.003  0.055593  0.107086  -0.001709  3.87583  -0.001
C  C45  1  0.15352274  0.46867225  0.72473775  1  0.146928  -0.013636  3.629236  -0.009  0.114769  -0.003133  3.886557  -0.002  0.126316  -0.004793  3.903086  -0.003  0.05565  0.107234  -0.00171  3.875708  -0.001
S  S46  1  0.64835714  0.59265946  0.87407986  1  1.312439  0.000149  5.656659  0.0  1.210961  0.000158  6.1815  0.0  1.259982  -6e-06  6.157641  0.0  0.516347  1.178049  0.000779  6.195124  0.001
S  S47  1  0.14838238  0.90733664  0.62589807  1  1.312419  0.000123  5.656594  0.0  1.210933  0.000165  6.181457  0.0  1.259962  -3e-06  6.157601  0.0  0.516428  1.178  0.000779  6.195074  0.001
S  S48  1  0.35164216  0.40733983  0.12592041  1  1.312469  0.000168  5.656694  0.0  1.210984  0.000173  6.181537  0.0  1.260005  -4e-06  6.15768  0.0  0.516336  1.178068  0.00078  6.195161  0.001
S  S49  1  0.85161915  0.09266264  0.37410221  1  1.312401  0.000159  5.656591  0.0  1.210921  0.000165  6.181437  0.0  1.259953  3e-06  6.157582  0.0  0.516404  1.178012  0.000779  6.195055  0.001
N  N50  1  0.46276256  0.90740261  0.27336957  1  -0.30625  0.084539  3.325852  0.11  -0.256656  0.05278  3.622362  0.073  -0.288765  0.042591  3.644668  0.063  -0.350612  -0.236759  0.058324  3.609204  0.077
N  N51  1  0.96276176  0.59259598  0.22662966  1  -0.306156  0.084524  3.325885  0.11  -0.256545  0.052779  3.622397  0.073  -0.288644  0.042584  3.644685  0.063  -0.350601  -0.236641  0.058322  3.609232  0.077
N  N52  1  0.53723562  0.09259791  0.72663016  1  -0.306206  0.084537  3.325911  0.11  -0.256584  0.052783  3.622381  0.073  -0.288691  0.042589  3.644685  0.063  -0.350628  -0.236694  0.058326  3.609227  0.077
N  N53  1  0.03723865  0.40740454  0.77337110  1  -0.306227  0.084542  3.325826  0.11  -0.256635  0.052776  3.622404  0.073  -0.288733  0.042583  3.644689  0.063  -0.350625  -0.236716  0.058322  3.609216  0.077
O  O54  1  0.71627240  0.49777532  0.95023395  1  -0.682864  -0.001316  1.997317  0.0  -0.648355  -0.001457  2.279058  0.0  -0.671672  -0.001721  2.265126  0.0  -0.340009  -0.632638  -0.001156  2.287504  0.0
O  O55  1  0.21628490  0.00221847  0.54976620  1  -0.682789  -0.001298  1.997954  0.0  -0.648277  -0.001451  2.279684  0.0  -0.671598  -0.001735  2.265744  0.0  -0.339985  -0.63257  -0.001159  2.288137  0.0
O  O56  1  0.28372578  0.50222519  0.04976786  1  -0.682931  -0.001317  1.997351  0.0  -0.648429  -0.001463  2.279118  0.0  -0.671751  -0.001728  2.265184  0.0  -0.340042  -0.632709  -0.001157  2.287557  0.0
O  O57  1  0.78371551  0.99777959  0.45023254  1  -0.682764  -0.001312  1.997886  0.0  -0.648287  -0.001459  2.27966  0.0  -0.671612  -0.001732  2.265725  0.0  -0.339972  -0.632581  -0.001158  2.288106  0.0
O  O58  1  0.75920507  0.68872977  0.83118551  1  -0.675691  0.000786  1.992441  0.001  -0.616436  0.000297  2.233219  0.001  -0.63945  0.000124  2.220568  0.0  -0.334005  -0.60007  0.000357  2.240626  0.001
O  O59  1  0.25922211  0.81126898  0.66881101  1  -0.675625  0.00079  1.992605  0.001  -0.616324  0.000298  2.233361  0.001  -0.639317  0.000124  2.220667  0.0  -0.333988  -0.599961  0.000357  2.240771  0.001
O  O60  1  0.24079422  0.31126828  0.16881324  1  -0.67567  0.000789  1.992398  0.001  -0.6164  0.000298  2.233173  0.001  -0.639414  0.000121  2.220526  0.0  -0.333984  -0.600036  0.000357  2.240584  0.001
O  O61  1  0.74077830  0.18873031  0.33118822  1  -0.675584  0.000786  1.992559  0.001  -0.616286  0.000299  2.233328  0.001  -0.639267  0.000125  2.220608  0.0  -0.333977  -0.59992  0.000357  2.240731  0.001
O  O62  1  0.54831749  0.49880848  0.74556558  1  -0.662526  0.002896  1.984623  0.004  -0.604875  0.001777  2.227442  0.003  -0.626186  0.001067  2.21252  0.002  -0.334  -0.590643  0.001472  2.237094  0.002
O  O63  1  0.04832499  0.00119535  0.75443839  1  -0.662641  0.002903  1.983572  0.004  -0.605034  0.001772  2.226443  0.003  -0.626346  0.001068  2.211515  0.002  -0.334146  -0.590803  0.001473  2.2361  0.002
O  O64  1  0.45167957  0.50119204  0.25443623  1  -0.662513  0.002897  1.984663  0.004  -0.604863  0.001773  2.227484  0.003  -0.626174  0.001068  2.212562  0.002  -0.333989  -0.590631  0.001472  2.23714  0.002
O  O65  1  0.95167765  0.99880640  0.24556286  1  -0.662684  0.002894  1.983616  0.004  -0.605066  0.001773  2.226473  0.003  -0.62638  0.001068  2.211544  0.002  -0.33415  -0.590834  0.001473  2.236124  0.002
O  O66  1  0.50147338  0.77671693  0.50196803  1  -0.795729  0.072961  1.949666  0.099  -0.768071  0.051544  2.162625  0.075  -0.802372  0.03984  2.13206  0.063  -0.574724  -0.743966  0.059862  2.184113  0.083
O  O67  1  0.00148576  0.72329188  0.99802958  1  -0.795636  0.072963  1.949725  0.099  -0.76792  0.051546  2.162628  0.075  -0.802231  0.039842  2.132091  0.063  -0.574651  -0.743799  0.05987  2.184114  0.083
O  O68  1  0.49852592  0.22328359  0.49803169  1  -0.79568  0.072961  1.949702  0.099  -0.768016  0.051543  2.162627  0.075  -0.802324  0.039839  2.13207  0.063  -0.574697  -0.743912  0.059862  2.184114  0.083
O  O69  1  0.99851465  0.27670864  0.00197119  1  -0.795625  0.072968  1.949737  0.099  -0.767905  0.051546  2.16264  0.075  -0.802216  0.039844  2.132102  0.063  -0.574645  -0.743783  0.059872  2.184125  0.083
