# generated using pymatgen
data_Zn2H22C20O13
_symmetry_space_group_name_H-M   'P 1'
_cell_length_a   7.47257995
_cell_length_b   11.36914908
_cell_length_c   13.52940000
_cell_angle_alpha   77.25939879
_cell_angle_beta   85.51842680
_cell_angle_gamma   73.68966907
_symmetry_Int_Tables_number   1
_chemical_formula_structural   Zn2H22C20O13
_chemical_formula_sum   'Zn4 H44 C40 O26'
_cell_volume   1075.83438968
_cell_formula_units_Z   2
loop_
 _symmetry_equiv_pos_site_id
 _symmetry_equiv_pos_as_xyz
  1  'x, y, z'
loop_
 _atom_site_type_symbol
 _atom_site_label
 _atom_site_symmetry_multiplicity
 _atom_site_fract_x
 _atom_site_fract_y
 _atom_site_fract_z
 _atom_site_occupancy
 _atom_site_hle17_bader_spin_density
 _atom_site_hle17_ddec_charge
 _atom_site_hle17_ddec_spin_density
 _atom_site_hle17_ddec_sum_bond_order
 _atom_site_hle17_magmom
 _atom_site_hse06_10hf_bader_spin_density
 _atom_site_hse06_10hf_ddec_charge
 _atom_site_hse06_10hf_ddec_spin_density
 _atom_site_hse06_10hf_ddec_sum_bond_order
 _atom_site_hse06_10hf_magmom
 _atom_site_hse06_bader_spin_density
 _atom_site_hse06_ddec_charge
 _atom_site_hse06_ddec_spin_density
 _atom_site_hse06_ddec_sum_bond_order
 _atom_site_hse06_magmom
 _atom_site_pbe_bader_charge
 _atom_site_pbe_bader_spin_density
 _atom_site_pbe_cm5_charge
 _atom_site_pbe_ddec_charge
 _atom_site_pbe_ddec_spin_density
 _atom_site_pbe_ddec_sum_bond_order
 _atom_site_pbe_magmom
Zn  Zn0  1  0.64088841  0.83981363  0.07080978  1  0  1.209271  0  1.685745  0  0  1.042028  0  2.151757  0  0  1.091286  0  2.086197  0  1.367819  0  0.691041  1.007147  0  2.1973  0
Zn  Zn1  1  0.35910981  0.16018587  0.92919195  1  0  1.209256  0  1.685748  0  0  1.042053  0  2.151759  0  0  1.091308  0  2.0862  0  1.367781  0  0.691056  1.007176  0  2.1973  0
Zn  Zn2  1  0.26038370  0.61131394  0.92220361  1  0  1.212173  0  1.662224  0  0  1.046067  0  2.123094  0  0  1.094883  0  2.059351  0  1.368832  0  0.695322  1.011467  0  2.167386  0
Zn  Zn3  1  0.73961683  0.38868649  0.07779489  1  0  1.212152  0  1.662281  0  0  1.046016  0  2.123192  0  0  1.094829  0  2.059447  0  1.368796  0  0.695297  1.011417  0  2.167484  0
H  H4  1  0.98630816  0.85712302  0.01468760  1  0  0.42856  0  0.872399  0  0  0.396694  0  0.938098  0  0  0.407167  0  0.922802  0  0.640537  0  0.295997  0.389301  0  0.94889  0
H  H5  1  0.01368968  0.14287741  0.98531323  1  0  0.428559  0  0.872398  0  0  0.396686  0  0.938112  0  0  0.407161  0  0.922812  0  0.640514  0  0.295981  0.389298  0  0.948901  0
H  H6  1  0.90434968  0.94823153  0.08913116  1  0  0.416206  0  0.890946  0  0  0.38435  0  0.957527  0  0  0.395541  0  0.941373  0  0.641131  0  0.289344  0.376431  0  0.968939  0
H  H7  1  0.09565123  0.05176797  0.91086897  1  0  0.416204  0  0.890928  0  0  0.384349  0  0.957522  0  0  0.39554  0  0.94137  0  0.641127  0  0.289341  0.37643  0  0.968935  0
H  H8  1  0.30680120  0.87594262  0.99990162  1  0  0.425587  0  0.866728  0  0  0.394093  0  0.939044  0  0  0.404154  0  0.924218  0  0.648498  0  0.300217  0.386969  0  0.94955  0
H  H9  1  0.69320163  0.12405875  0.00009882  1  0  0.425502  0  0.866774  0  0  0.394038  0  0.93911  0  0  0.4041  0  0.924282  0  0.648494  0  0.300189  0.386914  0  0.949616  0
H  H10  1  0.34105958  0.74898898  0.07600776  1  0  0.426774  0  0.877169  0  0  0.396275  0  0.940582  0  0  0.406452  0  0.925911  0  0.65017  0  0.295778  0.389069  0  0.950971  0
H  H11  1  0.65893654  0.25101238  0.92399223  1  0  0.426734  0  0.87722  0  0  0.396245  0  0.940618  0  0  0.406423  0  0.925946  0  0.650162  0  0.295754  0.38904  0  0.951006  0
H  H12  1  0.87418933  0.71740937  0.91820830  1  0  0.427361  0  0.880669  0  0  0.395378  0  0.946451  0  0  0.406163  0  0.930741  0  0.65335  0  0.292516  0.387744  0  0.95757  0
H  H13  1  0.12580814  0.28259199  0.08179089  1  0  0.427367  0  0.880664  0  0  0.395403  0  0.946417  0  0  0.406187  0  0.930711  0  0.653365  0  0.292525  0.38777  0  0.957534  0
H  H14  1  0.90784350  0.59725545  0.00261959  1  0  0.426077  0  0.863533  0  0  0.400428  0  0.925145  0  0  0.409693  0  0.91162  0  0.647379  0  0.298503  0.393873  0  0.934733  0
H  H15  1  0.09215779  0.40274310  0.99737626  1  0  0.426067  0  0.86351  0  0  0.40043  0  0.92514  0  0  0.409699  0  0.91161  0  0.647293  0  0.298526  0.393875  0  0.93473  0
H  H16  1  0.18878146  0.26470737  0.23372022  1  0  0.10212  0  0.955174  0  0  0.11392  0  1.015384  0  0  0.116497  0  1.013918  0  0.10549  0  0.108239  0.112062  0  1.016435  0
H  H17  1  0.81122062  0.73529587  0.76628064  1  0  0.102081  0  0.955105  0  0  0.113889  0  1.015312  0  0  0.116421  0  1.013906  0  0.105507  0  0.108218  0.112029  0  1.016373  0
H  H18  1  0.08859196  0.25152953  0.41474092  1  0  0.118686  0  0.957338  0  0  0.124088  0  1.025738  0  0  0.128551  0  1.023033  0  0.102087  0  0.105874  0.120834  0  1.027883  0
H  H19  1  0.91140496  0.74847652  0.58525595  1  0  0.11873  0  0.957174  0  0  0.124087  0  1.025623  0  0  0.12855  0  1.022918  0  0.102179  0  0.105876  0.120837  0  1.02777  0
H  H20  1  0.38574407  0.85888337  0.48109654  1  0  0.106753  0  0.9616  0  0  0.119135  0  1.020169  0  0  0.1224  0  1.018942  0  0.065913  0  0.104217  0.116822  0  1.021117  0
H  H21  1  0.61424366  0.14112549  0.51890538  1  0  0.106676  0  0.961604  0  0  0.119036  0  1.020212  0  0  0.122294  0  1.018989  0  0.06543  0  0.104169  0.116723  0  1.02116  0
H  H22  1  0.49163632  0.87412231  0.30141755  1  0  0.107618  0  0.940957  0  0  0.118362  0  0.999691  0  0  0.121827  0  0.996911  0  0.106189  0  0.108348  0.115832  0  1.00172  0
H  H23  1  0.50835598  0.12588187  0.69858578  1  0  0.107575  0  0.940928  0  0  0.118346  0  0.999645  0  0  0.12181  0  0.996869  0  0.106066  0  0.108369  0.115816  0  1.001672  0
H  H24  1  0.36640017  0.91068225  0.63745516  1  0  0.047635  0  0.953442  0  0  0.060647  0  1.022649  0  0  0.059188  0  1.025214  0  0.083498  0  0.09778  0.061615  0  1.02092  0
H  H25  1  0.63359717  0.08932942  0.36254139  1  0  0.047528  0  0.953515  0  0  0.060569  0  1.022726  0  0  0.05911  0  1.025292  0  0.083434  0  0.097763  0.061538  0  1.020998  0
H  H26  1  0.16334504  0.87042734  0.60951860  1  0  0.053945  0  0.937556  0  0  0.066822  0  1.004321  0  0  0.067106  0  1.003612  0  0.05241  0  0.099897  0.066533  0  1.004939  0
H  H27  1  0.83665724  0.12957871  0.39047803  1  0  0.053884  0  0.937596  0  0  0.066837  0  1.004297  0  0  0.067123  0  1.003586  0  0.052201  0  0.099905  0.066549  0  1.004916  0
H  H28  1  0.16951220  0.05416820  0.74492109  1  0  0.12853  0  0.917619  0  0  0.145261  0  0.971368  0  0  0.147315  0  0.970734  0  0.074019  0  0.112652  0.143797  0  0.971895  0
H  H29  1  0.83048393  0.94583317  0.25508186  1  0  0.128533  0  0.917659  0  0  0.145293  0  0.971338  0  0  0.147343  0  0.970712  0  0.074031  0  0.112655  0.143828  0  0.971867  0
H  H30  1  0.96963442  0.01408191  0.71768049  1  0  0.118259  0  0.936087  0  0  0.133339  0  0.995124  0  0  0.134142  0  0.997247  0  0.0865  0  0.107505  0.13274  0  0.993763  0
H  H31  1  0.03036074  0.98591852  0.28232045  1  0  0.118261  0  0.936107  0  0  0.133324  0  0.995152  0  0  0.134127  0  0.997273  0  0.086549  0  0.107501  0.132723  0  0.993794  0
H  H32  1  0.53413833  0.65598896  0.69955597  1  0  0.101428  0  0.955432  0  0  0.109948  0  1.019669  0  0  0.113394  0  1.017186  0  0.098901  0  0.104875  0.107417  0  1.021558  0
H  H33  1  0.46586388  0.34400398  0.30044458  1  0  0.101373  0  0.955459  0  0  0.109948  0  1.01965  0  0  0.113393  0  1.017165  0  0.098704  0  0.104904  0.107417  0  1.021539  0
H  H34  1  0.60753032  0.64376390  0.51913325  1  0  0.105848  0  0.962015  0  0  0.11833  0  1.020019  0  0  0.121704  0  1.018598  0  0.060729  0  0.103654  0.115948  0  1.021126  0
H  H35  1  0.39246996  0.35622716  0.48086772  1  0  0.105881  0  0.961999  0  0  0.118391  0  1.01996  0  0  0.121765  0  1.018539  0  0.060649  0  0.103688  0.116008  0  1.02107  0
H  H36  1  0.94069935  0.26182091  0.61360000  1  0  0.120278  0  0.949176  0  0  0.126503  0  1.014896  0  0  0.131245  0  1.011793  0  0.06417  0  0.106375  0.123119  0  1.017219  0
H  H37  1  0.05931133  0.73817764  0.38639988  1  0  0.120215  0  0.949174  0  0  0.126464  0  1.014871  0  0  0.131204  0  1.011772  0  0.064268  0  0.106366  0.123081  0  1.017194  0
H  H38  1  0.87589483  0.27828245  0.79455959  1  0  0.112187  0  0.962671  0  0  0.119932  0  1.025844  0  0  0.123627  0  1.022757  0  0.158342  0  0.104822  0.117231  0  1.02809  0
H  H39  1  0.12411816  0.72171705  0.20543780  1  0  0.112187  0  0.962666  0  0  0.119927  0  1.025847  0  0  0.123622  0  1.02276  0  0.15831  0  0.10484  0.117228  0  1.028086  0
H  H40  1  0.80304378  0.61714776  0.38155256  1  0  0.056628  0  0.938729  0  0  0.068103  0  1.006008  0  0  0.068456  0  1.005292  0  0.088733  0  0.101023  0.067815  0  1.006533  0
H  H41  1  0.19695596  0.38284799  0.61845201  1  0  0.056609  0  0.938752  0  0  0.0681  0  1.006043  0  0  0.06845  0  1.005325  0  0.088766  0  0.101028  0.067812  0  1.006567  0
H  H42  1  0.59748803  0.56513340  0.38335973  1  0  0.044781  0  0.95757  0  0  0.057622  0  1.025961  0  0  0.056278  0  1.028408  0  0.078972  0  0.096457  0.058489  0  1.024354  0
H  H43  1  0.40251687  0.43485954  0.61664292  1  0  0.04475  0  0.957564  0  0  0.057629  0  1.025945  0  0  0.056276  0  1.028405  0  0.078967  0  0.096419  0.058499  0  1.024329  0
H  H44  1  0.96827642  0.46614591  0.27464255  1  0  0.124444  0  0.923514  0  0  0.140904  0  0.979686  0  0  0.141824  0  0.98155  0  0.080824  0  0.110694  0.140224  0  0.978534  0
H  H45  1  0.03172679  0.53385452  0.72535878  1  0  0.124428  0  0.923612  0  0  0.140907  0  0.979762  0  0  0.141826  0  0.981627  0  0.080861  0  0.11071  0.140228  0  0.978607  0
H  H46  1  0.77325341  0.40599962  0.28010468  1  0  0.119784  0  0.945803  0  0  0.131899  0  1.010499  0  0  0.134592  0  1.008772  0  0.091376  0  0.105714  0.129967  0  1.011814  0
H  H47  1  0.22675362  0.59399800  0.71989553  1  0  0.119787  0  0.945703  0  0  0.131902  0  1.010423  0  0  0.134598  0  1.008693  0  0.091316  0  0.105708  0.129972  0  1.011734  0
C  C48  1  0.40470692  0.07371199  0.14822560  1  0  0.706412  0  3.842891  0  0  0.649552  0  4.131287  0  0  0.68661  0  4.12134  0  1.537403  0  0.228092  0.62425  0  4.137505  0
C  C49  1  0.59530318  0.92628469  0.85177539  1  0  0.706409  0  3.842784  0  0  0.64957  0  4.131163  0  0  0.686623  0  4.121219  0  1.537363  0  0.22814  0.624267  0  4.137384  0
C  C50  1  0.34540378  0.06955141  0.25555326  1  0  -0.122476  0  3.79586  0  0  -0.101668  0  4.037535  0  0  -0.113365  0  4.060543  0  0.044157  0  -0.036094  -0.094105  0  4.022094  0
C  C51  1  0.65458853  0.93045277  0.74444859  1  0  -0.122211  0  3.795719  0  0  -0.101499  0  4.037505  0  0  -0.113196  0  4.060504  0  0.043917  0  -0.036075  -0.093936  0  4.022064  0
C  C52  1  0.23112809  0.17591665  0.28782765  1  0  -0.037497  0  3.748954  0  0  -0.063654  0  3.999954  0  0  -0.059619  0  4.019143  0  -0.110841  0  -0.082057  -0.066048  0  3.986805  0
C  C53  1  0.76886056  0.82408659  0.71217306  1  0  -0.037567  0  3.748849  0  0  -0.063699  0  3.999874  0  0  -0.05963  0  4.019081  0  -0.110605  0  -0.082051  -0.06609  0  3.986717  0
C  C54  1  0.17555852  0.16948606  0.38849733  1  0  -0.194323  0  3.736607  0  0  -0.213123  0  3.994966  0  0  -0.220762  0  4.013136  0  -0.012561  0  -0.104097  -0.208136  0  3.982869  0
C  C55  1  0.82443571  0.83051999  0.61150187  1  0  -0.19426  0  3.736422  0  0  -0.213077  0  3.994669  0  0  -0.220714  0  4.012824  0  -0.012445  0  -0.10409  -0.208097  0  3.982584  0
C  C56  1  0.22976615  0.05502448  0.45864534  1  0  0.292472  0  3.813175  0  0  0.278703  0  4.076722  0  0  0.293299  0  4.091086  0  0.4652  0  0.090906  0.268748  0  4.066879  0
C  C57  1  0.77022330  0.94498344  0.54135593  1  0  0.292058  0  3.813355  0  0  0.278629  0  4.076536  0  0  0.293224  0  4.090898  0  0.466098  0  0.090851  0.268663  0  4.066705  0
C  C58  1  0.34360612  0.94791206  0.42739797  1  0  -0.210933  0  3.759048  0  0  -0.232131  0  4.017199  0  0  -0.239706  0  4.036243  0  -0.005839  0  -0.109389  -0.227214  0  4.00442  0
C  C59  1  0.65638065  0.05209587  0.57260417  1  0  -0.210672  0  3.758905  0  0  -0.23192  0  4.016984  0  0  -0.239486  0  4.036025  0  -0.005758  0  -0.109312  -0.227001  0  4.004207  0
C  C60  1  0.40238576  0.95637376  0.32650529  1  0  -0.033636  0  3.74033  0  0  -0.05738  0  3.989438  0  0  -0.052706  0  4.006379  0  -0.073373  0  -0.079109  -0.060237  0  3.977908  0
C  C61  1  0.59761058  0.04363042  0.67350008  1  0  -0.033693  0  3.740122  0  0  -0.057463  0  3.989344  0  0  -0.05279  0  4.006283  0  -0.073224  0  -0.079109  -0.060322  0  3.977815  0
C  C62  1  0.21378653  0.94335518  0.63071273  1  0  0.125529  0  3.619651  0  0  0.05946  0  3.89519  0  0  0.069209  0  3.900221  0  0.376559  0  -0.069651  0.052888  0  3.891572  0
C  C63  1  0.78621059  0.05665368  0.36928361  1  0  0.125779  0  3.619502  0  0  0.05966  0  3.895089  0  0  0.069405  0  3.900118  0  0.376786  0  -0.069518  0.053078  0  3.891475  0
C  C64  1  0.12156895  0.97813229  0.72767549  1  0  -0.311658  0  3.677878  0  0  -0.351711  0  3.929112  0  0  -0.358818  0  3.937221  0  -0.018255  0  -0.16807  -0.346869  0  3.923583  0
C  C65  1  0.87842621  0.02186814  0.27232471  1  0  -0.311679  0  3.677913  0  0  -0.351728  0  3.929072  0  0  -0.358831  0  3.937174  0  -0.018321  0  -0.168119  -0.346886  0  3.923545  0
C  C66  1  0.15357941  0.87174175  0.81935396  1  0  0.742451  0  3.793331  0  0  0.686667  0  4.097368  0  0  0.720637  0  4.090315  0  1.553871  0  0.226576  0.663617  0  4.101318  0
C  C67  1  0.84642053  0.12825681  0.18064343  1  0  0.742327  0  3.79339  0  0  0.68659  0  4.097316  0  0  0.720559  0  4.090262  0  1.553626  0  0.226578  0.663542  0  4.101262  0
C  C68  1  0.65153538  0.47936404  0.86531928  1  0  0.672998  0  3.881746  0  0  0.61734  0  4.176257  0  0  0.653382  0  4.167842  0  1.559475  0  0.213024  0.592702  0  4.181533  0
C  C69  1  0.34846746  0.52063732  0.13467821  1  0  0.672931  0  3.88182  0  0  0.617319  0  4.176355  0  0  0.653358  0  4.167945  0  1.559353  0  0.212934  0.592681  0  4.181633  0
C  C70  1  0.69650395  0.46806272  0.75835290  1  0  -0.12682  0  3.791377  0  0  -0.104539  0  4.029544  0  0  -0.117093  0  4.054666  0  -0.046881  0  -0.040734  -0.096414  0  4.012681  0
C  C71  1  0.30350804  0.53192927  0.24164592  1  0  -0.126791  0  3.79134  0  0  -0.1047  0  4.029731  0  0  -0.117254  0  4.054855  0  -0.047151  0  -0.040769  -0.096574  0  4.01287  0
C  C72  1  0.62343547  0.57022241  0.67989983  1  0  -0.038946  0  3.765892  0  0  -0.061594  0  4.015128  0  0  -0.057796  0  4.034403  0  -0.065429  0  -0.082268  -0.063801  0  4.001994  0
C  C73  1  0.37657211  0.42977052  0.32009975  1  0  -0.038696  0  3.765874  0  0  -0.06132  0  4.015136  0  0  -0.057519  0  4.034407  0  -0.064952  0  -0.0822  -0.06353  0  4.002004  0
C  C74  1  0.66411605  0.56302078  0.57892370  1  0  -0.216242  0  3.76361  0  0  -0.236358  0  4.02119  0  0  -0.244195  0  4.040243  0  -0.007405  0  -0.111962  -0.23128  0  4.008409  0
C  C75  1  0.33588482  0.43697215  0.42107543  1  0  -0.216357  0  3.763648  0  0  -0.236502  0  4.021228  0  0  -0.24434  0  4.040278  0  -0.007295  0  -0.112023  -0.231424  0  4.008446  0
C  C76  1  0.77782440  0.45079643  0.55563508  1  0  0.291966  0  3.809036  0  0  0.276941  0  4.074784  0  0  0.292033  0  4.08827  0  0.471062  0  0.089366  0.266695  0  4.06558  0
C  C77  1  0.22217802  0.54919932  0.44436347  1  0  0.291927  0  3.809217  0  0  0.276927  0  4.074944  0  0  0.292019  0  4.088435  0  0.471001  0  0.089405  0.266686  0  4.065737  0
C  C78  1  0.85190431  0.34760058  0.63372578  1  0  -0.195234  0  3.73096  0  0  -0.21292  0  3.986679  0  0  -0.220576  0  4.003859  0  0.010088  0  -0.103813  -0.20796  0  3.975223  0
C  C79  1  0.14810251  0.65239423  0.36627274  1  0  -0.195175  0  3.730937  0  0  -0.212881  0  3.986632  0  0  -0.220541  0  4.003822  0  0.010075  0  -0.103825  -0.20792  0  3.975174  0
C  C80  1  0.81310909  0.35676305  0.73401915  1  0  -0.03024  0  3.718814  0  0  -0.053658  0  3.964168  0  0  -0.049192  0  3.982489  0  -0.110348  0  -0.081241  -0.056304  0  3.951649  0
C  C81  1  0.18689891  0.64323551  0.26597789  1  0  -0.030274  0  3.718658  0  0  -0.053615  0  3.964047  0  0  -0.049145  0  3.982359  0  -0.110371  0  -0.081234  -0.056262  0  3.951532  0
C  C82  1  0.75074457  0.53704452  0.37774248  1  0  0.120399  0  3.633723  0  0  0.056344  0  3.906702  0  0  0.065989  0  3.91199  0  0.374224  0  -0.070881  0.049902  0  3.902861  0
C  C83  1  0.24925747  0.46295216  0.62225738  1  0  0.120482  0  3.633573  0  0  0.056318  0  3.906721  0  0  0.065974  0  3.911999  0  0.37419  0  -0.070842  0.049884  0  3.902879  0
C  C84  1  0.81472873  0.49110756  0.28069743  1  0  -0.309609  0  3.680509  0  0  -0.350721  0  3.932793  0  0  -0.357831  0  3.940603  0  -0.04053  0  -0.166304  -0.345848  0  3.927444  0
C  C85  1  0.18527427  0.50889006  0.71930295  1  0  -0.309661  0  3.680391  0  0  -0.350763  0  3.932687  0  0  -0.357863  0  3.94047  0  -0.040451  0  -0.166342  -0.345885  0  3.927339  0
C  C86  1  0.74388993  0.59071899  0.18813712  1  0  0.733286  0  3.796103  0  0  0.680721  0  4.093493  0  0  0.714455  0  4.08807  0  1.537247  0  0.227541  0.657751  0  4.096462  0
C  C87  1  0.25610791  0.40928144  0.81186519  1  0  0.733287  0  3.79605  0  0  0.680743  0  4.093426  0  0  0.714483  0  4.088001  0  1.537256  0  0.227523  0.657764  0  4.09641  0
O  O88  1  0.55363093  0.99563748  0.12783437  1  0  -0.680563  0  2.138699  0  0  -0.607665  0  2.419603  0  0  -0.635608  0  2.402632  0  -1.215938  0  -0.323141  -0.588293  0  2.430847  0
O  O89  1  0.44637380  0.00435920  0.87216981  1  0  -0.680627  0  2.138384  0  0  -0.60779  0  2.419354  0  0  -0.635732  0  2.402383  0  -1.215859  0  -0.323229  -0.588413  0  2.43059  0
O  O90  1  0.30378351  0.15745024  0.07955071  1  0  -0.67016  0  2.129646  0  0  -0.587561  0  2.390506  0  0  -0.616811  0  2.373043  0  -1.180008  0  -0.306181  -0.567322  0  2.40212  0
O  O91  1  0.69621509  0.84254831  0.92045043  1  0  -0.67022  0  2.129812  0  0  -0.587535  0  2.390598  0  0  -0.616773  0  2.373125  0  -1.180078  0  -0.306174  -0.567294  0  2.402211  0
O  O92  1  0.16380974  0.05747531  0.55468631  1  0  -0.290568  0  2.316093  0  0  -0.216485  0  2.55431  0  0  -0.236154  0  2.55672  0  -1.079424  0  -0.176621  -0.202498  0  2.552002  0
O  O93  1  0.83617992  0.94253543  0.44531444  1  0  -0.290428  0  2.316208  0  0  -0.216628  0  2.554523  0  0  -0.23629  0  2.556928  0  -1.08007  0  -0.176679  -0.202625  0  2.55221  0
O  O94  1  0.11709187  0.89981470  0.90608633  1  0  -0.677675  0  2.056723  0  0  -0.605432  0  2.27704  0  0  -0.632128  0  2.265666  0  -1.210786  0  -0.311968  -0.586834  0  2.284452  0
O  O95  1  0.88290786  0.10018104  0.09391232  1  0  -0.677578  0  2.056673  0  0  -0.605382  0  2.276979  0  0  -0.632075  0  2.265602  0  -1.210577  0  -0.311938  -0.586785  0  2.284393  0
O  O96  1  0.21282526  0.75978721  0.80523380  1  0  -0.648084  0  2.032007  0  0  -0.5701  0  2.298915  0  0  -0.60035  0  2.285535  0  -1.162793  0  -0.308629  -0.549027  0  2.307449  0
O  O97  1  0.78717393  0.24021322  0.19476253  1  0  -0.648071  0  2.032127  0  0  -0.570049  0  2.29893  0  0  -0.600301  0  2.285554  0  -1.162759  0  -0.308633  -0.548974  0  2.307458  0
O  O98  1  0.54930156  0.58044728  0.88568645  1  0  -0.643925  0  2.036701  0  0  -0.588605  0  2.307958  0  0  -0.613176  0  2.292291  0  -1.193885  0  -0.322804  -0.571586  0  2.318362  0
O  O99  1  0.45070124  0.41954753  0.11431003  1  0  -0.643924  0  2.036399  0  0  -0.588643  0  2.307684  0  0  -0.613216  0  2.292023  0  -1.193801  0  -0.322809  -0.571623  0  2.318087  0
O  O100  1  0.72400113  0.38058079  0.93369253  1  0  -0.682424  0  2.127715  0  0  -0.598041  0  2.393964  0  0  -0.62729  0  2.376207  0  -1.183923  0  -0.318647  -0.577663  0  2.40564  0
O  O101  1  0.27600226  0.61941589  0.06630876  1  0  -0.68241  0  2.127969  0  0  -0.597993  0  2.39418  0  0  -0.627239  0  2.376424  0  -1.183987  0  -0.318584  -0.577605  0  2.405832  0
O  O102  1  0.82420977  0.43349922  0.45969553  1  0  -0.288679  0  2.31035  0  0  -0.214255  0  2.547486  0  0  -0.233993  0  2.549643  0  -1.078586  0  -0.177174  -0.200291  0  2.54543  0
O  O103  1  0.17579551  0.56649278  0.54030506  1  0  -0.288673  0  2.310466  0  0  -0.21423  0  2.547614  0  0  -0.233974  0  2.549775  0  -1.078577  0  -0.177157  -0.200278  0  2.545565  0
O  O104  1  0.73471529  0.56032451  0.10325426  1  0  -0.68717  0  2.093402  0  0  -0.610023  0  2.359905  0  0  -0.6389  0  2.343426  0  -1.189701  0  -0.315481  -0.58973  0  2.370509  0
O  O105  1  0.26528025  0.43967499  0.89674758  1  0  -0.687153  0  2.093409  0  0  -0.610068  0  2.359966  0  0  -0.638957  0  2.343483  0  -1.189762  0  -0.315499  -0.589771  0  2.370576  0
O  O106  1  0.69986367  0.70419312  0.19698529  1  0  -0.62018  0  2.016834  0  0  -0.544095  0  2.273363  0  0  -0.573771  0  2.260895  0  -1.154972  0  -0.302065  -0.523445  0  2.281266  0
O  O107  1  0.30014298  0.29580544  0.80301698  1  0  -0.620212  0  2.016782  0  0  -0.544118  0  2.273286  0  0  -0.57379  0  2.26081  0  -1.154914  0  -0.302085  -0.52347  0  2.281199  0
O  O108  1  0.91097618  0.86295870  0.07782595  1  0  -0.829461  0  1.909939  0  0  -0.768809  0  2.120257  0  0  -0.791161  0  2.084593  0  -1.253098  0  -0.579722  -0.752983  0  2.145052  0
O  O109  1  0.08902511  0.13703985  0.92217433  1  0  -0.829456  0  1.909949  0  0  -0.76879  0  2.120253  0  0  -0.791138  0  2.084584  0  -1.253079  0  -0.579687  -0.752971  0  2.145032  0
O  O110  1  0.36587729  0.83267477  0.06541614  1  0  -0.832743  0  1.912622  0  0  -0.774969  0  2.127288  0  0  -0.796612  0  2.092427  0  -1.263701  0  -0.577495  -0.759693  0  2.151469  0
O  O111  1  0.63411845  0.16732754  0.93458443  1  0  -0.832627  0  1.9127  0  0  -0.774895  0  2.127343  0  0  -0.796543  0  2.09249  0  -1.263675  0  -0.577458  -0.759618  0  2.151521  0
O  O112  1  0.96360091  0.63307903  0.93871670  1  0  -0.847139  0  1.887391  0  0  -0.790328  0  2.098572  0  0  -0.811456  0  2.065025  0  -1.286854  0  -0.586744  -0.775398  0  2.121901  0
O  O113  1  0.03639866  0.36692046  0.06128127  1  0  -0.847181  0  1.887396  0  0  -0.790369  0  2.098549  0  0  -0.811499  0  2.065004  0  -1.286743  0  -0.586784  -0.775438  0  2.121876  0
