# generated using pymatgen
data_ZnH7C12(NO2)2
_symmetry_space_group_name_H-M   'P 1'
_cell_length_a   9.76092814
_cell_length_b   11.01974279
_cell_length_c   14.49216158
_cell_angle_alpha   88.87201170
_cell_angle_beta   89.50213875
_cell_angle_gamma   89.91028330
_symmetry_Int_Tables_number   1
_chemical_formula_structural   ZnH7C12(NO2)2
_chemical_formula_sum   'Zn2 H14 C24 N4 O8'
_cell_volume   1558.45675068
_cell_formula_units_Z   2
loop_
 _symmetry_equiv_pos_site_id
 _symmetry_equiv_pos_as_xyz
  1  'x, y, z'
loop_
 _atom_site_type_symbol
 _atom_site_label
 _atom_site_symmetry_multiplicity
 _atom_site_fract_x
 _atom_site_fract_y
 _atom_site_fract_z
 _atom_site_occupancy
 _atom_site_pbe_bader_charge
 _atom_site_pbe_bader_spin_density
 _atom_site_pbe_cm5_charge
 _atom_site_pbe_ddec_charge
 _atom_site_pbe_ddec_spin_density
 _atom_site_pbe_ddec_sum_bond_order
 _atom_site_pbe_magmom
Zn  Zn0  1  0.63767477  0.49697125  0.50024881  1  1.272821  0  0.668129  0.812153  0  2.421401  0
Zn  Zn1  1  0.35116818  0.49615274  0.49624735  1  1.29817  0  0.670824  0.818337  0  2.4271  0
H  H2  1  0.29265323  0.88909206  0.43321858  1  0.081681  0  0.10022  0.102307  0  1.00955  0
H  H3  1  0.87936669  0.55727140  0.28479761  1  0.103257  0  0.125264  0.090478  0  0.935513  0
H  H4  1  0.86091784  0.78324047  0.38863430  1  0.397469  0  0.281344  0.262251  0  0.990379  0
H  H5  1  0.74151343  0.71666624  0.32830103  1  0.441327  0  0.28825  0.287362  0  0.96717  0
H  H6  1  0.68697772  0.88519075  0.70394381  1  0.379274  0  0.281019  0.266553  0  0.970502  0
H  H7  1  0.73831370  0.76471573  0.64922319  1  0.396763  0  0.277491  0.275302  0  0.981307  0
H  H8  1  0.13474497  0.57879775  0.28772865  1  0.118605  0  0.116656  0.150082  0  0.963661  0
H  H9  1  0.11841591  0.71395180  0.35316144  1  0.090706  0  0.116769  0.148808  0  0.958207  0
H  H10  1  0.29535881  0.11429301  0.43658180  1  0.111653  0  0.104022  0.109602  0  0.99442  0
H  H11  1  0.82730629  0.10937625  0.53690164  1  0.050049  0  0.093986  0.106976  0  0.991431  0
H  H12  1  0.74004350  0.09586609  0.64546917  1  0.080079  0  0.100874  0.118236  0  0.97302  0
H  H13  1  0.82450405  0.88504805  0.52285027  1  0.030404  0  0.099046  0.045628  0  0.970697  0
H  H14  1  0.12366441  0.40545070  0.62590888  1  0.148738  0  0.140776  0.1243  0  0.958423  0
H  H15  1  0.86530369  0.40864648  0.62854243  1  0.15994  0  0.138857  0.123139  0  0.967175  0
C  C16  1  0.49137593  0.73133207  0.49332803  1  1.539787  0  0.214044  0.593384  0  4.177583  0
C  C17  1  0.74506804  0.91890912  0.57031839  1  0.387864  0  0.010639  0.170807  0  3.902119  0
C  C18  1  0.06618805  0.54916475  0.43288688  1  0.601397  0  0.147706  0.213545  0  3.890674  0
C  C19  1  0.49654998  0.50717785  0.31652275  1  1.706116  0  0.217993  0.646188  0  4.274924  0
C  C20  1  0.06602884  0.44673032  0.56941687  1  0.529114  0  0.07075  0.051979  0  3.857612  0
C  C21  1  0.92310865  0.44797070  0.57070502  1  0.398308  0  0.067934  0.045742  0  3.856676  0
C  C22  1  0.92341997  0.54690561  0.43261529  1  0.472611  0  0.137999  0.106286  0  3.828213  0
C  C23  1  0.91497069  0.61664821  0.33962471  1  0.392275  0  0.026613  0.142742  0  3.882312  0
C  C24  1  0.07826904  0.62190438  0.34410126  1  -0.045344  0  -0.136528  -0.292244  0  3.788458  0
C  C25  1  0.49506089  0.26249070  0.49814547  1  1.556971  0  0.219009  0.605596  0  4.165492  0
C  C26  1  0.49220285  0.50322312  0.67939520  1  1.722262  0  0.217289  0.648111  0  4.270492  0
C  C27  1  0.48826092  0.51548507  0.77843782  1  -0.167281  0  -0.01164  -0.130937  0  3.845674  0
C  C28  1  0.49687172  0.52011935  0.21724835  1  0.243481  0  -0.013299  -0.138058  0  3.854599  0
C  C29  1  0.49349159  0.52764634  0.13266999  1  -0.424249  0  -0.02123  0.010156  0  4.281661  0
C  C30  1  0.49019431  0.53179136  0.04019983  1  0.020993  0  -0.007949  -0.009627  0  4.206544  0
C  C31  1  0.48800231  0.53062057  0.95505582  1  0.00248  0  -0.006826  -0.005579  0  4.20365  0
C  C32  1  0.48729045  0.52449527  0.86274103  1  0.00126  0  -0.020362  0.009771  0  4.276828  0
C  C33  1  0.60465094  0.93115995  0.52452109  1  -0.129788  0  -0.016101  -0.034631  0  3.891346  0
C  C34  1  0.49327242  0.86625973  0.49194739  1  0.026587  0  -0.017243  -0.062526  0  3.987562  0
C  C35  1  0.38179582  0.93619278  0.45963804  1  0.026953  0  -0.086115  -0.098149  0  3.986563  0
C  C36  1  0.38342931  0.06270069  0.46150877  1  -0.141756  0  -0.085519  -0.102546  0  3.980333  0
C  C37  1  0.49664922  0.12738282  0.49523311  1  -0.001797  0  -0.010042  -0.059805  0  3.954745  0
C  C38  1  0.60653882  0.05760348  0.52668691  1  0.050287  0  -0.006029  0.066312  0  3.908004  0
C  C39  1  0.74421596  0.06232097  0.57453042  1  -0.054174  0  -0.151667  -0.258126  0  3.851681  0
N  N40  1  0.14080730  0.49774774  0.49919270  1  -1.227505  0  -0.287581  -0.181644  0  3.461413  0
N  N41  1  0.84854112  0.49807976  0.50074866  1  -1.199467  0  -0.288366  -0.16784  0  3.477192  0
N  N42  1  0.84462480  0.73120512  0.33222820  1  -1.118041  0  -0.628332  -0.621699  0  3.183992  0
N  N43  1  0.75895414  0.85468465  0.65819045  1  -1.095969  0  -0.641761  -0.649443  0  3.170829  0
O  O44  1  0.60392724  0.67824939  0.51435686  1  -1.169115  0  -0.315519  -0.556086  0  2.355876  0
O  O45  1  0.37967510  0.67809508  0.47432228  1  -1.168183  0  -0.315999  -0.54277  0  2.325908  0
O  O46  1  0.60991617  0.52616282  0.35700868  1  -1.148094  0  -0.304391  -0.544846  0  2.272878  0
O  O47  1  0.38267172  0.47813094  0.35396108  1  -1.1383  0  -0.304527  -0.527447  0  2.253689  0
O  O48  1  0.61037360  0.31605161  0.48892656  1  -1.158097  0  -0.317309  -0.541165  0  2.30893  0
O  O49  1  0.37945399  0.31406860  0.50977717  1  -1.155831  0  -0.318728  -0.547729  0  2.318886  0
O  O50  1  0.60870608  0.47960038  0.64371175  1  -1.151733  0  -0.3113  -0.540938  0  2.250134  0
O  O51  1  0.37904047  0.51767341  0.63743144  1  -1.14496  0  -0.309139  -0.538301  0  2.257013  0
