# generated using pymatgen
data_CuH6C8N3
_symmetry_space_group_name_H-M   'P 1'
_cell_length_a   33.47966523
_cell_length_b   33.99464097
_cell_length_c   34.27408240
_cell_angle_alpha   89.61819895
_cell_angle_beta   90.15837943
_cell_angle_gamma   89.75277523
_symmetry_Int_Tables_number   1
_chemical_formula_structural   CuH6C8N3
_chemical_formula_sum   'Cu12 H72 C96 N36'
_cell_volume   39006.95260095
_cell_formula_units_Z   12
loop_
 _symmetry_equiv_pos_site_id
 _symmetry_equiv_pos_as_xyz
  1  'x, y, z'
loop_
 _atom_site_type_symbol
 _atom_site_label
 _atom_site_symmetry_multiplicity
 _atom_site_fract_x
 _atom_site_fract_y
 _atom_site_fract_z
 _atom_site_occupancy
 _atom_site_pbe_bader_charge
 _atom_site_pbe_bader_spin_density
 _atom_site_pbe_cm5_charge
 _atom_site_pbe_ddec_charge
 _atom_site_pbe_ddec_spin_density
 _atom_site_pbe_ddec_sum_bond_order
 _atom_site_pbe_magmom
Cu  Cu0  1  0.37810730  0.58699077  0.67251000  1  0.546363  0  0.48711  0.206665  0  2.11489  0
Cu  Cu1  1  0.34126589  0.62238999  0.59437647  1  0.54636  0  0.488686  0.210682  0  2.104953  0
Cu  Cu2  1  0.41956308  0.65960206  0.63112115  1  0.545597  0  0.488045  0.208384  0  2.109844  0
Cu  Cu3  1  0.62161008  0.91270701  0.17050002  1  0.542602  0  0.487442  0.206447  0  2.114151  0
Cu  Cu4  1  0.65931001  0.87674365  0.09385495  1  0.545584  0  0.489448  0.209838  0  2.110556  0
Cu  Cu5  1  0.57592131  0.84535562  0.12510222  1  0.545828  0  0.488027  0.208178  0  2.108523  0
Cu  Cu6  1  0.87541119  0.41126714  0.84669512  1  0.546524  0  0.489043  0.21022  0  2.106535  0
Cu  Cu7  1  0.83233891  0.36876396  0.91803271  1  0.544793  0  0.487204  0.207013  0  2.112313  0
Cu  Cu8  1  0.90694394  0.32888329  0.87817897  1  0.546213  0  0.488788  0.208689  0  2.114047  0
Cu  Cu9  1  0.12582403  0.09090390  0.34636065  1  0.546803  0  0.489365  0.209724  0  2.11114  0
Cu  Cu10  1  0.16367886  0.12647741  0.42317849  1  0.542758  0  0.487014  0.206176  0  2.11201  0
Cu  Cu11  1  0.09498863  0.17309897  0.37776422  1  0.546118  0  0.487586  0.208795  0  2.106443  0
H  H12  1  0.30608241  0.53219543  0.69962409  1  0.114896  0  0.122858  0.115055  0  0.984287  0
H  H13  1  0.26569217  0.56722012  0.58423044  1  0.111798  0  0.122656  0.113431  0  0.987572  0
H  H14  1  0.49303085  0.67296327  0.68825762  1  0.096334  0  0.122526  0.113847  0  0.988039  0
H  H15  1  0.44798306  0.56154615  0.73128086  1  0.091328  0  0.122683  0.115121  0  0.984791  0
H  H16  1  0.33068956  0.67613586  0.51888090  1  0.1141  0  0.122463  0.113402  0  0.988158  0
H  H17  1  0.44144708  0.72215067  0.56534268  1  0.120103  0  0.122596  0.115217  0  0.984857  0
H  H18  1  0.69311669  0.96751761  0.19817260  1  0.100014  0  0.122446  0.114966  0  0.984556  0
H  H19  1  0.73707231  0.92944710  0.08568651  1  0.100886  0  0.122828  0.114136  0  0.98592  0
H  H20  1  0.50175903  0.83232206  0.18151653  1  0.103326  0  0.12252  0.113846  0  0.987342  0
H  H21  1  0.55509384  0.93599089  0.23251535  1  0.134101  0  0.122486  0.115187  0  0.985011  0
H  H22  1  0.67174582  0.82119584  0.02091011  1  0.086984  0  0.12304  0.11378  0  0.987547  0
H  H23  1  0.55164608  0.78895753  0.05512215  1  0.073045  0  0.122769  0.115087  0  0.984924  0
H  H24  1  0.82493031  0.49024980  0.84155793  1  0.096991  0  0.122667  0.113509  0  0.987996  0
H  H25  1  0.77460380  0.43759927  0.94578436  1  0.08162  0  0.122158  0.114373  0  0.986642  0
H  H26  1  0.96622362  0.30579246  0.80979712  1  0.061028  0  0.122737  0.115169  0  0.98387  0
H  H27  1  0.93225931  0.42368532  0.77352198  1  0.118975  0  0.122668  0.114236  0  0.986345  0
H  H28  1  0.80443757  0.29775927  0.97322447  1  0.089687  0  0.122419  0.114838  0  0.984523  0
H  H29  1  0.92074007  0.25618789  0.93602089  1  0.092864  0  0.122795  0.114535  0  0.986906  0
H  H30  1  0.17767307  0.01312120  0.33793012  1  0.103104  0  0.123114  0.11437  0  0.987529  0
H  H31  1  0.21859407  0.05430887  0.45050349  1  0.093303  0  0.122442  0.11508  0  0.984873  0
H  H32  1  0.03698053  0.19849334  0.30787188  1  0.103796  0  0.122565  0.114728  0  0.985109  0
H  H33  1  0.06918448  0.08027066  0.27287647  1  0.085035  0  0.123187  0.113832  0  0.988063  0
H  H34  1  0.18852063  0.19126267  0.48514323  1  0.098744  0  0.122306  0.114847  0  0.984228  0
H  H35  1  0.08310311  0.24579134  0.43443710  1  0.09798  0  0.122466  0.113747  0  0.987702  0
H  H36  1  0.77605460  0.99740360  0.08949100  1  0.041704  0  0.100161  0.099705  0  0.987313  0
H  H37  1  0.83247650  0.02713175  0.15561011  1  0.092535  0  0.104247  0.100364  0  0.995281  0
H  H38  1  0.77325198  0.99090831  0.17910668  1  0.072285  0  0.103433  0.102904  0  0.984679  0
H  H39  1  0.82388692  0.05012346  0.06873861  1  0.075293  0  0.103238  0.113257  0  0.995418  0
H  H40  1  0.22695943  0.49903694  0.58913899  1  0.041245  0  0.100099  0.099911  0  0.98612  0
H  H41  1  0.16777329  0.47183186  0.65406846  1  0.084552  0  0.103938  0.099819  0  0.996684  0
H  H42  1  0.22656319  0.50812105  0.67848851  1  0.037369  0  0.103271  0.103216  0  0.984513  0
H  H43  1  0.17954314  0.44560859  0.56882702  1  0.077986  0  0.103232  0.113548  0  0.993579  0
H  H44  1  0.24587311  0.97366416  0.34089510  1  0.036673  0  0.100487  0.100203  0  0.987379  0
H  H45  1  0.27494026  0.91498648  0.40550894  1  0.091755  0  0.104163  0.10059  0  0.994969  0
H  H46  1  0.24024251  0.97431287  0.43056341  1  0.078402  0  0.10367  0.103363  0  0.985004  0
H  H47  1  0.29796297  0.92551074  0.31895800  1  0.075349  0  0.103658  0.114511  0  0.993606  0
H  H48  1  0.75607052  0.52895524  0.84215261  1  0.014912  0  0.100039  0.099431  0  0.986966  0
H  H49  1  0.72263588  0.58224839  0.90840478  1  0.071211  0  0.104479  0.101109  0  0.993733  0
H  H50  1  0.75515574  0.51994795  0.93160223  1  0.05944  0  0.103401  0.103637  0  0.985025  0
H  H51  1  0.70451615  0.57770126  0.82022947  1  0.060258  0  0.103486  0.113885  0  0.994556  0
H  H52  1  0.00062765  0.08443460  0.23589290  1  0.05354  0  0.10014  0.09979  0  0.987523  0
H  H53  1  0.97116337  0.14775441  0.17593805  1  0.097  0  0.103667  0.099104  0  0.99798  0
H  H54  1  0.00918990  0.17456979  0.23189840  1  0.084353  0  0.103564  0.103572  0  0.983628  0
H  H55  1  0.94673553  0.06138866  0.18998408  1  0.077029  0  0.103301  0.113877  0  0.994675  0
H  H56  1  0.52852604  0.67213428  0.75916162  1  0.0479  0  0.099991  0.099554  0  0.986712  0
H  H57  1  0.58784754  0.60746301  0.78903365  1  0.082963  0  0.103556  0.099419  0  0.995651  0
H  H58  1  0.52922360  0.58174668  0.75373766  1  0.052568  0  0.103366  0.10313  0  0.984344  0
H  H59  1  0.57573851  0.69418988  0.81242137  1  0.061872  0  0.103737  0.114588  0  0.993814  0
H  H60  1  0.99942291  0.41955514  0.73353243  1  0.039597  0  0.100442  0.10032  0  0.986423  0
H  H61  1  0.02854326  0.35432642  0.67644722  1  0.095573  0  0.103796  0.0998  0  0.996318  0
H  H62  1  0.99265043  0.32921106  0.73401660  1  0.072856  0  0.103375  0.102785  0  0.984184  0
H  H63  1  0.05268947  0.44124749  0.68600432  1  0.067985  0  0.103452  0.114666  0  0.994753  0
H  H64  1  0.46909069  0.82840295  0.25500275  1  0.060619  0  0.100626  0.100912  0  0.986481  0
H  H65  1  0.41366325  0.89380465  0.28885163  1  0.097725  0  0.103694  0.099666  0  0.996148  0
H  H66  1  0.47300286  0.91889231  0.25454071  1  0.037538  0  0.10293  0.102158  0  0.984551  0
H  H67  1  0.42284464  0.80577925  0.30959737  1  0.09075  0  0.104157  0.115534  0  0.99299  0
H  H68  1  0.91822374  0.22253274  0.00807587  1  0.043995  0  0.099878  0.099442  0  0.986747  0
H  H69  1  0.85384940  0.16238683  0.03575826  1  0.108942  0  0.103674  0.099115  0  0.997319  0
H  H70  1  0.82697479  0.21833552  0.99738662  1  0.077159  0  0.103217  0.102894  0  0.984868  0
H  H71  1  0.94014860  0.17772688  0.06340353  1  0.088702  0  0.103708  0.114506  0  0.994675  0
H  H72  1  0.32944569  0.74556288  0.48235912  1  0.082368  0  0.100231  0.100253  0  0.987778  0
H  H73  1  0.39512898  0.77917321  0.42715974  1  0.094643  0  0.103797  0.099838  0  0.994757  0
H  H74  1  0.42135627  0.74571992  0.48643574  1  0.07303  0  0.103491  0.103205  0  0.984009  0
H  H75  1  0.30536913  0.79829980  0.43524646  1  0.057436  0  0.103809  0.114938  0  0.992983  0
H  H76  1  0.66860533  0.75294641  0.98485525  1  0.026404  0  0.100263  0.100101  0  0.986284  0
H  H77  1  0.60536341  0.72489925  0.92412635  1  0.098865  0  0.103469  0.098939  0  0.998648  0
H  H78  1  0.57722063  0.76245627  0.97913090  1  0.041581  0  0.10352  0.103126  0  0.984405  0
H  H79  1  0.69239114  0.69889105  0.93991063  1  0.076569  0  0.103644  0.114825  0  0.994428  0
H  H80  1  0.08007829  0.27782066  0.50732341  1  0.055936  0  0.100543  0.100705  0  0.985732  0
H  H81  1  0.14705060  0.33116398  0.54151807  1  0.095403  0  0.103474  0.099265  0  0.996575  0
H  H82  1  0.17189875  0.27217197  0.50762596  1  0.055859  0  0.103264  0.102799  0  0.984992  0
H  H83  1  0.05747795  0.32418390  0.56116600  1  0.052996  0  0.103899  0.114679  0  0.993273  0
C  C84  1  0.30177518  0.54494986  0.67079213  1  0.403059  0  0.009299  -0.053716  0  3.945684  0
C  C85  1  0.27086739  0.53849621  0.64369040  1  0.022108  0  -0.037754  0.011359  0  4.129471  0
C  C86  1  0.28153100  0.56213042  0.61148523  1  0.381874  0  0.011659  -0.047474  0  3.938525  0
C  C87  1  0.47610344  0.64666612  0.69512210  1  0.432297  0  0.010623  -0.050436  0  3.939446  0
C  C88  1  0.48525025  0.61584283  0.72134043  1  -0.016637  0  -0.037643  0.012819  0  4.126557  0
C  C89  1  0.45354377  0.58927241  0.71640490  1  0.423318  0  0.008984  -0.054234  0  3.947369  0
C  C90  1  0.35686742  0.68366147  0.53598057  1  0.386014  0  0.011171  -0.048993  0  3.939695  0
C  C91  1  0.38727312  0.71096397  0.52772265  1  0.00538  0  -0.037923  0.012383  0  4.128104  0
C  C92  1  0.41392346  0.70652981  0.55929294  1  0.404859  0  0.008532  -0.056629  0  3.948695  0
C  C93  1  0.69829943  0.95404047  0.17000016  1  0.392672  0  0.009807  -0.054417  0  3.949326  0
C  C94  1  0.73014486  0.95961568  0.14385411  1  0.034991  0  -0.038114  0.012798  0  4.128753  0
C  C95  1  0.72037865  0.93529546  0.11213926  1  0.403328  0  0.010992  -0.050311  0  3.934514  0
C  C96  1  0.52055518  0.85673135  0.19012422  1  0.37333  0  0.01066  -0.050248  0  3.939302  0
C  C97  1  0.51414487  0.88525941  0.21906459  1  0.034903  0  -0.037596  0.012337  0  4.127661  0
C  C98  1  0.54732943  0.91028251  0.21551297  1  0.37349  0  0.00892  -0.055916  0  3.949609  0
C  C99  1  0.64311471  0.81691295  0.03506423  1  0.391657  0  0.011396  -0.048323  0  3.937438  0
C  C100  1  0.61054610  0.79357089  0.02354597  1  0.091019  0  -0.038141  0.011235  0  4.130833  0
C  C101  1  0.58141715  0.80113011  0.05209460  1  0.396426  0  0.010023  -0.053407  0  3.94508  0
C  C102  1  0.81608625  0.47149682  0.86575201  1  0.375403  0  0.010759  -0.049379  0  3.940054  0
C  C103  1  0.78867294  0.47894043  0.89592800  1  0.027987  0  -0.038136  0.011461  0  4.13083  0
C  C104  1  0.79104424  0.44495089  0.91949332  1  0.420654  0  0.009029  -0.054247  0  3.94731  0
C  C105  1  0.95365253  0.33510340  0.80633576  1  0.463755  0  0.009762  -0.054105  0  3.945477  0
C  C106  1  0.96087208  0.36340849  0.77706468  1  -0.000524  0  -0.037802  0.012581  0  4.128474  0
C  C107  1  0.93694910  0.39562850  0.78816052  1  0.401513  0  0.012292  -0.048564  0  3.931473  0
C  C108  1  0.83336184  0.29297931  0.95977298  1  0.372283  0  0.009209  -0.054184  0  3.945861  0
C  C109  1  0.86120029  0.26247031  0.96622446  1  0.040497  0  -0.037615  0.012395  0  4.12795  0
C  C110  1  0.89322038  0.27220852  0.94146903  1  0.409285  0  0.010222  -0.051349  0  3.940689  0
C  C111  1  0.18425507  0.02917322  0.36442813  1  0.3986  0  0.011046  -0.049573  0  3.938357  0
C  C112  1  0.20913669  0.01856960  0.39601220  1  0.010252  0  -0.037934  0.012041  0  4.130006  0
C  C113  1  0.20445085  0.04983070  0.42234482  1  0.414143  0  0.009321  -0.054878  0  3.950602  0
C  C114  1  0.04922968  0.16906980  0.30469218  1  0.396153  0  0.009855  -0.053243  0  3.946754  0
C  C115  1  0.04130337  0.14082272  0.27587074  1  -0.006601  0  -0.037565  0.011814  0  4.128775  0
C  C116  1  0.06500184  0.10835081  0.28722593  1  0.450435  0  0.011382  -0.048411  0  3.93842  0
C  C117  1  0.16228398  0.19944076  0.46819913  1  0.382719  0  0.008925  -0.054694  0  3.947868  0
C  C118  1  0.13716296  0.23249498  0.47187631  1  0.040162  0  -0.038302  0.01098  0  4.127544  0
C  C119  1  0.10784700  0.22683322  0.44294088  1  0.423074  0  0.010756  -0.049643  0  3.93624  0
C  C120  1  0.86976958  0.07549389  0.10520967  1  1.04402  0  0.236065  0.418266  0  4.069528  0
C  C121  1  0.92275605  0.09564850  0.14175772  1  1.078493  0  0.23634  0.419251  0  4.064859  0
C  C122  1  0.90493102  0.12981853  0.08691817  1  1.034747  0  0.237066  0.420034  0  4.066055  0
C  C123  1  0.13154160  0.42263312  0.60439134  1  1.042838  0  0.237379  0.421009  0  4.066046  0
C  C124  1  0.07671713  0.40520255  0.63969365  1  1.001134  0  0.237202  0.420367  0  4.062984  0
C  C125  1  0.09487159  0.36927723  0.58664940  1  1.029702  0  0.236496  0.419185  0  4.065816  0
C  C126  1  0.32242861  0.87803245  0.35411227  1  1.001363  0  0.23682  0.420494  0  4.06479  0
C  C127  1  0.34142661  0.82396483  0.38928088  1  1.029675  0  0.237676  0.421167  0  4.063839  0
C  C128  1  0.37670664  0.84219547  0.33538696  1  1.054785  0  0.236716  0.419481  0  4.067322  0
C  C129  1  0.67773280  0.62261872  0.85630906  1  1.051756  0  0.237876  0.421876  0  4.062062  0
C  C130  1  0.65792607  0.67573458  0.89166660  1  1.020803  0  0.236822  0.419991  0  4.065213  0
C  C131  1  0.62343614  0.65848179  0.83699400  1  1.067699  0  0.236121  0.418525  0  4.068397  0
C  C132  1  0.76452251  0.98455507  0.14901064  1  -0.069947  0  -0.085551  -0.107308  0  4.019426  0
C  C133  1  0.78587439  0.00136065  0.11970692  1  -0.003297  0  -0.100056  -0.105895  0  4.06765  0
C  C134  1  0.81992711  0.02592180  0.12612383  1  -0.098589  0  -0.081217  -0.03975  0  4.043238  0
C  C135  1  0.83661996  0.04885699  0.09809135  1  -0.000522  0  -0.094065  -0.205541  0  3.936431  0
C  C136  1  0.23638078  0.51359318  0.64850642  1  -0.017061  0  -0.085143  -0.107967  0  4.018617  0
C  C137  1  0.21605505  0.49596435  0.61909341  1  -0.031222  0  -0.099592  -0.104798  0  4.065294  0
C  C138  1  0.18156747  0.47186094  0.62515249  1  -0.08964  0  -0.08127  -0.039344  0  4.044422  0
C  C139  1  0.16566682  0.44816195  0.59750699  1  0.018436  0  -0.094078  -0.206636  0  3.9342  0
C  C140  1  0.23373540  0.98384930  0.40064543  1  -0.039157  0  -0.085284  -0.107176  0  4.018432  0
C  C141  1  0.24992453  0.96301220  0.37087400  1  -0.022844  0  -0.100249  -0.106602  0  4.068708  0
C  C142  1  0.27388582  0.92835801  0.37638803  1  -0.024426  0  -0.081262  -0.039052  0  4.042173  0
C  C143  1  0.29642647  0.91197344  0.34789691  1  -0.063386  0  -0.093983  -0.207693  0  3.934696  0
C  C144  1  0.76382846  0.51327330  0.90159259  1  0.025218  0  -0.086293  -0.109334  0  4.019378  0
C  C145  1  0.74986014  0.53690652  0.87245529  1  -0.074174  0  -0.099701  -0.104644  0  4.067502  0
C  C146  1  0.72543028  0.57105317  0.87866397  1  -0.01821  0  -0.081337  -0.04045  0  4.043363  0
C  C147  1  0.70439503  0.58931098  0.84986774  1  -0.022651  0  -0.09345  -0.206141  0  3.936484  0
C  C148  1  0.01511205  0.14466527  0.24252394  1  -0.055529  0  -0.085087  -0.10726  0  4.016724  0
C  C149  1  0.99697496  0.11425502  0.22410619  1  -0.030712  0  -0.100239  -0.106375  0  4.068126  0
C  C150  1  0.97196694  0.11895845  0.19039709  1  -0.092015  0  -0.081197  -0.037716  0  4.042785  0
C  C151  1  0.94856282  0.09010678  0.17564705  1  -0.018856  0  -0.094397  -0.207978  0  3.931493  0
C  C152  1  0.51941661  0.61177960  0.74692305  1  0.029636  0  -0.084851  -0.10682  0  4.016464  0
C  C153  1  0.53955460  0.64203742  0.76346770  1  -0.085456  0  -0.100128  -0.106466  0  4.068143  0
C  C154  1  0.57396995  0.63666573  0.78796539  1  -0.070486  0  -0.080796  -0.037854  0  4.042534  0
C  C155  1  0.58968259  0.66514962  0.81081785  1  0.008426  0  -0.093912  -0.207366  0  3.934626  0
C  C156  1  0.98633206  0.35930986  0.74342256  1  -0.063084  0  -0.085607  -0.107792  0  4.021907  0
C  C157  1  0.00335617  0.38937227  0.72321053  1  -0.02441  0  -0.100546  -0.106421  0  4.067409  0
C  C158  1  0.02772145  0.38366938  0.68938571  1  -0.045851  0  -0.080781  -0.038095  0  4.04466  0
C  C159  1  0.05076806  0.41205185  0.67304658  1  -0.034823  0  -0.094878  -0.209371  0  3.935345  0
C  C160  1  0.48102184  0.88897891  0.24576557  1  -0.003488  0  -0.085397  -0.105935  0  4.016494  0
C  C161  1  0.45983180  0.85866121  0.26115630  1  -0.05023  0  -0.100094  -0.106941  0  4.068073  0
C  C162  1  0.42633238  0.86417039  0.28661098  1  -0.06997  0  -0.081151  -0.040007  0  4.043616  0
C  C163  1  0.41000080  0.83536050  0.30891380  1  -0.043219  0  -0.093257  -0.205554  0  3.932943  0
C  C164  1  0.85730222  0.22901197  0.99214232  1  -0.05052  0  -0.08431  -0.106465  0  4.018124  0
C  C165  1  0.88801690  0.21064157  0.01088915  1  -0.011072  0  -0.099716  -0.10484  0  4.067302  0
C  C166  1  0.88287375  0.17708182  0.03590825  1  -0.024338  0  -0.080719  -0.037768  0  4.041149  0
C  C167  1  0.91133924  0.16304405  0.06063610  1  -0.108854  0  -0.094718  -0.208353  0  3.934105  0
C  C168  1  0.39101525  0.73702178  0.49448758  1  -0.105733  0  -0.08537  -0.10699  0  4.018365  0
C  C169  1  0.36007900  0.75181142  0.47316524  1  -0.022141  0  -0.10033  -0.107097  0  4.070078  0
C  C170  1  0.36513690  0.77661028  0.43952998  1  0.00955  0  -0.081413  -0.039548  0  4.045609  0
C  C171  1  0.33531571  0.79792883  0.42269098  1  -0.065061  0  -0.093616  -0.206732  0  3.933735  0
C  C172  1  0.60734203  0.76795407  0.99028010  1  -0.027908  0  -0.084401  -0.105955  0  4.01761  0
C  C173  1  0.63857736  0.74977789  0.97255857  1  -0.01973  0  -0.100111  -0.106267  0  4.065927  0
C  C174  1  0.63430004  0.72515062  0.93906814  1  -0.023738  0  -0.080806  -0.037756  0  4.043331  0
C  C175  1  0.66353425  0.70133146  0.92513168  1  -0.059864  0  -0.094171  -0.208074  0  3.933368  0
C  C176  1  0.14141916  0.26490612  0.49863303  1  -0.090508  0  -0.085076  -0.10626  0  4.017139  0
C  C177  1  0.11089435  0.28633160  0.51375874  1  -0.002738  0  -0.100406  -0.106902  0  4.067158  0
C  C178  1  0.11681710  0.31929123  0.53903238  1  0.00085  0  -0.081542  -0.040254  0  4.045367  0
C  C179  1  0.08767658  0.33619633  0.56072009  1  -0.060155  0  -0.092991  -0.204453  0  3.93257  0
N  N180  1  0.31589433  0.58107579  0.61903398  1  -0.777251  0  -0.336906  -0.141375  0  3.766889  0
N  N181  1  0.32879325  0.56998270  0.65569706  1  -0.77146  0  -0.337698  -0.140491  0  3.77059  0
N  N182  1  0.42745974  0.60345456  0.68977595  1  -0.793242  0  -0.338101  -0.142238  0  3.772109  0
N  N183  1  0.44181806  0.63885223  0.67611985  1  -0.770842  0  -0.337132  -0.140094  0  3.762076  0
N  N184  1  0.40018706  0.67915554  0.58442088  1  -0.772182  0  -0.337243  -0.139393  0  3.771666  0
N  N185  1  0.36498982  0.66459784  0.56965306  1  -0.776367  0  -0.335703  -0.139633  0  3.768656  0
N  N186  1  0.68560870  0.91681683  0.11908555  1  -0.774521  0  -0.336402  -0.138882  0  3.769596  0
N  N187  1  0.67159184  0.92885626  0.15481343  1  -0.77036  0  -0.337991  -0.140816  0  3.774701  0
N  N188  1  0.57166209  0.89736368  0.18706969  1  -0.782809  0  -0.338289  -0.140199  0  3.77251  0
N  N189  1  0.55470525  0.86442443  0.17090153  1  -0.770958  0  -0.336926  -0.14027  0  3.764852  0
N  N190  1  0.59576541  0.82648677  0.07865750  1  -0.774479  0  -0.337366  -0.140406  0  3.76807  0
N  N191  1  0.63390548  0.83669798  0.06773113  1  -0.773875  0  -0.33677  -0.14008  0  3.769966  0
N  N192  1  0.81733951  0.41923707  0.90422139  1  -0.786386  0  -0.33753  -0.140166  0  3.770089  0
N  N193  1  0.83328005  0.43599459  0.87110838  1  -0.761049  0  -0.33667  -0.140223  0  3.770648  0
N  N194  1  0.91714809  0.38695126  0.82122505  1  -0.771622  0  -0.336193  -0.140182  0  3.764007  0
N  N195  1  0.92791338  0.34950970  0.83281170  1  -0.779359  0  -0.338176  -0.140302  0  3.772418  0
N  N196  1  0.88487932  0.30572462  0.92187338  1  -0.774088  0  -0.338101  -0.141278  0  3.765967  0
N  N197  1  0.84794035  0.31898549  0.93370354  1  -0.768209  0  -0.338102  -0.141673  0  3.767544  0
N  N198  1  0.17922451  0.07699349  0.40735124  1  -0.782257  0  -0.337532  -0.140662  0  3.772459  0
N  N199  1  0.16628435  0.06386149  0.37158876  1  -0.766262  0  -0.336809  -0.139143  0  3.769454  0
N  N200  1  0.08530226  0.11679523  0.32004030  1  -0.790682  0  -0.3371  -0.140041  0  3.772176  0
N  N201  1  0.07512168  0.15434837  0.33122140  1  -0.765608  0  -0.336884  -0.140451  0  3.768909  0
N  N202  1  0.11515634  0.19318949  0.42364020  1  -0.778812  0  -0.337106  -0.141124  0  3.764159  0
N  N203  1  0.14866476  0.17586287  0.43972142  1  -0.772593  0  -0.337659  -0.140392  0  3.772284  0
N  N204  1  0.89315626  0.06933235  0.13694083  1  -1.185687  0  -0.328396  -0.441343  0  3.15447  0
N  N205  1  0.93005667  0.12637315  0.11753704  1  -1.182444  0  -0.32898  -0.442143  0  3.157665  0
N  N206  1  0.87457386  0.10492050  0.07911668  1  -1.193284  0  -0.328771  -0.442873  0  3.159064  0
N  N207  1  0.10719431  0.43054083  0.63480173  1  -1.180313  0  -0.329135  -0.442496  0  3.156418  0
N  N208  1  0.06887403  0.37435096  0.61616672  1  -1.155115  0  -0.328825  -0.442795  0  3.154044  0
N  N209  1  0.12670313  0.39254715  0.57940307  1  -1.183667  0  -0.32954  -0.443798  0  3.157754  0
N  N210  1  0.31519981  0.85387270  0.38477587  1  -1.165816  0  -0.329364  -0.443177  0  3.154572  0
N  N211  1  0.37256421  0.81660484  0.36530770  1  -1.186562  0  -0.32882  -0.442889  0  3.157054  0
N  N212  1  0.35240783  0.87332083  0.32834601  1  -1.163445  0  -0.328682  -0.44257  0  3.156566  0
N  N213  1  0.68396543  0.64562788  0.88776522  1  -1.17373  0  -0.330128  -0.444498  0  3.150101  0
N  N214  1  0.62730461  0.68363496  0.86695755  1  -1.183891  0  -0.328249  -0.440899  0  3.160957  0
N  N215  1  0.64824552  0.62787183  0.82989445  1  -1.184473  0  -0.328692  -0.442591  0  3.156461  0
