# generated using pymatgen
data_MgH6(C2O3)2
_symmetry_space_group_name_H-M   'P 1'
_cell_length_a   9.60808924
_cell_length_b   9.60809383
_cell_length_c   9.60809488
_cell_angle_alpha   96.62543772
_cell_angle_beta   96.62543282
_cell_angle_gamma   96.62539688
_symmetry_Int_Tables_number   1
_chemical_formula_structural   MgH6(C2O3)2
_chemical_formula_sum   'Mg6 H36 C24 O36'
_cell_volume   867.69220507
_cell_formula_units_Z   6
loop_
 _symmetry_equiv_pos_site_id
 _symmetry_equiv_pos_as_xyz
  1  'x, y, z'
loop_
 _atom_site_type_symbol
 _atom_site_label
 _atom_site_symmetry_multiplicity
 _atom_site_fract_x
 _atom_site_fract_y
 _atom_site_fract_z
 _atom_site_occupancy
 _atom_site_pbe_bader_spin_density
 _atom_site_pbe_cm5_charge
 _atom_site_pbe_ddec_charge
 _atom_site_pbe_ddec_spin_density
 _atom_site_pbe_ddec_sum_bond_order
 _atom_site_pbe_magmom
Mg  Mg0  1  0.16233426  0.37456837  0.78882072  1  0  0.809479  1.380125  0  1.382906  0
Mg  Mg1  1  0.78882049  0.16233452  0.37456863  1  0  0.80949  1.380141  0  1.382864  0
Mg  Mg2  1  0.37456790  0.78881959  0.16233456  1  0  0.809474  1.380132  0  1.38288  0
Mg  Mg3  1  0.83766581  0.62543130  0.21118025  1  0  0.809498  1.38016  0  1.382834  0
Mg  Mg4  1  0.21118063  0.83766514  0.62543142  1  0  0.809487  1.380158  0  1.382858  0
Mg  Mg5  1  0.62543113  0.21118008  0.83766525  1  0  0.809487  1.380155  0  1.38284  0
H  H6  1  0.37475469  0.58708505  0.82859654  1  0  0.305514  0.397119  0  0.935477  0
H  H7  1  0.82859717  0.37475498  0.58708507  1  0  0.305512  0.397111  0  0.935489  0
H  H8  1  0.58708471  0.82859621  0.37475498  1  0  0.305522  0.397127  0  0.935467  0
H  H9  1  0.62524538  0.41291462  0.17140339  1  0  0.305517  0.397126  0  0.935465  0
H  H10  1  0.17140290  0.62524469  0.41291486  1  0  0.305511  0.397113  0  0.935486  0
H  H11  1  0.41291536  0.17140345  0.62524495  1  0  0.305516  0.397123  0  0.935474  0
H  H12  1  0.31217392  0.56436856  0.66821875  1  0  0.31553  0.405598  0  0.91189  0
H  H13  1  0.66821906  0.31217356  0.56436850  1  0  0.315532  0.405597  0  0.911894  0
H  H14  1  0.56436756  0.66821884  0.31217292  1  0  0.315512  0.405573  0  0.911937  0
H  H15  1  0.68782629  0.43563216  0.33178132  1  0  0.315526  0.405578  0  0.911894  0
H  H16  1  0.33178101  0.68782610  0.43563143  1  0  0.31553  0.405599  0  0.911891  0
H  H17  1  0.43563146  0.33178083  0.68782585  1  0  0.315529  0.405598  0  0.911892  0
H  H18  1  0.97250320  0.16929737  0.69692982  1  0  0.30789  0.393626  0  0.940505  0
H  H19  1  0.69693008  0.97250301  0.16929604  1  0  0.307893  0.393634  0  0.940495  0
H  H20  1  0.16929643  0.69692962  0.97250219  1  0  0.307891  0.393618  0  0.940506  0
H  H21  1  0.02749701  0.83070335  0.30306920  1  0  0.307897  0.393643  0  0.940468  0
H  H22  1  0.30306999  0.02749665  0.83070388  1  0  0.307895  0.393628  0  0.940499  0
H  H23  1  0.83070364  0.30307005  0.02749670  1  0  0.307895  0.393625  0  0.940503  0
H  H24  1  0.94006605  0.18799083  0.85774490  1  0  0.305876  0.405723  0  0.918192  0
H  H25  1  0.85774512  0.94006585  0.18799102  1  0  0.305878  0.405729  0  0.918182  0
H  H26  1  0.18799154  0.85774488  0.94006620  1  0  0.305877  0.405726  0  0.918186  0
H  H27  1  0.05993402  0.81200884  0.14225399  1  0  0.305879  0.40572  0  0.918202  0
H  H28  1  0.14225495  0.05993382  0.81200890  1  0  0.305879  0.405728  0  0.918183  0
H  H29  1  0.81200854  0.14225479  0.05993373  1  0  0.305878  0.405724  0  0.918188  0
H  H30  1  0.07131522  0.12396004  0.27283615  1  0  0.107649  0.095425  0  0.985701  0
H  H31  1  0.27283566  0.07131634  0.12396051  1  0  0.107652  0.095418  0  0.985719  0
H  H32  1  0.12395930  0.27283570  0.07131587  1  0  0.107644  0.095415  0  0.985715  0
H  H33  1  0.92868380  0.87603963  0.72716469  1  0  0.107643  0.095415  0  0.98574  0
H  H34  1  0.72716442  0.92868333  0.87604046  1  0  0.107651  0.095418  0  0.985733  0
H  H35  1  0.87603972  0.72716397  0.92868290  1  0  0.107656  0.095417  0  0.985714  0
H  H36  1  0.22843901  0.42134788  0.37093573  1  0  0.111303  0.10879  0  0.991049  0
H  H37  1  0.37093593  0.22843933  0.42134802  1  0  0.111301  0.108807  0  0.991043  0
H  H38  1  0.42134804  0.37093571  0.22843980  1  0  0.111303  0.108817  0  0.991054  0
H  H39  1  0.77156002  0.57865179  0.62906304  1  0  0.111315  0.108834  0  0.991004  0
H  H40  1  0.62906414  0.77156033  0.57865191  1  0  0.111301  0.108823  0  0.991054  0
H  H41  1  0.57865098  0.62906396  0.77156000  1  0  0.111322  0.108811  0  0.991011  0
C  C42  1  0.10060967  0.21063953  0.49273259  1  0  0.232424  0.648828  0  4.102738  0
C  C43  1  0.49273241  0.10060867  0.21063935  1  0  0.232437  0.648843  0  4.102696  0
C  C44  1  0.21063836  0.49273203  0.10060884  1  0  0.232472  0.648905  0  4.102621  0
C  C45  1  0.89939159  0.78936120  0.50726760  1  0  0.23242  0.648862  0  4.102651  0
C  C46  1  0.50726780  0.89939206  0.78936071  1  0  0.232428  0.64886  0  4.10264  0
C  C47  1  0.78936171  0.50726764  0.89939109  1  0  0.232435  0.648838  0  4.10272  0
C  C48  1  0.14848023  0.19970234  0.34562796  1  0  -0.082035  -0.145704  0  3.835369  0
C  C49  1  0.34562792  0.14847966  0.19970341  1  0  -0.082037  -0.145687  0  3.835389  0
C  C50  1  0.19970343  0.34562801  0.14847898  1  0  -0.082003  -0.145663  0  3.835386  0
C  C51  1  0.85152089  0.80029733  0.65437209  1  0  -0.082027  -0.145695  0  3.835422  0
C  C52  1  0.65437124  0.85152106  0.80029757  1  0  -0.082017  -0.145688  0  3.835469  0
C  C53  1  0.80029769  0.65437165  0.85152107  1  0  -0.08202  -0.14565  0  3.835307  0
C  C54  1  0.15164586  0.34674101  0.29654245  1  0  -0.082714  -0.153207  0  3.828919  0
C  C55  1  0.29654327  0.15164749  0.34674144  1  0  -0.082717  -0.153246  0  3.828922  0
C  C56  1  0.34674067  0.29654364  0.15164649  1  0  -0.082727  -0.153271  0  3.828954  0
C  C57  1  0.84835316  0.65325866  0.70345736  1  0  -0.082712  -0.153271  0  3.828887  0
C  C58  1  0.70345694  0.84835324  0.65325863  1  0  -0.082717  -0.153253  0  3.82896  0
C  C59  1  0.65325954  0.70345709  0.84835254  1  0  -0.08277  -0.1533  0  3.828937  0
C  C60  1  0.00775901  0.40011486  0.29368266  1  0  0.231981  0.649549  0  4.09166  0
C  C61  1  0.29368167  0.00775872  0.40011461  1  0  0.232035  0.649637  0  4.09155  0
C  C62  1  0.40011420  0.29368154  0.00775892  1  0  0.232044  0.64963  0  4.091526  0
C  C63  1  0.99224120  0.59988587  0.70631741  1  0  0.232032  0.649628  0  4.091582  0
C  C64  1  0.70631840  0.99224095  0.59988636  1  0  0.232003  0.649565  0  4.091661  0
C  C65  1  0.59988587  0.70631813  0.99224101  1  0  0.232039  0.649616  0  4.091574  0
O  O66  1  0.18712477  0.27793364  0.59348698  1  0  -0.35136  -0.620411  0  2.281407  0
O  O67  1  0.59348659  0.18712315  0.27793310  1  0  -0.35136  -0.620401  0  2.281425  0
O  O68  1  0.27793333  0.59348643  0.18712304  1  0  -0.351379  -0.620474  0  2.281419  0
O  O69  1  0.81287753  0.72206709  0.40651333  1  0  -0.351369  -0.620424  0  2.281339  0
O  O70  1  0.40651348  0.81287651  0.72206682  1  0  -0.351384  -0.620444  0  2.281353  0
O  O71  1  0.72206793  0.40651430  0.81287714  1  0  -0.351372  -0.62044  0  2.281437  0
O  O72  1  0.97512712  0.15756729  0.50627617  1  0  -0.34802  -0.654917  0  2.276541  0
O  O73  1  0.50627583  0.97512612  0.15756577  1  0  -0.348038  -0.654949  0  2.276503  0
O  O74  1  0.15756532  0.50627595  0.97512692  1  0  -0.348056  -0.654941  0  2.276481  0
O  O75  1  0.02487414  0.84243344  0.49372402  1  0  -0.348016  -0.654942  0  2.276513  0
O  O76  1  0.49372424  0.02487355  0.84243416  1  0  -0.348021  -0.654925  0  2.276509  0
O  O77  1  0.84243371  0.49372372  0.02487289  1  0  -0.348031  -0.654911  0  2.276522  0
O  O78  1  0.89739241  0.31126927  0.27525797  1  0  -0.351774  -0.650149  0  2.316488  0
O  O79  1  0.27525793  0.89739214  0.31126969  1  0  -0.351801  -0.650193  0  2.316513  0
O  O80  1  0.31126875  0.27525706  0.89739216  1  0  -0.351777  -0.65019  0  2.316523  0
O  O81  1  0.10260766  0.68873040  0.72474195  1  0  -0.351797  -0.650189  0  2.316526  0
O  O82  1  0.72474110  0.10260753  0.68873012  1  0  -0.351793  -0.650173  0  2.316547  0
O  O83  1  0.68873013  0.72474156  0.10260750  1  0  -0.351791  -0.650171  0  2.31652  0
O  O84  1  0.00667349  0.53377072  0.30390363  1  0  -0.338343  -0.629871  0  2.245447  0
O  O85  1  0.30390404  0.00667405  0.53377100  1  0  -0.338351  -0.62989  0  2.245391  0
O  O86  1  0.53377198  0.30390368  0.00667451  1  0  -0.338381  -0.629888  0  2.245332  0
O  O87  1  0.99332644  0.46622789  0.69609616  1  0  -0.338352  -0.629878  0  2.245384  0
O  O88  1  0.69609722  0.99332667  0.46622919  1  0  -0.338336  -0.629845  0  2.245385  0
O  O89  1  0.46622809  0.69609599  0.99332646  1  0  -0.33835  -0.629869  0  2.24538  0
O  O90  1  0.33734850  0.51254981  0.74799133  1  0  -0.589092  -0.813742  0  2.115266  0
O  O91  1  0.74799145  0.33734847  0.51254996  1  0  -0.589095  -0.813745  0  2.115291  0
O  O92  1  0.51254998  0.74799067  0.33734867  1  0  -0.589083  -0.813728  0  2.115299  0
O  O93  1  0.66265052  0.48744986  0.25200848  1  0  -0.589101  -0.813755  0  2.115285  0
O  O94  1  0.25200863  0.66265120  0.48744997  1  0  -0.589087  -0.813742  0  2.115282  0
O  O95  1  0.48745009  0.25200900  0.66265126  1  0  -0.589094  -0.813753  0  2.115271  0
O  O96  1  0.01760100  0.18901900  0.79753334  1  0  -0.584324  -0.816797  0  2.111469  0
O  O97  1  0.79753333  0.01760130  0.18901912  1  0  -0.584325  -0.816814  0  2.111458  0
O  O98  1  0.18901884  0.79753309  0.01760173  1  0  -0.584329  -0.816787  0  2.111453  0
O  O99  1  0.98239908  0.81098067  0.20246555  1  0  -0.584333  -0.816821  0  2.111445  0
O  O100  1  0.20246674  0.98239837  0.81098081  1  0  -0.584338  -0.816806  0  2.111438  0
O  O101  1  0.81098123  0.20246657  0.98239820  1  0  -0.584336  -0.816802  0  2.111451  0
