# generated using pymatgen
data_AgH2C2N3O
_symmetry_space_group_name_H-M   'P 1'
_cell_length_a   6.66242208
_cell_length_b   9.82217071
_cell_length_c   12.56667213
_cell_angle_alpha   90.00018302
_cell_angle_beta   89.99994958
_cell_angle_gamma   89.99996370
_symmetry_Int_Tables_number   1
_chemical_formula_structural   AgH2C2N3O
_chemical_formula_sum   'Ag8 H16 C16 N24 O8'
_cell_volume   822.35607536
_cell_formula_units_Z   8
loop_
 _symmetry_equiv_pos_site_id
 _symmetry_equiv_pos_as_xyz
  1  'x, y, z'
loop_
 _atom_site_type_symbol
 _atom_site_label
 _atom_site_symmetry_multiplicity
 _atom_site_fract_x
 _atom_site_fract_y
 _atom_site_fract_z
 _atom_site_occupancy
 _atom_site_hle17_bader_spin_density
 _atom_site_hle17_ddec_charge
 _atom_site_hle17_ddec_spin_density
 _atom_site_hle17_ddec_sum_bond_order
 _atom_site_hle17_magmom
 _atom_site_hse06_10hf_bader_spin_density
 _atom_site_hse06_10hf_ddec_charge
 _atom_site_hse06_10hf_ddec_spin_density
 _atom_site_hse06_10hf_ddec_sum_bond_order
 _atom_site_hse06_10hf_magmom
 _atom_site_hse06_bader_spin_density
 _atom_site_hse06_ddec_charge
 _atom_site_hse06_ddec_spin_density
 _atom_site_hse06_ddec_sum_bond_order
 _atom_site_hse06_magmom
 _atom_site_pbe_bader_spin_density
 _atom_site_pbe_cm5_charge
 _atom_site_pbe_ddec_charge
 _atom_site_pbe_ddec_spin_density
 _atom_site_pbe_ddec_sum_bond_order
 _atom_site_pbe_magmom
Ag  Ag0  1  0.57549879  0.23783995  0.33468319  1  0  0.640341  0  1.460703  0  0  0.515766  0  1.904562  0  0  0.53865  0  1.863493  0  0  0.521151  0.501351  0  1.931404  0
Ag  Ag1  1  0.92450599  0.76216784  0.83468264  1  0  0.640316  0  1.460658  0  0  0.515762  0  1.904488  0  0  0.538661  0  1.863414  0  0  0.52112  0.50134  0  1.931335  0
Ag  Ag2  1  0.07549542  0.26216828  0.66531493  1  0  0.640314  0  1.460768  0  0  0.515746  0  1.904572  0  0  0.538649  0  1.863497  0  0  0.52111  0.501324  0  1.931412  0
Ag  Ag3  1  0.42449970  0.73783405  0.16530890  1  0  0.640298  0  1.460567  0  0  0.515773  0  1.904292  0  0  0.538669  0  1.863213  0  0  0.521117  0.501345  0  1.931142  0
Ag  Ag4  1  0.42453193  0.76216867  0.66531880  1  0  0.640318  0  1.46071  0  0  0.515704  0  1.904521  0  0  0.53861  0  1.863442  0  0  0.521099  0.501291  0  1.931369  0
Ag  Ag5  1  0.07546169  0.23782042  0.16532095  1  0  0.640175  0  1.460835  0  0  0.515577  0  1.904623  0  0  0.538493  0  1.863542  0  0  0.521027  0.501148  0  1.931458  0
Ag  Ag6  1  0.92453681  0.73784543  0.33468468  1  0  0.640346  0  1.460941  0  0  0.515745  0  1.904762  0  0  0.53865  0  1.863682  0  0  0.52115  0.501331  0  1.93161  0
Ag  Ag7  1  0.57545747  0.26216134  0.83468434  1  0  0.640309  0  1.46107  0  0  0.515686  0  1.904935  0  0  0.538595  0  1.86385  0  0  0.521111  0.501278  0  1.93178  0
H  H8  1  0.33587838  0.76221405  0.41184358  1  0  0.337433  0  0.925784  0  0  0.312518  0  1.002534  0  0  0.321448  0  0.994018  0  0  0.291117  0.305281  0  1.009681  0
H  H9  1  0.16412197  0.23778815  0.91184635  1  0  0.337308  0  0.92569  0  0  0.312399  0  1.002452  0  0  0.321325  0  0.99395  0  0  0.291086  0.305159  0  1.009601  0
H  H10  1  0.83587796  0.73779093  0.58815592  1  0  0.337631  0  0.925703  0  0  0.312684  0  1.002452  0  0  0.321611  0  0.993943  0  0  0.291216  0.305446  0  1.009598  0
H  H11  1  0.66411258  0.26220172  0.08815177  1  0  0.337473  0  0.925795  0  0  0.312518  0  1.002573  0  0  0.321451  0  0.994052  0  0  0.291128  0.305279  0  1.009725  0
H  H12  1  0.66414934  0.23779661  0.58815762  1  0  0.337532  0  0.925829  0  0  0.312573  0  1.002622  0  0  0.321505  0  0.994096  0  0  0.29114  0.305339  0  1.009754  0
H  H13  1  0.83585322  0.76221029  0.08815326  1  0  0.337525  0  0.925883  0  0  0.312576  0  1.002689  0  0  0.321507  0  0.994155  0  0  0.291116  0.305335  0  1.009839  0
H  H14  1  0.16414225  0.26221056  0.41184130  1  0  0.337508  0  0.925954  0  0  0.31258  0  1.002684  0  0  0.321496  0  0.994182  0  0  0.291111  0.30535  0  1.009815  0
H  H15  1  0.33584909  0.73779774  0.91184068  1  0  0.337345  0  0.925889  0  0  0.312466  0  1.002579  0  0  0.321391  0  0.994071  0  0  0.291022  0.305226  0  1.009733  0
H  H16  1  0.51284093  0.87988666  0.46115592  1  0  0.343346  0  0.919462  0  0  0.323619  0  0.983085  0  0  0.332226  0  0.975574  0  0  0.29426  0.317439  0  0.988603  0
H  H17  1  0.98716046  0.12011955  0.96115039  1  0  0.343264  0  0.919534  0  0  0.32354  0  0.983155  0  0  0.332147  0  0.97566  0  0  0.294227  0.317363  0  0.988663  0
H  H18  1  0.01283207  0.62012255  0.53885235  1  0  0.343315  0  0.919588  0  0  0.323566  0  0.983245  0  0  0.332176  0  0.975746  0  0  0.294208  0.31739  0  0.988732  0
H  H19  1  0.48718146  0.37987525  0.03885408  1  0  0.34339  0  0.919559  0  0  0.323657  0  0.983169  0  0  0.332265  0  0.975652  0  0  0.294296  0.317477  0  0.9887  0
H  H20  1  0.48720480  0.12012196  0.53886278  1  0  0.343284  0  0.919574  0  0  0.323537  0  0.983194  0  0  0.332131  0  0.975694  0  0  0.294222  0.317362  0  0.988709  0
H  H21  1  0.01280572  0.87986871  0.03885559  1  0  0.343276  0  0.919707  0  0  0.323578  0  0.983265  0  0  0.332177  0  0.975772  0  0  0.294182  0.317408  0  0.988758  0
H  H22  1  0.98719715  0.37988404  0.46113611  1  0  0.343381  0  0.919568  0  0  0.323646  0  0.983202  0  0  0.332254  0  0.975683  0  0  0.294226  0.317462  0  0.98871  0
H  H23  1  0.51281624  0.62012217  0.96113996  1  0  0.343363  0  0.919584  0  0  0.323629  0  0.983214  0  0  0.332235  0  0.975699  0  0  0.294177  0.317445  0  0.988713  0
C  C24  1  0.94296582  0.02722860  0.34502294  1  0  0.524533  0  3.991301  0  0  0.484898  0  4.257213  0  0  0.511663  0  4.269992  0  0  0.292576  0.466426  0  4.248852  0
C  C25  1  0.55703893  0.97278229  0.84502776  1  0  0.524613  0  3.99119  0  0  0.48498  0  4.257086  0  0  0.511752  0  4.26985  0  0  0.292635  0.466509  0  4.248731  0
C  C26  1  0.44296381  0.47278862  0.65497835  1  0  0.524643  0  3.99103  0  0  0.485015  0  4.256953  0  0  0.511793  0  4.269715  0  0  0.292619  0.466541  0  4.2486  0
C  C27  1  0.05706287  0.52720756  0.15497335  1  0  0.524783  0  3.991317  0  0  0.485142  0  4.257273  0  0  0.511915  0  4.270034  0  0  0.292629  0.466652  0  4.248921  0
C  C28  1  0.05706039  0.97278206  0.65499179  1  0  0.524621  0  3.991176  0  0  0.485009  0  4.257139  0  0  0.511788  0  4.269904  0  0  0.292607  0.466525  0  4.248786  0
C  C29  1  0.44293926  0.02722023  0.15499890  1  0  0.5247  0  3.990829  0  0  0.485096  0  4.256779  0  0  0.51188  0  4.269532  0  0  0.292719  0.466618  0  4.248425  0
C  C30  1  0.55707142  0.52723222  0.34500534  1  0  0.524796  0  3.991454  0  0  0.485226  0  4.257396  0  0  0.512003  0  4.270157  0  0  0.292722  0.466752  0  4.249034  0
C  C31  1  0.94293633  0.47277663  0.84501194  1  0  0.52476  0  3.991307  0  0  0.485163  0  4.257269  0  0  0.511947  0  4.270025  0  0  0.29268  0.466681  0  4.248918  0
C  C32  1  0.25365145  0.96433334  0.40777357  1  0  0.81068  0  3.867251  0  0  0.742025  0  4.159902  0  0  0.776924  0  4.157761  0  0  0.326049  0.718465  0  4.160715  0
C  C33  1  0.24633240  0.03568717  0.90777498  1  0  0.810464  0  3.867353  0  0  0.741848  0  4.160003  0  0  0.776773  0  4.157832  0  0  0.325925  0.718283  0  4.160822  0
C  C34  1  0.75365569  0.53569001  0.59223389  1  0  0.810597  0  3.867084  0  0  0.741796  0  4.15999  0  0  0.776727  0  4.157815  0  0  0.325973  0.718233  0  4.160811  0
C  C35  1  0.74633184  0.46427822  0.09222234  1  0  0.810378  0  3.868491  0  0  0.741826  0  4.161059  0  0  0.776734  0  4.158905  0  0  0.325737  0.71824  0  4.161888  0
C  C36  1  0.74635976  0.03570380  0.59223876  1  0  0.810542  0  3.867688  0  0  0.741805  0  4.160494  0  0  0.776736  0  4.158316  0  0  0.325964  0.718232  0  4.161314  0
C  C37  1  0.75363528  0.96431738  0.09224213  1  0  0.810695  0  3.86738  0  0  0.741885  0  4.160302  0  0  0.776833  0  4.158099  0  0  0.326029  0.718321  0  4.161124  0
C  C38  1  0.24637203  0.46432574  0.40775458  1  0  0.810525  0  3.867517  0  0  0.741683  0  4.160523  0  0  0.776622  0  4.158338  0  0  0.326007  0.718119  0  4.161339  0
C  C39  1  0.25362383  0.53568255  0.90775737  1  0  0.810651  0  3.867372  0  0  0.741782  0  4.160384  0  0  0.77672  0  4.158202  0  0  0.326013  0.718222  0  4.161196  0
N  N40  1  0.82293890  0.11082620  0.32266153  1  0  -0.618359  0  3.052062  0  0  -0.544978  0  3.379756  0  0  -0.568347  0  3.377709  0  0  -0.432308  -0.529803  0  3.38101  0
N  N41  1  0.67706592  0.88918155  0.82266452  1  0  -0.61844  0  3.051813  0  0  -0.54507  0  3.379507  0  0  -0.568441  0  3.377456  0  0  -0.432345  -0.529897  0  3.380763  0
N  N42  1  0.32292638  0.38917887  0.67733737  1  0  -0.618575  0  3.051643  0  0  -0.545211  0  3.379386  0  0  -0.568587  0  3.377332  0  0  -0.43235  -0.530031  0  3.380642  0
N  N43  1  0.17706720  0.61080721  0.17732862  1  0  -0.618502  0  3.052096  0  0  -0.545149  0  3.379834  0  0  -0.568522  0  3.377778  0  0  -0.432328  -0.529974  0  3.381103  0
N  N44  1  0.17707981  0.88917225  0.67735479  1  0  -0.618559  0  3.051872  0  0  -0.545182  0  3.37957  0  0  -0.568555  0  3.377522  0  0  -0.432362  -0.530009  0  3.380831  0
N  N45  1  0.32291077  0.11083318  0.17736293  1  0  -0.618673  0  3.051876  0  0  -0.545324  0  3.379659  0  0  -0.568694  0  3.377599  0  0  -0.432509  -0.530149  0  3.380917  0
N  N46  1  0.67708483  0.61082976  0.32264791  1  0  -0.618565  0  3.052219  0  0  -0.545203  0  3.379893  0  0  -0.568572  0  3.377843  0  0  -0.432362  -0.530032  0  3.381153  0
N  N47  1  0.82289898  0.38917188  0.82264870  1  0  -0.618692  0  3.051919  0  0  -0.545323  0  3.379637  0  0  -0.568695  0  3.377578  0  0  -0.432417  -0.530147  0  3.380893  0
N  N48  1  0.06925613  0.92964952  0.36334092  1  0  -0.613387  0  3.326401  0  0  -0.52394  0  3.625079  0  0  -0.555073  0  3.628244  0  0  -0.393664  -0.502725  0  3.622027  0
N  N49  1  0.43074287  0.07034538  0.86334480  1  0  -0.613504  0  3.326648  0  0  -0.523991  0  3.625215  0  0  -0.555119  0  3.628363  0  0  -0.393668  -0.50279  0  3.622179  0
N  N50  1  0.56926621  0.57033828  0.63666337  1  0  -0.613421  0  3.326729  0  0  -0.523896  0  3.625336  0  0  -0.555027  0  3.628483  0  0  -0.393657  -0.502694  0  3.6223  0
N  N51  1  0.93072569  0.42966880  0.13664534  1  0  -0.613426  0  3.326684  0  0  -0.523923  0  3.625113  0  0  -0.555056  0  3.628264  0  0  -0.393526  -0.502669  0  3.62202  0
N  N52  1  0.93074607  0.07033569  0.63666664  1  0  -0.613228  0  3.326452  0  0  -0.523788  0  3.625086  0  0  -0.554921  0  3.628234  0  0  -0.393599  -0.502558  0  3.622011  0
N  N53  1  0.56925933  0.92966528  0.13666913  1  0  -0.613314  0  3.326261  0  0  -0.523855  0  3.624933  0  0  -0.554985  0  3.628066  0  0  -0.393618  -0.502643  0  3.621886  0
N  N54  1  0.43076301  0.42966423  0.36332828  1  0  -0.613374  0  3.32633  0  0  -0.524007  0  3.625156  0  0  -0.555142  0  3.628301  0  0  -0.393723  -0.502784  0  3.62209  0
N  N55  1  0.06924500  0.57033372  0.86333357  1  0  -0.613245  0  3.326505  0  0  -0.523827  0  3.625255  0  0  -0.554958  0  3.628396  0  0  -0.393625  -0.502606  0  3.622194  0
N  N56  1  0.38370328  0.86104353  0.41886228  1  0  -0.74229  0  3.10188  0  0  -0.703981  0  3.356715  0  0  -0.726205  0  3.346479  0  0  -0.581682  -0.68819  0  3.364036  0
N  N57  1  0.11630155  0.13895259  0.91886478  1  0  -0.74181  0  3.102379  0  0  -0.703475  0  3.357198  0  0  -0.725706  0  3.346948  0  0  -0.581423  -0.687685  0  3.36452  0
N  N58  1  0.88369546  0.63897161  0.58114438  1  0  -0.742384  0  3.102219  0  0  -0.703954  0  3.357156  0  0  -0.726185  0  3.346885  0  0  -0.581641  -0.688154  0  3.364488  0
N  N59  1  0.61630561  0.36103832  0.08113414  1  0  -0.742042  0  3.103366  0  0  -0.70368  0  3.358175  0  0  -0.725901  0  3.347936  0  0  -0.58141  -0.687902  0  3.365512  0
N  N60  1  0.61633044  0.13896611  0.58115085  1  0  -0.742109  0  3.102706  0  0  -0.703714  0  3.357612  0  0  -0.725935  0  3.347389  0  0  -0.58152  -0.687935  0  3.364949  0
N  N61  1  0.88368114  0.86103059  0.08115074  1  0  -0.742391  0  3.102168  0  0  -0.703979  0  3.357062  0  0  -0.726205  0  3.346817  0  0  -0.581618  -0.688191  0  3.364407  0
N  N62  1  0.11631725  0.36102683  0.41884329  1  0  -0.74249  0  3.102175  0  0  -0.704072  0  3.357095  0  0  -0.726304  0  3.346862  0  0  -0.581693  -0.688273  0  3.364421  0
N  N63  1  0.38367858  0.63895707  0.91884398  1  0  -0.742246  0  3.102188  0  0  -0.703828  0  3.357041  0  0  -0.72606  0  3.346812  0  0  -0.581455  -0.688027  0  3.364375  0
O  O64  1  0.29438021  0.08568748  0.43412777  1  0  -0.682282  0  1.992911  0  0  -0.605864  0  2.226664  0  0  -0.631168  0  2.216081  0  0  -0.317531  -0.588194  0  2.2343  0
O  O65  1  0.20562607  0.91430666  0.93412208  1  0  -0.682111  0  1.992284  0  0  -0.605898  0  2.226191  0  0  -0.631289  0  2.215668  0  0  -0.317535  -0.5882  0  2.233807  0
O  O66  1  0.79436770  0.41432880  0.56588068  1  0  -0.682181  0  1.992593  0  0  -0.605748  0  2.226443  0  0  -0.631159  0  2.215944  0  0  -0.317474  -0.588055  0  2.234058  0
O  O67  1  0.70564392  0.58565970  0.06587504  1  0  -0.682262  0  1.992377  0  0  -0.606012  0  2.226191  0  0  -0.631371  0  2.215652  0  0  -0.31753  -0.588274  0  2.233776  0
O  O68  1  0.70564751  0.91432726  0.56589809  1  0  -0.682375  0  1.992777  0  0  -0.605978  0  2.226593  0  0  -0.631414  0  2.216115  0  0  -0.317523  -0.588259  0  2.234194  0
O  O69  1  0.79434611  0.08566328  0.06590697  1  0  -0.682185  0  1.993254  0  0  -0.605773  0  2.227113  0  0  -0.631251  0  2.216663  0  0  -0.317465  -0.588078  0  2.234734  0
O  O70  1  0.20564050  0.58567270  0.43409505  1  0  -0.68206  0  1.993359  0  0  -0.605575  0  2.227194  0  0  -0.631015  0  2.216719  0  0  -0.317417  -0.587899  0  2.234829  0
O  O71  1  0.29435528  0.41432245  0.93409990  1  0  -0.68229  0  1.992975  0  0  -0.605826  0  2.226847  0  0  -0.631268  0  2.216371  0  0  -0.317527  -0.588159  0  2.234493  0
