# generated using pymatgen
data_KH7C8O3
_symmetry_space_group_name_H-M   'P 1'
_cell_length_a   3.80066119
_cell_length_b   11.17981814
_cell_length_c   18.07398376
_cell_angle_alpha   94.38020556
_cell_angle_beta   90.00000061
_cell_angle_gamma   89.99975846
_symmetry_Int_Tables_number   1
_chemical_formula_structural   KH7C8O3
_chemical_formula_sum   'K4 H28 C32 O12'
_cell_volume   765.73313103
_cell_formula_units_Z   4
loop_
 _symmetry_equiv_pos_site_id
 _symmetry_equiv_pos_as_xyz
  1  'x, y, z'
loop_
 _atom_site_type_symbol
 _atom_site_label
 _atom_site_symmetry_multiplicity
 _atom_site_fract_x
 _atom_site_fract_y
 _atom_site_fract_z
 _atom_site_occupancy
 _atom_site_hle17_bader_spin_density
 _atom_site_hle17_ddec_charge
 _atom_site_hle17_ddec_spin_density
 _atom_site_hle17_ddec_sum_bond_order
 _atom_site_hle17_magmom
 _atom_site_hse06_10hf_bader_spin_density
 _atom_site_hse06_10hf_ddec_charge
 _atom_site_hse06_10hf_ddec_spin_density
 _atom_site_hse06_10hf_ddec_sum_bond_order
 _atom_site_hse06_10hf_magmom
 _atom_site_hse06_bader_spin_density
 _atom_site_hse06_ddec_charge
 _atom_site_hse06_ddec_spin_density
 _atom_site_hse06_ddec_sum_bond_order
 _atom_site_hse06_magmom
 _atom_site_pbe_bader_spin_density
 _atom_site_pbe_cm5_charge
 _atom_site_pbe_ddec_charge
 _atom_site_pbe_ddec_spin_density
 _atom_site_pbe_ddec_sum_bond_order
 _atom_site_pbe_magmom
K  K0  1  0.64616934  0.38838970  0.09345155  1  0  0.950188  0  0.486543  0  0  0.914061  0  0.669726  0  0  0.926603  0  0.647984  0  0  0.806946  0.904038  0  0.685833  0
K  K1  1  0.14616865  0.11160803  0.90654668  1  0  0.950197  0  0.486561  0  0  0.914077  0  0.669737  0  0  0.926622  0  0.647992  0  0  0.806926  0.90401  0  0.685849  0
K  K2  1  0.35383727  0.61161433  0.90654559  1  0  0.950209  0  0.486531  0  0  0.914082  0  0.669711  0  0  0.92663  0  0.647967  0  0  0.806959  0.904076  0  0.685828  0
K  K3  1  0.85383007  0.88838973  0.09345183  1  0  0.950188  0  0.486554  0  0  0.914058  0  0.66974  0  0  0.926608  0  0.647992  0  0  0.806944  0.904032  0  0.685837  0
H  H4  1  0.05235429  0.38851568  0.93505052  1  0  0.406845  0  0.914713  0  0  0.376256  0  0.979812  0  0  0.388192  0  0.962308  0  0  0.281749  0.367823  0  0.99215  0
H  H5  1  0.55235846  0.11148310  0.06494996  1  0  0.406847  0  0.914721  0  0  0.376263  0  0.979817  0  0  0.388199  0  0.962314  0  0  0.281749  0.367825  0  0.992164  0
H  H6  1  0.94764180  0.61148388  0.06494862  1  0  0.406873  0  0.914679  0  0  0.376278  0  0.979793  0  0  0.388212  0  0.962293  0  0  0.28174  0.367845  0  0.992131  0
H  H7  1  0.44764290  0.88851737  0.93505144  1  0  0.406856  0  0.914706  0  0  0.376258  0  0.979827  0  0  0.388194  0  0.962323  0  0  0.281738  0.367822  0  0.99217  0
H  H8  1  0.41796211  0.32851531  0.94081806  1  0  0.392923  0  0.918731  0  0  0.365569  0  0.985705  0  0  0.375858  0  0.97027  0  0  0.286193  0.358201  0  0.996751  0
H  H9  1  0.91796815  0.17148205  0.05918237  1  0  0.392959  0  0.918726  0  0  0.365611  0  0.985648  0  0  0.3759  0  0.970212  0  0  0.286182  0.358237  0  0.996706  0
H  H10  1  0.58202872  0.67148156  0.05918208  1  0  0.393012  0  0.91863  0  0  0.365676  0  0.985557  0  0  0.375968  0  0.970116  0  0  0.286189  0.358311  0  0.996601  0
H  H11  1  0.08203847  0.82851481  0.94081666  1  0  0.39293  0  0.918713  0  0  0.36558  0  0.985683  0  0  0.375869  0  0.970248  0  0  0.286147  0.358209  0  0.996739  0
H  H12  1  0.73409740  0.61225518  0.51240894  1  0  0.08258  0  0.963315  0  0  0.094651  0  1.02749  0  0  0.097232  0  1.026402  0  0  0.096617  0.092818  0  1.028281  0
H  H13  1  0.23408267  0.88774369  0.48759157  1  0  0.082618  0  0.963281  0  0  0.094661  0  1.027495  0  0  0.097242  0  1.026409  0  0  0.096612  0.092823  0  1.028291  0
H  H14  1  0.26592237  0.38774348  0.48759072  1  0  0.082658  0  0.96318  0  0  0.09471  0  1.027385  0  0  0.097291  0  1.0263  0  0  0.096629  0.092871  0  1.02818  0
H  H15  1  0.76591342  0.11225769  0.51241043  1  0  0.082626  0  0.96322  0  0  0.09467  0  1.027432  0  0  0.097255  0  1.026335  0  0  0.096609  0.09283  0  1.028228  0
H  H16  1  0.15368629  0.44036731  0.24294042  1  0  0.090952  0  0.982376  0  0  0.094039  0  1.059398  0  0  0.098488  0  1.055138  0  0  0.106242  0.090847  0  1.062361  0
H  H17  1  0.65367803  0.05963043  0.75706003  1  0  0.091054  0  0.982374  0  0  0.094102  0  1.059406  0  0  0.098548  0  1.055156  0  0  0.106278  0.09091  0  1.062371  0
H  H18  1  0.84632295  0.55962598  0.75706011  1  0  0.090991  0  0.982392  0  0  0.094008  0  1.059483  0  0  0.098451  0  1.055238  0  0  0.106217  0.090822  0  1.062462  0
H  H19  1  0.34632332  0.94037183  0.24294035  1  0  0.090895  0  0.982392  0  0  0.093901  0  1.0595  0  0  0.098346  0  1.05525  0  0  0.106187  0.090716  0  1.062473  0
H  H20  1  0.26094950  0.39562755  0.37210847  1  0  0.081748  0  0.982281  0  0  0.093292  0  1.046145  0  0  0.095493  0  1.04631  0  0  0.095987  0.091698  0  1.046165  0
H  H21  1  0.76093540  0.10437273  0.62789209  1  0  0.081735  0  0.982316  0  0  0.09328  0  1.046172  0  0  0.095479  0  1.046339  0  0  0.095972  0.091692  0  1.046179  0
H  H22  1  0.73906764  0.60437202  0.62789234  1  0  0.081752  0  0.982301  0  0  0.093299  0  1.046154  0  0  0.095499  0  1.04632  0  0  0.095978  0.091714  0  1.046163  0
H  H23  1  0.23906332  0.89562863  0.37210825  1  0  0.081758  0  0.982286  0  0  0.093293  0  1.046158  0  0  0.095493  0  1.046325  0  0  0.095984  0.091704  0  1.04617  0
H  H24  1  0.64823493  0.78459987  0.28404820  1  0  0.095779  0  0.956543  0  0  0.106075  0  1.019561  0  0  0.108968  0  1.018005  0  0  0.107239  0.103964  0  1.020777  0
H  H25  1  0.14825133  0.71540002  0.71595346  1  0  0.095788  0  0.956564  0  0  0.106079  0  1.01958  0  0  0.108974  0  1.018015  0  0  0.107251  0.103973  0  1.020796  0
H  H26  1  0.35175327  0.21539878  0.71595035  1  0  0.095822  0  0.956528  0  0  0.106109  0  1.019558  0  0  0.108999  0  1.018007  0  0  0.107263  0.104  0  1.020768  0
H  H27  1  0.85174476  0.28459956  0.28404845  1  0  0.095792  0  0.95657  0  0  0.106079  0  1.019593  0  0  0.108971  0  1.018035  0  0  0.107248  0.103972  0  1.020801  0
H  H28  1  0.75671370  0.74144612  0.41489599  1  0  0.083954  0  0.959413  0  0  0.095012  0  1.023816  0  0  0.097567  0  1.023419  0  0  0.095397  0.093149  0  1.024205  0
H  H29  1  0.25670849  0.75855361  0.58510511  1  0  0.083981  0  0.959392  0  0  0.09504  0  1.023788  0  0  0.097598  0  1.023391  0  0  0.09541  0.093178  0  1.02418  0
H  H30  1  0.24329555  0.25855343  0.58510205  1  0  0.08396  0  0.95934  0  0  0.095008  0  1.023752  0  0  0.097562  0  1.023356  0  0  0.09541  0.093148  0  1.024135  0
H  H31  1  0.74328497  0.24144776  0.41489689  1  0  0.083956  0  0.959432  0  0  0.095034  0  1.023814  0  0  0.097592  0  1.023419  0  0  0.095403  0.093172  0  1.024202  0
C  C32  1  0.30369313  0.64342854  0.17709429  1  0  0.66745  0  3.910711  0  0  0.62037  0  4.20275  0  0  0.654148  0  4.194123  0  0  0.202836  0.597486  0  4.20783  0
C  C33  1  0.80369693  0.85656934  0.82290728  1  0  0.667479  0  3.91062  0  0  0.620449  0  4.202615  0  0  0.654228  0  4.193982  0  0  0.202917  0.59756  0  4.207706  0
C  C34  1  0.69631086  0.35657192  0.82290545  1  0  0.667465  0  3.910616  0  0  0.620391  0  4.20269  0  0  0.65417  0  4.194062  0  0  0.202828  0.597497  0  4.207783  0
C  C35  1  0.19629916  0.14343202  0.17709361  1  0  0.667421  0  3.910729  0  0  0.620331  0  4.202772  0  0  0.65411  0  4.194144  0  0  0.202855  0.597441  0  4.207861  0
C  C36  1  0.56619282  0.54598628  0.48193741  1  0  -0.11311  0  3.746283  0  0  -0.1327  0  3.997273  0  0  -0.13475  0  4.017581  0  0  -0.090794  -0.131198  0  3.983351  0
C  C37  1  0.06618252  0.95401372  0.51806260  1  0  -0.113127  0  3.746292  0  0  -0.132691  0  3.997276  0  0  -0.134743  0  4.017586  0  0  -0.090779  -0.131191  0  3.983348  0
C  C38  1  0.43382695  0.45401507  0.51806182  1  0  -0.113091  0  3.746128  0  0  -0.132672  0  3.997117  0  0  -0.134724  0  4.017426  0  0  -0.090748  -0.131163  0  3.983186  0
C  C39  1  0.93381357  0.04598585  0.48193876  1  0  -0.113066  0  3.746157  0  0  -0.132645  0  3.997134  0  0  -0.134696  0  4.017446  0  0  -0.090754  -0.131138  0  3.983202  0
C  C40  1  0.28231087  0.50670928  0.28118224  1  0  -0.070116  0  3.75051  0  0  -0.09447  0  4.002079  0  0  -0.093909  0  4.022544  0  0  -0.079831  -0.094513  0  3.988074  0
C  C41  1  0.78230768  0.99329132  0.71881890  1  0  -0.0701  0  3.750804  0  0  -0.094389  0  4.002363  0  0  -0.093829  0  4.022825  0  0  -0.079747  -0.094436  0  3.988362  0
C  C42  1  0.71769838  0.49328760  0.71881845  1  0  -0.070131  0  3.750639  0  0  -0.094416  0  4.002278  0  0  -0.093856  0  4.022744  0  0  -0.079782  -0.094473  0  3.988305  0
C  C43  1  0.21769104  0.00671273  0.28118156  1  0  -0.070032  0  3.750564  0  0  -0.094335  0  4.002166  0  0  -0.093774  0  4.022634  0  0  -0.079739  -0.094396  0  3.988182  0
C  C44  1  0.38338206  0.61713016  0.25547986  1  0  -0.07335  0  3.739351  0  0  -0.050524  0  3.971618  0  0  -0.059286  0  3.995478  0  0  -0.016496  -0.044838  0  3.955503  0
C  C45  1  0.88337763  0.88287298  0.74452084  1  0  -0.073335  0  3.739257  0  0  -0.050567  0  3.971551  0  0  -0.059327  0  3.995406  0  0  -0.016566  -0.044877  0  3.955434  0
C  C46  1  0.61661666  0.38286760  0.74451921  1  0  -0.073285  0  3.739215  0  0  -0.050522  0  3.97157  0  0  -0.05928  0  3.995428  0  0  -0.016473  -0.044839  0  3.95547  0
C  C47  1  0.11661057  0.11713107  0.25547962  1  0  -0.073259  0  3.739147  0  0  -0.050393  0  3.971346  0  0  -0.059153  0  3.995204  0  0  -0.016475  -0.044696  0  3.955224  0
C  C48  1  0.34282681  0.48208785  0.35403560  1  0  -0.107174  0  3.717455  0  0  -0.122013  0  3.956789  0  0  -0.1268  0  3.979491  0  0  -0.087676  -0.118869  0  3.941424  0
C  C49  1  0.84281906  0.01791321  0.64596554  1  0  -0.107245  0  3.717581  0  0  -0.122083  0  3.956919  0  0  -0.12687  0  3.979622  0  0  -0.087744  -0.118947  0  3.941565  0
C  C50  1  0.65718506  0.51791082  0.64596517  1  0  -0.107241  0  3.717624  0  0  -0.122063  0  3.956922  0  0  -0.126851  0  3.979626  0  0  -0.087719  -0.118924  0  3.941578  0
C  C51  1  0.15717703  0.98208905  0.35403538  1  0  -0.10722  0  3.717626  0  0  -0.122044  0  3.956928  0  0  -0.126832  0  3.979631  0  0  -0.087708  -0.11891  0  3.941576  0
C  C52  1  0.50696877  0.56701858  0.40444349  1  0  0.093208  0  3.821044  0  0  0.112463  0  4.04773  0  0  0.114397  0  4.0721  0  0  -0.009867  0.111303  0  4.031046  0
C  C53  1  0.00696664  0.93297972  0.59555755  1  0  0.093193  0  3.820966  0  0  0.112427  0  4.047683  0  0  0.114365  0  4.072047  0  0  -0.00987  0.111279  0  4.03099  0
C  C54  1  0.49304573  0.43298099  0.59555676  1  0  0.093178  0  3.821011  0  0  0.112433  0  4.047702  0  0  0.11437  0  4.07207  0  0  -0.009866  0.11128  0  4.031011  0
C  C55  1  0.99303471  0.06701985  0.40444326  1  0  0.093119  0  3.821015  0  0  0.112391  0  4.04768  0  0  0.114328  0  4.072047  0  0  -0.009907  0.111245  0  4.030982  0
C  C56  1  0.55820901  0.70054722  0.30428646  1  0  -0.058367  0  3.741218  0  0  -0.081725  0  3.988698  0  0  -0.08076  0  4.009392  0  0  -0.080131  -0.082127  0  3.97459  0
C  C57  1  0.05821910  0.79945189  0.69571351  1  0  -0.058337  0  3.741031  0  0  -0.081669  0  3.98853  0  0  -0.080712  0  4.009251  0  0  -0.08008  -0.082077  0  3.974438  0
C  C58  1  0.44178971  0.29945054  0.69571205  1  0  -0.058445  0  3.741228  0  0  -0.081778  0  3.988754  0  0  -0.08081  0  4.009435  0  0  -0.080145  -0.082177  0  3.974645  0
C  C59  1  0.94177700  0.20054857  0.30428734  1  0  -0.058341  0  3.74115  0  0  -0.081697  0  3.988647  0  0  -0.080733  0  4.00935  0  0  -0.080085  -0.082106  0  3.974544  0
C  C60  1  0.61847763  0.67594926  0.37750492  1  0  -0.123152  0  3.728182  0  0  -0.139633  0  3.975854  0  0  -0.144423  0  3.997676  0  0  -0.090182  -0.136406  0  3.960953  0
C  C61  1  0.11847687  0.82404977  0.62249560  1  0  -0.123206  0  3.728162  0  0  -0.139683  0  3.975846  0  0  -0.144478  0  3.997665  0  0  -0.090232  -0.136466  0  3.960957  0
C  C62  1  0.38152635  0.32404940  0.62249419  1  0  -0.123106  0  3.728078  0  0  -0.139574  0  3.975756  0  0  -0.144363  0  3.997577  0  0  -0.090179  -0.13635  0  3.960848  0
C  C63  1  0.88151396  0.17595159  0.37750529  1  0  -0.12319  0  3.728211  0  0  -0.139697  0  3.975883  0  0  -0.144495  0  3.997709  0  0  -0.090227  -0.136476  0  3.960982  0
O  O64  1  0.22411932  0.36064320  0.97262615  1  0  -0.92524  0  1.80451  0  0  -0.884777  0  1.979026  0  0  -0.902097  0  1.946696  0  0  -0.729624  -0.87223  0  2.001765  0
O  O65  1  0.72412050  0.13935534  0.02737488  1  0  -0.925267  0  1.804519  0  0  -0.884834  0  1.979014  0  0  -0.902157  0  1.946687  0  0  -0.729617  -0.872274  0  2.001759  0
O  O66  1  0.77587941  0.63935905  0.02737367  1  0  -0.925354  0  1.804448  0  0  -0.884917  0  1.978909  0  0  -0.902248  0  1.946588  0  0  -0.729605  -0.872371  0  2.001656  0
O  O67  1  0.27588348  0.86063974  0.97262573  1  0  -0.925239  0  1.804472  0  0  -0.884782  0  1.978999  0  0  -0.902111  0  1.946685  0  0  -0.729579  -0.87223  0  2.001744  0
O  O68  1  0.15856364  0.55932956  0.13527042  1  0  -0.743503  0  2.023002  0  0  -0.684712  0  2.257259  0  0  -0.710321  0  2.246698  0  0  -0.446978  -0.66643  0  2.263722  0
O  O69  1  0.65855587  0.94067747  0.86472934  1  0  -0.743572  0  2.022826  0  0  -0.684786  0  2.257058  0  0  -0.710399  0  2.246497  0  0  -0.447026  -0.666483  0  2.263499  0
O  O70  1  0.84143245  0.44066819  0.86472809  1  0  -0.743501  0  2.023182  0  0  -0.684707  0  2.257447  0  0  -0.710318  0  2.246884  0  0  -0.446965  -0.666425  0  2.263901  0
O  O71  1  0.34143496  0.05933106  0.13527076  1  0  -0.743519  0  2.022922  0  0  -0.684728  0  2.257166  0  0  -0.71034  0  2.246606  0  0  -0.447003  -0.666444  0  2.263627  0
O  O72  1  0.38464945  0.74509415  0.15483243  1  0  -0.731662  0  1.959465  0  0  -0.681257  0  2.197354  0  0  -0.704617  0  2.185829  0  0  -0.447642  -0.664737  0  2.204869  0
O  O73  1  0.88464401  0.75491169  0.84517005  1  0  -0.731688  0  1.959735  0  0  -0.681313  0  2.197645  0  0  -0.704666  0  2.186117  0  0  -0.447693  -0.664802  0  2.205178  0
O  O74  1  0.61533085  0.25490542  0.84516783  1  0  -0.731712  0  1.959293  0  0  -0.681308  0  2.197192  0  0  -0.704669  0  2.18567  0  0  -0.447657  -0.664766  0  2.204692  0
O  O75  1  0.11533893  0.24509326  0.15483155  1  0  -0.731657  0  1.959597  0  0  -0.681263  0  2.197526  0  0  -0.704622  0  2.186001  0  0  -0.447644  -0.664742  0  2.205045  0
