# generated using pymatgen
data_AgH7C7SO7
_symmetry_space_group_name_H-M   'P 1'
_cell_length_a   7.73574962
_cell_length_b   10.90328151
_cell_length_c   11.78325787
_cell_angle_alpha   103.22412075
_cell_angle_beta   89.98897978
_cell_angle_gamma   110.77924864
_symmetry_Int_Tables_number   1
_chemical_formula_structural   AgH7C7SO7
_chemical_formula_sum   'Ag4 H28 C28 S4 O28'
_cell_volume   900.98678001
_cell_formula_units_Z   4
loop_
 _symmetry_equiv_pos_site_id
 _symmetry_equiv_pos_as_xyz
  1  'x, y, z'
loop_
 _atom_site_type_symbol
 _atom_site_label
 _atom_site_symmetry_multiplicity
 _atom_site_fract_x
 _atom_site_fract_y
 _atom_site_fract_z
 _atom_site_occupancy
 _atom_site_hle17_bader_spin_density
 _atom_site_hle17_ddec_charge
 _atom_site_hle17_ddec_spin_density
 _atom_site_hle17_ddec_sum_bond_order
 _atom_site_hle17_magmom
 _atom_site_hse06_10hf_bader_spin_density
 _atom_site_hse06_10hf_ddec_charge
 _atom_site_hse06_10hf_ddec_spin_density
 _atom_site_hse06_10hf_ddec_sum_bond_order
 _atom_site_hse06_10hf_magmom
 _atom_site_hse06_bader_spin_density
 _atom_site_hse06_ddec_charge
 _atom_site_hse06_ddec_spin_density
 _atom_site_hse06_ddec_sum_bond_order
 _atom_site_hse06_magmom
 _atom_site_pbe_bader_spin_density
 _atom_site_pbe_cm5_charge
 _atom_site_pbe_ddec_charge
 _atom_site_pbe_ddec_spin_density
 _atom_site_pbe_ddec_sum_bond_order
 _atom_site_pbe_magmom
Ag  Ag0  1  0.80973164  0.97123872  0.58870070  1  0  0.755685  0  1.090826  0  0  0.651384  0  1.483339  0  0  0.680289  0  1.431696  0  0  0.45996  0.629957  0  1.520286  0
Ag  Ag1  1  0.83850577  0.02886189  0.91124163  1  0  0.75593  0  1.089133  0  0  0.651657  0  1.481706  0  0  0.680551  0  1.430014  0  0  0.46013  0.630143  0  1.51839  0
Ag  Ag2  1  0.19026730  0.02875997  0.41129779  1  0  0.755694  0  1.090796  0  0  0.651405  0  1.48331  0  0  0.680305  0  1.431667  0  0  0.459969  0.629975  0  1.520255  0
Ag  Ag3  1  0.16149497  0.97113782  0.08875877  1  0  0.755964  0  1.089148  0  0  0.651692  0  1.481712  0  0  0.680583  0  1.430021  0  0  0.460151  0.630178  0  1.518395  0
H  H4  1  0.96793937  0.21708284  0.43712926  1  0  0.400322  0  0.889289  0  0  0.372753  0  0.9609  0  0  0.383471  0  0.949688  0  0  0.307335  0.365232  0  0.968639  0
H  H5  1  0.75087415  0.78292249  0.06275782  1  0  0.400353  0  0.888452  0  0  0.372846  0  0.959689  0  0  0.383581  0  0.948492  0  0  0.307621  0.365388  0  0.967345  0
H  H6  1  0.03206008  0.78291687  0.56287029  1  0  0.400342  0  0.889268  0  0  0.372761  0  0.96089  0  0  0.383478  0  0.949677  0  0  0.307341  0.36524  0  0.96863  0
H  H7  1  0.24912839  0.21707823  0.93724110  1  0  0.400377  0  0.888428  0  0  0.372856  0  0.959685  0  0  0.383595  0  0.948485  0  0  0.307644  0.365397  0  0.96734  0
H  H8  1  0.32820134  0.76343765  0.41168901  1  0  0.417156  0  0.861184  0  0  0.385547  0  0.936631  0  0  0.398356  0  0.923288  0  0  0.306459  0.376494  0  0.946033  0
H  H9  1  0.56450620  0.23654728  0.08836250  1  0  0.417303  0  0.861078  0  0  0.386037  0  0.935912  0  0  0.398891  0  0.922497  0  0  0.306484  0.376968  0  0.945316  0
H  H10  1  0.67179890  0.23656105  0.58831118  1  0  0.417184  0  0.861222  0  0  0.385571  0  0.936669  0  0  0.39838  0  0.923326  0  0  0.306456  0.376516  0  0.946073  0
H  H11  1  0.43549635  0.76345344  0.91163726  1  0  0.417284  0  0.861129  0  0  0.386018  0  0.935963  0  0  0.39887  0  0.92255  0  0  0.306479  0.376949  0  0.945366  0
H  H12  1  0.65761965  0.15523432  0.74279142  1  0  0.428578  0  0.860071  0  0  0.396805  0  0.933949  0  0  0.406775  0  0.919328  0  0  0.297991  0.389721  0  0.944332  0
H  H13  1  0.50252742  0.84482632  0.75719559  1  0  0.429021  0  0.859754  0  0  0.397056  0  0.933432  0  0  0.407018  0  0.918857  0  0  0.298326  0.389983  0  0.943802  0
H  H14  1  0.34238059  0.84476438  0.25720877  1  0  0.428575  0  0.860074  0  0  0.396802  0  0.933953  0  0  0.406772  0  0.919334  0  0  0.297986  0.389718  0  0.944338  0
H  H15  1  0.49747462  0.15517338  0.24280396  1  0  0.429029  0  0.859753  0  0  0.397063  0  0.933424  0  0  0.407025  0  0.918847  0  0  0.298329  0.38999  0  0.943793  0
H  H16  1  0.48955159  0.08276244  0.64542336  1  0  0.435991  0  0.847726  0  0  0.408612  0  0.909831  0  0  0.418591  0  0.895263  0  0  0.302739  0.401368  0  0.920461  0
H  H17  1  0.40690215  0.91733294  0.85457069  1  0  0.435922  0  0.8455  0  0  0.408189  0  0.910068  0  0  0.418178  0  0.895472  0  0  0.302723  0.401048  0  0.920489  0
H  H18  1  0.51044814  0.91723524  0.35457577  1  0  0.435986  0  0.847747  0  0  0.408601  0  0.909857  0  0  0.41858  0  0.895289  0  0  0.302716  0.401355  0  0.920489  0
H  H19  1  0.59309939  0.08266576  0.14542950  1  0  0.435884  0  0.845516  0  0  0.408151  0  0.910117  0  0  0.418139  0  0.895522  0  0  0.302721  0.40101  0  0.920538  0
H  H20  1  0.11964152  0.44542814  0.44830111  1  0  0.127106  0  0.961953  0  0  0.132465  0  1.031248  0  0  0.136204  0  1.029302  0  0  0.109816  0.129723  0  1.032822  0
H  H21  1  0.67392336  0.55460256  0.05155495  1  0  0.126782  0  0.962785  0  0  0.132936  0  1.031003  0  0  0.136591  0  1.029144  0  0  0.109971  0.13017  0  1.032689  0
H  H22  1  0.88035923  0.55457157  0.55170014  1  0  0.127101  0  0.961934  0  0  0.132453  0  1.031235  0  0  0.136208  0  1.029267  0  0  0.109814  0.129712  0  1.032808  0
H  H23  1  0.32607682  0.44540118  0.94844290  1  0  0.126776  0  0.962768  0  0  0.132937  0  1.030979  0  0  0.136591  0  1.029121  0  0  0.109956  0.130178  0  1.032658  0
H  H24  1  0.57928852  0.65828740  0.71305192  1  0  0.114244  0  0.961039  0  0  0.122184  0  1.023643  0  0  0.125626  0  1.022462  0  0  0.105332  0.119586  0  1.024786  0
H  H25  1  0.92096464  0.34158853  0.78704031  1  0  0.113853  0  0.962089  0  0  0.121901  0  1.024546  0  0  0.125419  0  1.023278  0  0  0.105107  0.119285  0  1.025663  0
H  H26  1  0.42071172  0.34171130  0.28694912  1  0  0.114229  0  0.96106  0  0  0.12218  0  1.023658  0  0  0.125613  0  1.022488  0  0  0.105323  0.119581  0  1.0248  0
H  H27  1  0.07903533  0.65841219  0.21296200  1  0  0.113833  0  0.962117  0  0  0.121858  0  1.024589  0  0  0.125389  0  1.023308  0  0  0.105096  0.119245  0  1.025705  0
H  H28  1  0.50969460  0.44941295  0.78559372  1  0  0.099644  0  0.978097  0  0  0.105993  0  1.046942  0  0  0.108156  0  1.046847  0  0  0.103054  0.104415  0  1.047131  0
H  H29  1  0.06068944  0.55046440  0.71454764  1  0  0.099816  0  0.977996  0  0  0.106656  0  1.046332  0  0  0.108814  0  1.046213  0  0  0.103091  0.105117  0  1.046386  0
H  H30  1  0.49030564  0.55058575  0.21440562  1  0  0.099647  0  0.978102  0  0  0.105998  0  1.046938  0  0  0.108164  0  1.046838  0  0  0.103059  0.104422  0  1.047127  0
H  H31  1  0.93931209  0.44953430  0.28545255  1  0  0.099828  0  0.978005  0  0  0.106667  0  1.046338  0  0  0.108824  0  1.04622  0  0  0.103111  0.10513  0  1.046391  0
C  C32  1  0.27705658  0.33208586  0.65849401  1  0  -0.237973  0  3.695849  0  0  -0.217174  0  3.946292  0  0  -0.227048  0  3.965945  0  0  -0.031349  -0.210716  0  3.933126  0
C  C33  1  0.94515102  0.66785187  0.84148963  1  0  -0.23803  0  3.696047  0  0  -0.217495  0  3.947006  0  0  -0.227396  0  3.966701  0  0  -0.030934  -0.210882  0  3.933846  0
C  C34  1  0.72294546  0.66791384  0.34150554  1  0  -0.237992  0  3.695802  0  0  -0.217229  0  3.946284  0  0  -0.227102  0  3.965938  0  0  -0.031348  -0.210771  0  3.93312  0
C  C35  1  0.05485023  0.33214884  0.15850929  1  0  -0.237997  0  3.695984  0  0  -0.217479  0  3.94702  0  0  -0.227376  0  3.966709  0  0  -0.030956  -0.210857  0  3.933855  0
C  C36  1  0.16800477  0.32791635  0.56073057  1  0  0.347107  0  3.801202  0  0  0.333315  0  4.058122  0  0  0.346148  0  4.073493  0  0  0.089107  0.324454  0  4.047695  0
C  C37  1  0.84000484  0.67202601  0.93914882  1  0  0.347308  0  3.798046  0  0  0.333044  0  4.05547  0  0  0.345857  0  4.070879  0  0  0.088804  0.324152  0  4.045183  0
C  C38  1  0.83199598  0.67208336  0.43926984  1  0  0.34713  0  3.801148  0  0  0.333347  0  4.058049  0  0  0.346178  0  4.073421  0  0  0.089091  0.324487  0  4.047626  0
C  C39  1  0.15999613  0.32797674  0.06085136  1  0  0.347275  0  3.798012  0  0  0.332942  0  4.055558  0  0  0.345754  0  4.070966  0  0  0.088803  0.324048  0  4.045275  0
C  C40  1  0.20427039  0.44634886  0.52240557  1  0  -0.193029  0  3.667509  0  0  -0.222561  0  3.920149  0  0  -0.227292  0  3.938413  0  0  -0.095975  -0.219417  0  3.908072  0
C  C41  1  0.75770525  0.55360199  0.97746834  1  0  -0.193133  0  3.666643  0  0  -0.222699  0  3.918627  0  0  -0.227378  0  3.936883  0  0  -0.09612  -0.219838  0  3.90681  0
C  C42  1  0.79573035  0.55365085  0.47759483  1  0  -0.193016  0  3.667498  0  0  -0.222535  0  3.920122  0  0  -0.227275  0  3.938374  0  0  -0.095959  -0.219391  0  3.908046  0
C  C43  1  0.24229751  0.44640176  0.02253121  1  0  -0.193094  0  3.666651  0  0  -0.222614  0  3.918604  0  0  -0.227298  0  3.936874  0  0  -0.096086  -0.219761  0  3.906785  0
C  C44  1  0.34944417  0.56536653  0.57919234  1  0  -0.048935  0  3.78373  0  0  -0.029111  0  4.021884  0  0  -0.033504  0  4.04294  0  0  -0.016667  -0.026029  0  4.007575  0
C  C45  1  0.78381554  0.43454056  0.92075658  1  0  -0.048102  0  3.783312  0  0  -0.028468  0  4.021944  0  0  -0.032817  0  4.042954  0  0  -0.016147  -0.025451  0  4.007662  0
C  C46  1  0.65055658  0.43463318  0.42080806  1  0  -0.048874  0  3.783787  0  0  -0.0291  0  4.021916  0  0  -0.033499  0  4.042974  0  0  -0.016668  -0.026017  0  4.007604  0
C  C47  1  0.21618543  0.56546218  0.07924276  1  0  -0.048182  0  3.78339  0  0  -0.028553  0  4.022023  0  0  -0.032906  0  4.043038  0  0  -0.016156  -0.025533  0  4.007746  0
C  C48  1  0.46199811  0.56680778  0.67294709  1  0  -0.080062  0  3.703215  0  0  -0.109025  0  3.961197  0  0  -0.111538  0  3.980602  0  0  -0.090183  -0.107384  0  3.948337  0
C  C49  1  0.89514203  0.43307940  0.82709547  1  0  -0.0799  0  3.703157  0  0  -0.109176  0  3.96153  0  0  -0.111711  0  3.980873  0  0  -0.090204  -0.107214  0  3.948347  0
C  C50  1  0.53800084  0.43319092  0.32705310  1  0  -0.08005  0  3.703186  0  0  -0.109037  0  3.961191  0  0  -0.111544  0  3.980601  0  0  -0.090173  -0.107395  0  3.948332  0
C  C51  1  0.10485844  0.56692234  0.17290535  1  0  -0.079875  0  3.703179  0  0  -0.109102  0  3.961518  0  0  -0.111653  0  3.980854  0  0  -0.0902  -0.107153  0  3.948361  0
C  C52  1  0.42444372  0.45016481  0.71256012  1  0  -0.028384  0  3.749117  0  0  -0.056419  0  4.009813  0  0  -0.053157  0  4.027378  0  0  -0.084744  -0.058459  0  3.997917  0
C  C53  1  0.97455058  0.54974135  0.78752959  1  0  -0.028291  0  3.747724  0  0  -0.056518  0  4.00837  0  0  -0.053248  0  4.025978  0  0  -0.084874  -0.058533  0  3.996298  0
C  C54  1  0.57555573  0.54983490  0.28744028  1  0  -0.028362  0  3.749066  0  0  -0.05638  0  4.009763  0  0  -0.053118  0  4.027325  0  0  -0.084738  -0.05842  0  3.997869  0
C  C55  1  0.02544938  0.45025937  0.21247017  1  0  -0.028345  0  3.747784  0  0  -0.056573  0  4.008433  0  0  -0.053301  0  4.026044  0  0  -0.084894  -0.058593  0  3.996365  0
C  C56  1  0.38880903  0.69263947  0.54087532  1  0  0.684229  0  3.777458  0  0  0.628829  0  4.076703  0  0  0.663667  0  4.065828  0  0  0.240025  0.604874  0  4.083845  0
C  C57  1  0.69568283  0.30731265  0.95910989  1  0  0.683984  0  3.778273  0  0  0.6282  0  4.078221  0  0  0.663057  0  4.067327  0  0  0.239423  0.604247  0  4.085288  0
C  C58  1  0.61118913  0.30736024  0.45912423  1  0  0.684048  0  3.777761  0  0  0.628792  0  4.076789  0  0  0.663635  0  4.065912  0  0  0.240007  0.604836  0  4.083929  0
C  C59  1  0.30431685  0.69269009  0.04089115  1  0  0.684093  0  3.778107  0  0  0.628304  0  4.078067  0  0  0.663164  0  4.067169  0  0  0.239476  0.60435  0  4.085137  0
S  S60  1  0.22414645  0.18651351  0.71485205  1  0  1.337499  0  5.555964  0  0  1.233863  0  6.065116  0  0  1.28287  0  6.042941  0  0  0.520322  1.200076  0  6.079289  0
S  S61  1  0.03757506  0.81344496  0.78512985  1  0  1.335625  0  5.560173  0  0  1.232789  0  6.068967  0  0  1.281766  0  6.04679  0  0  0.519201  1.198836  0  6.083119  0
S  S62  1  0.77585379  0.81348519  0.28514729  1  0  1.337439  0  5.5561  0  0  1.233821  0  6.065247  0  0  1.282822  0  6.043074  0  0  0.52029  1.200038  0  6.079423  0
S  S63  1  0.96242569  0.18655475  0.21486886  1  0  1.335544  0  5.560195  0  0  1.232764  0  6.068943  0  0  1.281739  0  6.046776  0  0  0.519208  1.198807  0  6.083102  0
O  O64  1  0.02811238  0.14889948  0.74044043  1  0  -0.688309  0  2.079246  0  0  -0.626499  0  2.373335  0  0  -0.651495  0  2.355832  0  0  -0.336452  -0.608613  0  2.385097  0
O  O65  1  0.87899064  0.85081848  0.75948578  1  0  -0.688563  0  2.080054  0  0  -0.62679  0  2.373908  0  0  -0.651543  0  2.35606  0  0  -0.336297  -0.608459  0  2.385297  0
O  O66  1  0.97188606  0.85109821  0.25955785  1  0  -0.688292  0  2.07925  0  0  -0.626506  0  2.373366  0  0  -0.651503  0  2.35587  0  0  -0.336494  -0.608612  0  2.385109  0
O  O67  1  0.12100910  0.14917921  0.24051335  1  0  -0.688544  0  2.080071  0  0  -0.626767  0  2.37391  0  0  -0.651521  0  2.356063  0  0  -0.33626  -0.60843  0  2.385291  0
O  O68  1  0.25738636  0.07954236  0.62483791  1  0  -0.690324  0  2.045136  0  0  -0.627877  0  2.320872  0  0  -0.65088  0  2.301234  0  0  -0.335125  -0.611395  0  2.334081  0
O  O69  1  0.17750566  0.92053600  0.87518272  1  0  -0.689891  0  2.045986  0  0  -0.627448  0  2.322251  0  0  -0.650342  0  2.302277  0  0  -0.334612  -0.61072  0  2.334991  0
O  O70  1  0.74260978  0.92045331  0.37516334  1  0  -0.690309  0  2.045182  0  0  -0.627848  0  2.320909  0  0  -0.650853  0  2.301275  0  0  -0.335071  -0.611371  0  2.334131  0
O  O71  1  0.82249379  0.07946370  0.12481684  1  0  -0.689878  0  2.045984  0  0  -0.627452  0  2.322247  0  0  -0.650347  0  2.302277  0  0  -0.334627  -0.610724  0  2.334991  0
O  O72  1  0.35195540  0.22902308  0.82096897  1  0  -0.656306  0  2.02751  0  0  -0.589761  0  2.267738  0  0  -0.613225  0  2.256745  0  0  -0.324773  -0.57334  0  2.274715  0
O  O73  1  0.12311274  0.77107915  0.67904222  1  0  -0.65491  0  2.026645  0  0  -0.589919  0  2.26764  0  0  -0.613228  0  2.256615  0  0  -0.324828  -0.573603  0  2.274896  0
O  O74  1  0.64804304  0.77097460  0.17902931  1  0  -0.656256  0  2.027504  0  0  -0.589735  0  2.267742  0  0  -0.613182  0  2.256736  0  0  -0.32476  -0.573319  0  2.274725  0
O  O75  1  0.87688800  0.22892055  0.32095648  1  0  -0.654834  0  2.02665  0  0  -0.589893  0  2.267674  0  0  -0.613203  0  2.256647  0  0  -0.32486  -0.573577  0  2.274931  0
O  O76  1  0.03331166  0.20866859  0.50764519  1  0  -0.561498  0  2.250557  0  0  -0.507802  0  2.500293  0  0  -0.528356  0  2.4874  0  0  -0.349407  -0.492843  0  2.508325  0
O  O77  1  0.82460228  0.79131449  0.99221576  1  0  -0.561113  0  2.246957  0  0  -0.507309  0  2.496774  0  0  -0.527874  0  2.483809  0  0  -0.349391  -0.492649  0  2.504919  0
O  O78  1  0.96668780  0.79133112  0.49235521  1  0  -0.561514  0  2.250553  0  0  -0.507805  0  2.500281  0  0  -0.528364  0  2.487405  0  0  -0.349403  -0.492847  0  2.508318  0
O  O79  1  0.17539998  0.20868826  0.00778442  1  0  -0.561117  0  2.246975  0  0  -0.507276  0  2.49681  0  0  -0.52784  0  2.483842  0  0  -0.349428  -0.492619  0  2.504962  0
O  O80  1  0.29494797  0.67704815  0.44180341  1  0  -0.539706  0  2.118985  0  0  -0.478788  0  2.339246  0  0  -0.503019  0  2.328032  0  0  -0.318618  -0.462034  0  2.346699  0
O  O81  1  0.61759681  0.32295383  0.05826059  1  0  -0.53981  0  2.119844  0  0  -0.478909  0  2.339872  0  0  -0.503281  0  2.328704  0  0  -0.318491  -0.462214  0  2.347354  0
O  O82  1  0.70505227  0.32295054  0.55819593  1  0  -0.539718  0  2.119116  0  0  -0.478831  0  2.3393  0  0  -0.503066  0  2.328085  0  0  -0.318632  -0.462078  0  2.346755  0
O  O83  1  0.38240315  0.67704689  0.94174002  1  0  -0.539853  0  2.119743  0  0  -0.478954  0  2.339783  0  0  -0.503327  0  2.328614  0  0  -0.31855  -0.462259  0  2.347267  0
O  O84  1  0.50069487  0.80330773  0.59907176  1  0  -0.611651  0  2.069571  0  0  -0.556672  0  2.328904  0  0  -0.57917  0  2.314156  0  0  -0.299468  -0.541242  0  2.339392  0
O  O85  1  0.69669232  0.19657457  0.90089336  1  0  -0.611332  0  2.069092  0  0  -0.556438  0  2.329051  0  0  -0.578968  0  2.314259  0  0  -0.299056  -0.541111  0  2.339159  0
O  O86  1  0.49929784  0.19669399  0.40092567  1  0  -0.611566  0  2.069686  0  0  -0.556654  0  2.328983  0  0  -0.579136  0  2.314197  0  0  -0.299443  -0.541224  0  2.339469  0
O  O87  1  0.30330994  0.80342818  0.09910768  1  0  -0.611357  0  2.069131  0  0  -0.55643  0  2.329038  0  0  -0.578949  0  2.314225  0  0  -0.299032  -0.541103  0  2.339149  0
O  O88  1  0.62709618  0.12137221  0.65661195  1  0  -0.812093  0  1.915652  0  0  -0.750212  0  2.116062  0  0  -0.771785  0  2.082832  0  0  -0.559574  -0.734681  0  2.139434  0
O  O89  1  0.50579849  0.87869675  0.84337259  1  0  -0.812139  0  1.913585  0  0  -0.750019  0  2.115984  0  0  -0.771654  0  2.082658  0  0  -0.559729  -0.734432  0  2.13909  0
O  O90  1  0.37290327  0.87862750  0.34338760  1  0  -0.812094  0  1.915674  0  0  -0.750213  0  2.11608  0  0  -0.771789  0  2.082848  0  0  -0.559551  -0.734681  0  2.139454  0
O  O91  1  0.49420125  0.12130093  0.15662739  1  0  -0.812115  0  1.913557  0  0  -0.74999  0  2.115963  0  0  -0.771625  0  2.082638  0  0  -0.559735  -0.734402  0  2.13907  0
