# generated using pymatgen
data_Zn2H24C41(NO)8
_symmetry_space_group_name_H-M   'P 1'
_cell_length_a   20.03062693
_cell_length_b   19.63033652
_cell_length_c   19.57337818
_cell_angle_alpha   112.27751088
_cell_angle_beta   104.04270166
_cell_angle_gamma   112.03106550
_symmetry_Int_Tables_number   1
_chemical_formula_structural   Zn2H24C41(NO)8
_chemical_formula_sum   'Zn4 H48 C82 N16 O16'
_cell_volume   5900.16949733
_cell_formula_units_Z   2
loop_
 _symmetry_equiv_pos_site_id
 _symmetry_equiv_pos_as_xyz
  1  'x, y, z'
loop_
 _atom_site_type_symbol
 _atom_site_label
 _atom_site_symmetry_multiplicity
 _atom_site_fract_x
 _atom_site_fract_y
 _atom_site_fract_z
 _atom_site_occupancy
 _atom_site_pbe_bader_charge
 _atom_site_pbe_bader_spin_density
 _atom_site_pbe_cm5_charge
 _atom_site_pbe_ddec_charge
 _atom_site_pbe_ddec_spin_density
 _atom_site_pbe_ddec_sum_bond_order
 _atom_site_pbe_magmom
Zn  Zn0  1  0.99477539  0.61096897  0.10330973  1  1.228553  0  0.738336  0.638153  0  2.481253  0
Zn  Zn1  1  0.99771305  0.37830611  0.87772773  1  1.219862  0  0.742971  0.653185  0  2.364972  0
Zn  Zn2  1  0.09593285  0.59379591  0.98861071  1  1.188855  0  0.747252  0.594345  0  2.512484  0
Zn  Zn3  1  0.90359887  0.39957585  0.99650971  1  1.192489  0  0.742027  0.610833  0  2.429643  0
H  H4  1  0.39922666  0.45228879  0.75250765  1  0.108578  0  0.112779  0.123825  0  0.971104  0
H  H5  1  0.60437758  0.54515718  0.01803921  1  0.113624  0  0.112922  0.124474  0  0.970317  0
H  H6  1  0.45223844  0.98086622  0.56683613  1  0.044052  0  0.096827  0.082764  0  0.996038  0
H  H7  1  0.52124528  0.76735871  0.43357680  1  0.060953  0  0.098619  0.085971  0  0.994258  0
H  H8  1  0.43978540  0.91690258  0.40460822  1  0.046338  0  0.098424  0.085059  0  0.99226  0
H  H9  1  0.53372211  0.83131113  0.59576688  1  0.051874  0  0.097656  0.084359  0  0.996263  0
H  H10  1  0.37853971  0.80976608  0.53416158  1  0.041191  0  0.097483  0.084018  0  0.995394  0
H  H11  1  0.59507626  0.93849384  0.46649364  1  0.061173  0  0.098304  0.084946  0  0.994371  0
H  H12  1  0.91896760  0.42406562  0.43193794  1  0.044859  0  0.102236  0.104025  0  0.987295  0
H  H13  1  0.76106189  0.54497086  0.52664823  1  0.064302  0  0.102473  0.104863  0  0.989301  0
H  H14  1  0.98008065  0.57084175  0.58762600  1  0.091155  0  0.102263  0.103784  0  0.987231  0
H  H15  1  0.69999943  0.39806901  0.37175686  1  0.059228  0  0.101509  0.103121  0  0.991857  0
H  H16  1  0.15447216  0.05157048  0.00573661  1  0.106839  0  0.110539  0.10854  0  0.972589  0
H  H17  1  0.16907856  0.22727797  0.27269503  1  0.0704  0  0.110081  0.108748  0  0.972143  0
H  H18  1  0.02909844  0.07835598  0.02786259  1  0.086029  0  0.111512  0.110111  0  0.969947  0
H  H19  1  0.29353791  0.20084164  0.24939751  1  0.088269  0  0.109836  0.105211  0  0.974388  0
H  H20  1  0.84233429  0.18187358  0.71070857  1  0.085201  0  0.121448  0.111478  0  0.98568  0
H  H21  1  0.12071148  0.63934427  0.26416219  1  0.114464  0  0.12169  0.114044  0  0.987478  0
H  H22  1  0.98689279  0.62626236  0.86585143  1  0.086368  0  0.120861  0.111726  0  0.992285  0
H  H23  1  0.83344199  0.35438013  0.12164577  1  0.051364  0  0.122008  0.113408  0  0.990203  0
H  H24  1  0.74604602  0.35711421  0.85677555  1  0.097128  0  0.121364  0.112561  0  1.00287  0
H  H25  1  0.26950268  0.64183200  0.98052567  1  0.089863  0  0.122218  0.112831  0  0.987477  0
H  H26  1  0.86436117  0.34748165  0.71961552  1  0.094744  0  0.1222  0.112532  0  0.994886  0
H  H27  1  0.94369156  0.63146383  0.26137838  1  0.086579  0  0.118725  0.108719  0  0.995639  0
H  H28  1  0.86100035  0.63529564  0.00041154  1  0.132226  0  0.123743  0.11717  0  0.983256  0
H  H29  1  0.14834590  0.36400899  0.83660325  1  0.121782  0  0.118966  0.108901  0  1.009867  0
H  H30  1  0.73301662  0.21087741  0.87718759  1  0.114842  0  0.121024  0.112227  0  0.989175  0
H  H31  1  0.24436699  0.60684962  0.11144487  1  0.13057  0  0.120627  0.112725  0  1.000027  0
H  H32  1  0.18277149  0.79969351  0.02567122  1  0.090627  0  0.128375  0.122021  0  0.978787  0
H  H33  1  0.02494602  0.40655908  0.15235713  1  0.116053  0  0.125879  0.121155  0  0.98525  0
H  H34  1  0.96510780  0.75922492  0.21797086  1  0.633638  0  0.358264  0.399998  0  0.830974  0
H  H35  1  0.06559148  0.22869337  0.82860791  1  0.613029  0  0.34918  0.388722  0  0.845089  0
H  H36  1  0.54686721  0.76588473  0.03604592  1  0.609525  0  0.344089  0.378093  0  0.860137  0
H  H37  1  0.45731148  0.23154036  0.73861918  1  0.601886  0  0.343847  0.377049  0  0.858889  0
H  H38  1  0.79663158  0.26484092  0.35286197  1  0.022518  0  0.094401  0.087064  0  0.996712  0
H  H39  1  0.69933697  0.25420729  0.32589196  1  0.049159  0  0.094118  0.086303  0  0.997844  0
H  H40  1  0.72200982  0.19460761  0.36839283  1  0.038771  0  0.107508  0.111857  0  0.973598  0
H  H41  1  0.98135258  0.71681844  0.63168753  1  0.045961  0  0.094553  0.087194  0  0.995391  0
H  H42  1  0.88381546  0.70551889  0.60456117  1  0.049888  0  0.095873  0.088865  0  0.994241  0
H  H43  1  0.95739047  0.77422525  0.58689650  1  0.046226  0  0.10728  0.111265  0  0.97411  0
H  H44  1  0.36455791  0.35631475  0.15613828  1  0.614614  0  0.347112  0.382677  0  0.851611  0
H  H45  1  0.04414307  0.98720923  0.23559883  1  0.674577  0  0.322179  0.388269  0  0.904692  0
H  H46  1  0.52010831  0.67650978  0.85136039  1  0.072568  0  0.09498  0.09822  0  1.016756  0
H  H47  1  0.46918176  0.58383369  0.74872528  1  0.032879  0  0.097359  0.09158  0  0.996712  0
H  H48  1  0.56489945  0.67434104  0.78188511  1  0.066378  0  0.110632  0.116723  0  0.969765  0
H  H49  1  0.53140007  0.41632619  0.02714030  1  0.048837  0  0.096729  0.091244  0  0.99595  0
H  H50  1  0.48520259  0.32368642  0.92539306  1  0.065908  0  0.095697  0.099728  0  1.012525  0
H  H51  1  0.43505709  0.32425087  0.99019749  1  0.088858  0  0.110532  0.119918  0  0.974687  0
C  C52  1  0.07826739  0.79561871  0.13158883  1  0.502053  0  0.084862  -0.024745  0  3.976071  0
C  C53  1  0.07300596  0.33829989  0.00103392  1  0.435045  0  0.088855  -0.004509  0  3.95504  0
C  C54  1  0.75518815  0.16230984  0.76571987  1  0.087007  0  -0.033302  0.042799  0  4.220338  0
C  C55  1  0.21416525  0.63795026  0.21914000  1  0.161137  0  -0.028803  0.047514  0  4.191816  0
C  C56  1  0.90681763  0.48690228  0.76188037  1  0.150337  0  -0.027051  0.048058  0  4.182306  0
C  C57  1  0.87699641  0.49032708  0.21785846  1  0.086822  0  -0.033066  0.043672  0  4.220136  0
C  C58  1  0.77101604  0.49323384  0.91109289  1  0.116601  0  -0.026464  0.04207  0  4.189046  0
C  C59  1  0.24030633  0.50542149  0.90723788  1  0.060254  0  -0.030606  0.040792  0  4.218971  0
C  C60  1  0.44583136  0.47374314  0.81140908  1  -0.047657  0  -0.075384  -0.158268  0  3.650165  0
C  C61  1  0.55780847  0.52370047  0.95911143  1  -0.057679  0  -0.074763  -0.157807  0  3.645082  0
C  C62  1  0.53532968  0.55036673  0.85768157  1  0.631378  0  0.105729  0.215727  0  3.710494  0
C  C63  1  0.46846557  0.44715908  0.91286405  1  0.638755  0  0.105695  0.222857  0  3.696063  0
C  C64  1  0.69660974  0.48816604  0.88346078  1  -0.357734  0  -0.049186  -0.087311  0  4.166224  0
C  C65  1  0.31118327  0.50956974  0.90487027  1  -0.388755  0  -0.053905  -0.096277  0  4.192202  0
C  C66  1  0.47447846  0.41524009  0.82636382  1  -0.030385  0  -0.007392  -0.11862  0  3.629807  0
C  C67  1  0.52934684  0.58228710  0.94429012  1  -0.033762  0  -0.008508  -0.121525  0  3.630967  0
C  C68  1  0.56599800  0.49285917  0.87603044  1  0.106603  0  0.012329  0.09233  0  3.800264  0
C  C69  1  0.43789499  0.50470667  0.89433202  1  0.095286  0  0.010303  0.090127  0  3.811667  0
C  C70  1  0.63432486  0.48887753  0.87262006  1  0.02514  0  -0.061599  -0.118196  0  4.118081  0
C  C71  1  0.37098968  0.50900001  0.90170437  1  0.123368  0  -0.060007  -0.113277  0  4.141076  0
C  C72  1  0.46160458  0.89900200  0.44799735  1  -0.016912  0  -0.072495  -0.075811  0  3.631571  0
C  C73  1  0.51209084  0.84952483  0.55260064  1  -0.026371  0  -0.073908  -0.081103  0  3.638781  0
C  C74  1  0.82813166  0.20288411  0.76219929  1  0.465136  0  0.015253  -0.049908  0  3.969528  0
C  C75  1  0.13904325  0.62615139  0.21507975  1  0.40882  0  0.014568  -0.047592  0  3.941509  0
C  C76  1  0.46681387  0.93273182  0.53647724  1  -0.026363  0  -0.075096  -0.081006  0  3.642505  0
C  C77  1  0.50639376  0.81528023  0.46374111  1  -0.018109  0  -0.074155  -0.081897  0  3.639616  0
C  C78  1  0.68337263  0.08570066  0.70132320  1  -0.019312  0  -0.07053  -0.123785  0  4.234923  0
C  C79  1  0.28681619  0.68315529  0.29136437  1  -0.108907  0  -0.067509  -0.117664  0  4.210297  0
C  C80  1  0.54606894  0.90903176  0.48044423  1  -0.027008  0  -0.073929  -0.080175  0  3.642787  0
C  C81  1  0.42730858  0.83906176  0.51986770  1  0.001754  0  -0.074382  -0.080981  0  3.643675  0
C  C82  1  0.55340935  0.94519098  0.57102757  1  0.111452  0  0.003248  0.136655  0  3.809243  0
C  C83  1  0.41993537  0.80307732  0.42927390  1  0.130677  0  0.003912  0.138217  0  3.801833  0
C  C84  1  0.62280488  0.01974706  0.64225126  1  -0.351105  0  -0.065864  -0.141523  0  4.162482  0
C  C85  1  0.34937892  0.73362982  0.35561622  1  -0.288822  0  -0.064309  -0.141403  0  4.143908  0
C  C86  1  0.91817247  0.53275282  0.53896828  1  -0.090517  0  -0.081896  -0.148125  0  3.644211  0
C  C87  1  0.76220533  0.43630264  0.41988583  1  -0.057144  0  -0.083857  -0.154657  0  3.646346  0
C  C88  1  0.88404551  0.45066031  0.45383284  1  -0.038828  0  -0.082621  -0.150073  0  3.644532  0
C  C89  1  0.79629450  0.51822300  0.50579451  1  -0.04026  0  -0.082685  -0.153581  0  3.63839  0
C  C90  1  0.85642489  0.48571038  0.28041816  1  -0.368996  0  -0.067807  -0.123248  0  4.218358  0
C  C91  1  0.87250584  0.48701524  0.68999688  1  -0.401062  0  -0.060897  -0.107877  0  4.191863  0
C  C92  1  0.87271268  0.56583332  0.49511680  1  0.602684  0  0.089887  0.220139  0  3.734359  0
C  C93  1  0.80749770  0.40301804  0.46392083  1  0.596237  0  0.089773  0.219459  0  3.732671  0
C  C94  1  0.83853791  0.48328675  0.40831481  1  0.105986  0  0.000381  0.092929  0  3.823467  0
C  C95  1  0.84211430  0.48561856  0.55109904  1  0.114349  0  0.001492  0.093484  0  3.811975  0
C  C96  1  0.96452899  0.55820176  0.84169403  1  0.446134  0  0.016264  -0.044846  0  3.930154  0
C  C97  1  0.86396060  0.42303821  0.14490602  1  0.478812  0  0.010558  -0.060407  0  3.970682  0
C  C98  1  0.84284265  0.48371830  0.33734128  1  -0.00022  0  -0.063694  -0.118937  0  4.148028  0
C  C99  1  0.85133196  0.48639137  0.62564266  1  0.015401  0  -0.064761  -0.126531  0  4.130987  0
C  C100  1  0.08776891  0.10443418  0.07689019  1  -0.005008  0  -0.060189  -0.079341  0  3.60367  0
C  C101  1  0.23412842  0.17336225  0.20063497  1  -0.009615  0  -0.057649  -0.079704  0  3.59693  0
C  C102  1  0.15664900  0.09038753  0.06453265  1  -0.019712  0  -0.061811  -0.080857  0  3.611336  0
C  C103  1  0.16571417  0.18822491  0.21325801  1  -0.002603  0  -0.062036  -0.083192  0  3.612183  0
C  C104  1  0.15364212  0.93000169  0.12594931  1  -0.114568  0  -0.050353  -0.094213  0  4.170662  0
C  C105  1  0.11062530  0.30923781  0.11445462  1  0.024473  0  -0.050289  -0.09465  0  4.167323  0
C  C106  1  0.10124110  0.09041502  0.15072861  1  0.00049  0  0.004282  -0.044116  0  3.633209  0
C  C107  1  0.21978236  0.18815464  0.12575300  1  0.018664  0  0.006447  -0.045976  0  3.620173  0
C  C108  1  0.17159568  0.07387619  0.13823173  1  0.121743  0  0.018581  0.13082  0  3.773394  0
C  C109  1  0.15047045  0.20474467  0.13951411  1  0.098382  0  0.01803  0.130574  0  3.769279  0
C  C110  1  0.17121501  0.00054271  0.13500554  1  -0.158562  0  -0.045702  -0.110093  0  4.094637  0
C  C111  1  0.13385362  0.26656896  0.13293682  1  -0.272919  0  -0.047324  -0.104226  0  4.097188  0
C  C112  1  0.78659751  0.42622573  0.89843287  1  0.443054  0  0.018193  -0.039664  0  3.915429  0
C  C113  1  0.22732562  0.57268770  0.94569618  1  0.447772  0  0.01257  -0.059969  0  3.977963  0
C  C114  1  0.90194185  0.41552139  0.76696621  1  0.43412  0  0.01749  -0.039793  0  3.927672  0
C  C115  1  0.92004204  0.56470531  0.21596253  1  0.460296  0  0.011746  -0.053329  0  3.972955  0
C  C116  1  0.84575230  0.56869871  0.97196848  1  0.425822  0  0.018994  -0.040726  0  3.936206  0
C  C117  1  0.16482093  0.43046237  0.87204253  1  0.421336  0  0.014274  -0.042694  0  3.96559  0
C  C118  1  0.77207329  0.21742193  0.84713318  1  0.384988  0  0.009463  -0.063453  0  3.976795  0
C  C119  1  0.20240723  0.60961528  0.13705204  1  0.374429  0  0.015246  -0.042636  0  3.918183  0
C  C120  1  0.14617636  0.78859763  0.05750589  1  0.452572  0  0.021366  -0.061744  0  3.936153  0
C  C121  1  0.03702800  0.38840758  0.09912477  1  0.421745  0  0.02136  -0.049006  0  3.903702  0
C  C122  1  0.12933268  0.84596990  0.10857822  1  0.065368  0  -0.006224  0.055904  0  4.149996  0
C  C123  1  0.07882728  0.34641540  0.07791208  1  0.10246  0  -0.007021  0.049957  0  4.136023  0
C  C124  1  0.03795869  0.81474776  0.18249277  1  1.441477  0  0.241522  0.572608  0  4.114417  0
C  C125  1  0.09268198  0.28635222  0.94280038  1  1.481114  0  0.22979  0.558039  0  4.138087  0
C  C126  1  0.56184202  0.67153070  0.01028295  1  1.497264  0  0.226596  0.594026  0  4.11369  0
C  C127  1  0.44114222  0.32506207  0.76204540  1  1.513928  0  0.225029  0.591755  0  4.122906  0
C  C128  1  0.74685822  0.25571345  0.37019256  1  0.426424  0  -0.138035  -0.164973  0  3.959884  0
C  C129  1  0.93322971  0.71399950  0.58677404  1  0.395922  0  -0.137969  -0.164192  0  3.956134  0
C  C130  1  0.28532652  0.24062382  0.11264129  1  1.503454  0  0.230477  0.586066  0  4.129171  0
C  C131  1  0.04189043  0.02639684  0.16027620  1  1.537859  0  0.220749  0.575218  0  4.161497  0
C  C132  1  0.52844500  0.63566204  0.80150195  1  0.380259  0  -0.137074  -0.169556  0  3.91644  0
C  C133  1  0.47371221  0.36363036  0.97253204  1  0.348884  0  -0.137238  -0.171099  0  3.909822  0
N  N134  1  0.06703406  0.71558051  0.09578224  1  -0.739974  0  -0.242356  -0.17396  0  3.498477  0
N  N135  1  0.03194168  0.37439183  0.98096965  1  -0.743419  0  -0.259198  -0.180693  0  3.59736  0
N  N136  1  0.88307570  0.27555952  0.83494482  1  -0.783866  0  -0.263886  -0.176988  0  3.541509  0
N  N137  1  0.08842001  0.59581628  0.13744624  1  -0.804611  0  -0.283943  -0.199334  0  3.667915  0
N  N138  1  0.99229132  0.53061662  0.88889705  1  -0.818705  0  -0.283694  -0.177954  0  3.658235  0
N  N139  1  0.89649970  0.45522964  0.10359740  1  -0.790506  0  -0.272139  -0.176007  0  3.56951  0
N  N140  1  0.86396368  0.45991400  0.94944691  1  -0.780692  0  -0.279792  -0.181734  0  3.610582  0
N  N141  1  0.15051916  0.53977729  0.93398018  1  -0.804795  0  -0.278015  -0.175489  0  3.588646  0
N  N142  1  0.95405491  0.44316762  0.84299760  1  -0.774087  0  -0.280459  -0.196386  0  3.647642  0
N  N143  1  0.93122431  0.54315031  0.14771316  1  -0.802567  0  -0.268599  -0.182754  0  3.552226  0
N  N144  1  0.90008661  0.54731112  0.99429113  1  -0.799473  0  -0.285544  -0.193693  0  3.656251  0
N  N145  1  0.11155855  0.45126887  0.88853639  1  -0.788344  0  -0.26323  -0.183983  0  3.521304  0
N  N146  1  0.84848330  0.28477887  0.88796966  1  -0.8024  0  -0.271766  -0.178393  0  3.553235  0
N  N147  1  0.12707782  0.58562372  0.08938517  1  -0.797346  0  -0.283884  -0.187657  0  3.631995  0
N  N148  1  0.10839062  0.71153727  0.05092763  1  -0.743358  0  -0.2435  -0.127683  0  3.560039  0
N  N149  1  0.00917564  0.40373147  0.03963563  1  -0.735219  0  -0.25703  -0.153585  0  3.599625  0
O  O150  1  0.03985787  0.88193327  0.21945472  1  -1.132698  0  -0.266785  -0.470153  0  2.146964  0
O  O151  1  0.99281622  0.74317167  0.18561966  1  -1.129775  0  -0.332201  -0.500705  0  2.284466  0
O  O152  1  0.13619357  0.25881444  0.95757896  1  -1.106245  0  -0.281255  -0.458665  0  2.062991  0
O  O153  1  0.05071191  0.26562635  0.86313832  1  -1.112933  0  -0.340754  -0.510202  0  2.265848  0
O  O154  1  0.62041253  0.71123102  0.07726772  1  -1.124326  0  -0.305144  -0.496904  0  2.025761  0
O  O155  1  0.51964439  0.70711662  0.98858634  1  -1.11175  0  -0.341448  -0.497315  0  2.222007  0
O  O156  1  0.38073569  0.28341224  0.69619486  1  -1.131799  0  -0.305579  -0.497224  0  2.026429  0
O  O157  1  0.48453403  0.29101556  0.78479930  1  -1.108515  0  -0.33813  -0.49238  0  2.220918  0
O  O158  1  0.77492883  0.32200999  0.45311785  1  -1.074456  0  -0.215851  -0.207724  0  2.521492  0
O  O159  1  0.90475734  0.64622100  0.50446446  1  -1.071106  0  -0.217924  -0.212015  0  2.525912  0
O  O160  1  0.30515338  0.21194508  0.05911880  1  -1.123464  0  -0.303629  -0.500244  0  2.033551  0
O  O161  1  0.32310737  0.32632648  0.16953413  1  -1.112762  0  -0.338953  -0.487666  0  2.199957  0
O  O162  1  0.97763086  0.96304664  0.10350773  1  -1.136043  0  -0.309065  -0.497028  0  2.036121  0
O  O163  1  0.07244299  0.04211161  0.23811406  1  -1.159713  0  -0.350043  -0.503767  0  2.215589  0
O  O164  1  0.57235827  0.60037059  0.82993282  1  -1.075691  0  -0.204467  -0.187842  0  2.526373  0
O  O165  1  0.43035328  0.39752242  0.94038806  1  -1.077647  0  -0.205212  -0.191404  0  2.528335  0
