# generated using pymatgen
data_Nd2H10C14N4O15
_symmetry_space_group_name_H-M   'P 1'
_cell_length_a   11.02060337
_cell_length_b   12.02897220
_cell_length_c   19.28313645
_cell_angle_alpha   89.99991280
_cell_angle_beta   89.99991429
_cell_angle_gamma   90.00001814
_symmetry_Int_Tables_number   1
_chemical_formula_structural   Nd2H10C14N4O15
_chemical_formula_sum   'Nd8 H40 C56 N16 O60'
_cell_volume   2556.29851620
_cell_formula_units_Z   4
loop_
 _symmetry_equiv_pos_site_id
 _symmetry_equiv_pos_as_xyz
  1  'x, y, z'
loop_
 _atom_site_type_symbol
 _atom_site_label
 _atom_site_symmetry_multiplicity
 _atom_site_fract_x
 _atom_site_fract_y
 _atom_site_fract_z
 _atom_site_occupancy
 _atom_site_pbe_bader_charge
 _atom_site_pbe_bader_spin_density
 _atom_site_pbe_cm5_charge
 _atom_site_pbe_ddec_charge
 _atom_site_pbe_ddec_spin_density
 _atom_site_pbe_ddec_sum_bond_order
 _atom_site_pbe_magmom
Nd  Nd0  1  0.13694808  0.33677109  0.01266370  1  2.22191  0  1.47563  1.989439  0  2.218058  0
Nd  Nd1  1  0.86305109  0.66322656  0.51266333  1  2.221903  0  1.475638  1.989315  0  2.218138  0
Nd  Nd2  1  0.63694814  0.16322787  0.51266366  1  2.221901  0  1.475604  1.989403  0  2.218237  0
Nd  Nd3  1  0.36305103  0.83677311  0.01266233  1  2.221928  0  1.475624  1.989387  0  2.218226  0
Nd  Nd4  1  0.61728722  0.51963356  0.23220757  1  2.244761  0  1.471774  2.014587  0  2.181754  0
Nd  Nd5  1  0.38271499  0.48036937  0.73220986  1  2.244942  0  1.47179  2.014558  0  2.181686  0
Nd  Nd6  1  0.11728860  0.98036716  0.73220714  1  2.2448  0  1.471814  2.014685  0  2.181321  0
Nd  Nd7  1  0.88271089  0.01963161  0.23220925  1  2.244763  0  1.471845  2.014639  0  2.181476  0
H  H8  1  0.35653576  0.49223398  0.11526873  1  0.164527  0  0.142233  0.083575  0  1.004794  0
H  H9  1  0.64346222  0.50776508  0.61526714  1  0.164477  0  0.142205  0.08353  0  1.004794  0
H  H10  1  0.85653486  0.00776561  0.61526780  1  0.164514  0  0.142204  0.083554  0  1.004824  0
H  H11  1  0.14346403  0.99223677  0.11526703  1  0.164896  0  0.142219  0.083558  0  1.004835  0
H  H12  1  0.20925679  0.24427656  0.29605330  1  0.162302  0  0.133221  0.16064  0  0.966748  0
H  H13  1  0.79074615  0.75572039  0.79605135  1  0.162326  0  0.133216  0.160624  0  0.966732  0
H  H14  1  0.70925416  0.25572255  0.79605265  1  0.162299  0  0.133229  0.160607  0  0.96678  0
H  H15  1  0.29074244  0.74428105  0.29605147  1  0.162306  0  0.133238  0.160644  0  0.966718  0
H  H16  1  0.85600658  0.38674624  0.11639028  1  0.159649  0  0.143458  0.090675  0  0.986574  0
H  H17  1  0.14398958  0.61325697  0.61638952  1  0.159652  0  0.143447  0.090675  0  0.986578  0
H  H18  1  0.35600874  0.11325502  0.61639019  1  0.159652  0  0.14346  0.090697  0  0.986563  0
H  H19  1  0.64399105  0.88674404  0.11639065  1  0.159654  0  0.143463  0.0907  0  0.986575  0
H  H20  1  0.01010287  0.76553575  0.11546477  1  0.147322  0  0.127066  0.146873  0  0.99879  0
H  H21  1  0.98990328  0.23446164  0.61546626  1  0.147337  0  0.127064  0.146844  0  0.998781  0
H  H22  1  0.51010114  0.73446439  0.61546260  1  0.147326  0  0.127081  0.146865  0  0.998783  0
H  H23  1  0.48990047  0.26553550  0.11546377  1  0.147343  0  0.127073  0.146835  0  0.998794  0
H  H24  1  0.89974627  0.39255369  0.95281746  1  0.619089  0  0.330277  0.411548  0  0.870385  0
H  H25  1  0.10025445  0.60744537  0.45281657  1  0.619068  0  0.330278  0.411511  0  0.870422  0
H  H26  1  0.39974704  0.10744426  0.45281875  1  0.619084  0  0.330296  0.411555  0  0.870371  0
H  H27  1  0.60025549  0.89255397  0.95281736  1  0.619091  0  0.33026  0.411526  0  0.870422  0
H  H28  1  0.90316440  0.26408304  0.94438788  1  0.664242  0  0.295936  0.407636  0  0.927583  0
H  H29  1  0.09683452  0.73591604  0.44438738  1  0.664259  0  0.295915  0.407588  0  0.927649  0
H  H30  1  0.40316521  0.23591659  0.44438853  1  0.664252  0  0.295947  0.407664  0  0.927543  0
H  H31  1  0.59683552  0.76408249  0.94438777  1  0.664247  0  0.295929  0.40764  0  0.927576  0
H  H32  1  0.08600045  0.13686262  0.90838065  1  0.652883  0  0.300547  0.405135  0  0.925166  0
H  H33  1  0.91399675  0.86313738  0.40838039  1  0.652865  0  0.300524  0.405086  0  0.925237  0
H  H34  1  0.58600192  0.36313867  0.40838180  1  0.652875  0  0.30058  0.405179  0  0.925098  0
H  H35  1  0.41399801  0.63686299  0.90837976  1  0.652865  0  0.300544  0.405136  0  0.925162  0
H  H36  1  0.17043948  0.09822251  0.97274672  1  0.651257  0  0.302033  0.39806  0  0.933294  0
H  H37  1  0.82956028  0.90177650  0.47274649  1  0.651255  0  0.302066  0.398099  0  0.933257  0
H  H38  1  0.67044095  0.40177698  0.47274731  1  0.651221  0  0.302094  0.398138  0  0.933186  0
H  H39  1  0.32955971  0.59822286  0.97274642  1  0.651257  0  0.302084  0.3981  0  0.933237  0
H  H40  1  0.53360234  0.61989664  0.09565457  1  0.669282  0  0.303134  0.397295  0  0.940784  0
H  H41  1  0.46639569  0.38010413  0.59565687  1  0.669295  0  0.303119  0.397268  0  0.940827  0
H  H42  1  0.03360641  0.88010522  0.59565164  1  0.669284  0  0.303147  0.397326  0  0.940747  0
H  H43  1  0.96639526  0.11989389  0.09565670  1  0.669313  0  0.303129  0.397282  0  0.940817  0
H  H44  1  0.59892275  0.51502905  0.06022778  1  0.63214  0  0.342085  0.433749  0  0.83947  0
H  H45  1  0.40107719  0.48497098  0.56022901  1  0.632175  0  0.342129  0.433778  0  0.83943  0
H  H46  1  0.09892595  0.98497042  0.56022268  1  0.632041  0  0.342095  0.433796  0  0.839403  0
H  H47  1  0.90107763  0.01502877  0.06022893  1  0.63217  0  0.342123  0.433766  0  0.839447  0
C  C48  1  0.32415726  0.43560232  0.15532450  1  1.043972  0  0.199891  0.272524  0  3.949424  0
C  C49  1  0.67584334  0.56439497  0.65532334  1  1.043939  0  0.199915  0.272574  0  3.949387  0
C  C50  1  0.82415637  0.06439716  0.65532403  1  1.043981  0  0.199897  0.272481  0  3.949437  0
C  C51  1  0.17584060  0.93560512  0.15532225  1  1.043488  0  0.199857  0.272479  0  3.949312  0
C  C52  1  0.34973283  0.35937956  0.26310730  1  0.450891  0  0.14703  0.165997  0  3.932775  0
C  C53  1  0.65027111  0.64061581  0.76310765  1  0.450678  0  0.147073  0.166154  0  3.932703  0
C  C54  1  0.84972925  0.14061884  0.76310780  1  0.450739  0  0.147061  0.166081  0  3.932881  0
C  C55  1  0.15026653  0.85938152  0.26310559  1  0.450951  0  0.147097  0.166186  0  3.932771  0
C  C56  1  0.24286119  0.29849904  0.25520306  1  0.136359  0  -0.048927  -0.15809  0  3.827159  0
C  C57  1  0.75714278  0.70149635  0.75520119  1  0.136308  0  -0.048947  -0.158201  0  3.827118  0
C  C58  1  0.74285763  0.20149852  0.75520195  1  0.136251  0  -0.048964  -0.158104  0  3.827194  0
C  C59  1  0.25713908  0.79850269  0.25520074  1  0.136332  0  -0.048993  -0.15828  0  3.827154  0
C  C60  1  0.18453144  0.30647402  0.19153086  1  0.467107  0  0.143686  0.164842  0  3.922374  0
C  C61  1  0.81546907  0.69352236  0.69152791  1  0.467175  0  0.143632  0.164887  0  3.922357  0
C  C62  1  0.68453060  0.19352451  0.69152976  1  0.467274  0  0.143686  0.16486  0  3.922328  0
C  C63  1  0.31546719  0.80647686  0.19152850  1  0.467167  0  0.143649  0.164927  0  3.922265  0
C  C64  1  0.08169225  0.22861285  0.17282029  1  1.617626  0  0.240605  0.588977  0  4.161694  0
C  C65  1  0.91830830  0.77138358  0.67281719  1  1.617475  0  0.240523  0.588962  0  4.161742  0
C  C66  1  0.58169144  0.27138653  0.67281860  1  1.617651  0  0.240606  0.588953  0  4.161576  0
C  C67  1  0.41830730  0.72861821  0.17281681  1  1.617631  0  0.240529  0.588923  0  4.161563  0
C  C68  1  0.42401906  0.35041031  0.32888962  1  1.636121  0  0.228715  0.565035  0  4.221611  0
C  C69  1  0.57598290  0.64958656  0.82888899  1  1.636205  0  0.228718  0.565021  0  4.22135  0
C  C70  1  0.92401639  0.14958712  0.82888752  1  1.635891  0  0.228728  0.565014  0  4.221893  0
C  C71  1  0.07597558  0.85041308  0.32888694  1  1.635964  0  0.228689  0.564888  0  4.221531  0
C  C72  1  0.89022342  0.47166289  0.11632384  1  1.059121  0  0.207219  0.286153  0  3.911169  0
C  C73  1  0.10977457  0.52833783  0.61632424  1  1.059708  0  0.207209  0.286131  0  3.911203  0
C  C74  1  0.39022464  0.02833671  0.61632435  1  1.059142  0  0.207206  0.286107  0  3.911117  0
C  C75  1  0.60977606  0.97166318  0.11632373  1  1.05918  0  0.207142  0.286039  0  3.911228  0
C  C76  1  0.86811209  0.65362104  0.14944494  1  0.434904  0  0.146457  0.159635  0  3.91492  0
C  C77  1  0.13189034  0.34637960  0.64944859  1  0.434809  0  0.146477  0.159704  0  3.914969  0
C  C78  1  0.36811343  0.84637830  0.64944463  1  0.434952  0  0.146476  0.159767  0  3.914887  0
C  C79  1  0.63188719  0.15362151  0.14944682  1  0.434877  0  0.146522  0.159827  0  3.914935  0
C  C80  1  0.97597556  0.68081378  0.11600582  1  0.133335  0  -0.054014  -0.158207  0  3.838494  0
C  C81  1  0.02402877  0.31918611  0.61600699  1  0.13337  0  -0.05398  -0.158138  0  3.83829  0
C  C82  1  0.47597507  0.81918567  0.61600450  1  0.133318  0  -0.05403  -0.158231  0  3.838481  0
C  C83  1  0.52402654  0.18081422  0.11600572  1  0.133328  0  -0.053986  -0.15814  0  3.838406  0
C  C84  1  0.03839626  0.59474315  0.08360851  1  0.484988  0  0.142692  0.156502  0  3.943508  0
C  C85  1  0.96160363  0.40525599  0.58361038  1  0.485195  0  0.14272  0.156486  0  3.943505  0
C  C86  1  0.53839640  0.90525708  0.58360825  1  0.484979  0  0.142659  0.156369  0  3.943671  0
C  C87  1  0.46160621  0.09474372  0.08360805  1  0.485068  0  0.142669  0.156441  0  3.94346  0
C  C88  1  0.16077890  0.61423532  0.05040223  1  1.623154  0  0.242968  0.596604  0  4.173706  0
C  C89  1  0.83922471  0.38576557  0.55040059  1  1.623043  0  0.243077  0.596794  0  4.173536  0
C  C90  1  0.66077812  0.88576088  0.55040199  1  1.622803  0  0.243066  0.596752  0  4.173501  0
C  C91  1  0.33922367  0.11423751  0.05040136  1  1.623041  0  0.243029  0.596749  0  4.17355  0
C  C92  1  0.79363701  0.74139989  0.18681385  1  1.641567  0  0.241112  0.606562  0  4.189037  0
C  C93  1  0.20636623  0.25860482  0.68681648  1  1.641589  0  0.241107  0.606536  0  4.189004  0
C  C94  1  0.29363287  0.75860432  0.68681466  1  1.641169  0  0.241072  0.60633  0  4.189089  0
C  C95  1  0.70636856  0.24139290  0.18681619  1  1.641184  0  0.241087  0.60639  0  4.18909  0
C  C96  1  0.80309630  0.56815711  0.35859874  1  1.579866  0  0.214172  0.513958  0  4.218583  0
C  C97  1  0.19690920  0.43184384  0.85859967  1  1.579577  0  0.214143  0.513961  0  4.218938  0
C  C98  1  0.30309313  0.93184585  0.85859679  1  1.579153  0  0.214284  0.513988  0  4.218449  0
C  C99  1  0.69690239  0.06815095  0.35859746  1  1.578958  0  0.214212  0.513899  0  4.218631  0
C  C100  1  0.67910397  0.61576961  0.38488391  1  1.601204  0  0.213207  0.503562  0  4.228459  0
C  C101  1  0.32090418  0.38423461  0.88488582  1  1.601673  0  0.21334  0.503888  0  4.228597  0
C  C102  1  0.17909715  0.88423491  0.88487942  1  1.601174  0  0.2133  0.503935  0  4.228508  0
C  C103  1  0.82090102  0.11576681  0.38488045  1  1.601113  0  0.213212  0.503898  0  4.228244  0
N  N104  1  0.22295954  0.37801303  0.14236402  1  -1.234076  0  -0.35106  -0.371736  0  3.452826  0
N  N105  1  0.77703928  0.62198596  0.64236169  1  -1.2342  0  -0.35106  -0.371716  0  3.453033  0
N  N106  1  0.72295777  0.12198646  0.64236195  1  -1.234137  0  -0.351075  -0.371687  0  3.452812  0
N  N107  1  0.27704015  0.87801669  0.14236117  1  -1.234149  0  -0.351018  -0.371649  0  3.452713  0
N  N108  1  0.39229773  0.42570699  0.21255323  1  -1.222058  0  -0.339028  -0.364818  0  3.418204  0
N  N109  1  0.60770453  0.57428851  0.71255316  1  -1.221926  0  -0.33899  -0.364894  0  3.41822  0
N  N110  1  0.89229413  0.07429155  0.71255380  1  -1.221937  0  -0.338996  -0.364825  0  3.418202  0
N  N111  1  0.10770178  0.92570893  0.21255104  1  -1.221958  0  -0.338992  -0.364855  0  3.41821  0
N  N112  1  0.99463517  0.49040354  0.08235421  1  -1.243003  0  -0.336134  -0.369105  0  3.410888  0
N  N113  1  0.00536381  0.50959477  0.58235471  1  -1.243043  0  -0.336188  -0.369121  0  3.411004  0
N  N114  1  0.49463639  0.00959618  0.58235422  1  -1.243014  0  -0.336106  -0.36899  0  3.410962  0
N  N115  1  0.50536531  0.99040379  0.08235367  1  -1.242993  0  -0.336118  -0.369029  0  3.410906  0
N  N116  1  0.82573055  0.54852311  0.15046714  1  -1.193399  0  -0.320387  -0.34479  0  3.395237  0
N  N117  1  0.17426735  0.45147836  0.65046859  1  -1.193935  0  -0.320338  -0.344832  0  3.395303  0
N  N118  1  0.32573192  0.95147621  0.65046725  1  -1.193381  0  -0.320406  -0.344878  0  3.39526  0
N  N119  1  0.67426598  0.04852359  0.15046899  1  -1.193335  0  -0.320368  -0.344898  0  3.395303  0
O  O120  1  0.03769928  0.23795619  0.11149470  1  -1.186533  0  -0.360683  -0.628003  0  2.32196  0
O  O121  1  0.96229871  0.76204371  0.61149105  1  -1.186423  0  -0.360623  -0.627937  0  2.321881  0
O  O122  1  0.53769937  0.26204499  0.61149302  1  -1.186606  0  -0.360669  -0.628017  0  2.321951  0
O  O123  1  0.46229862  0.73795741  0.11149221  1  -1.186596  0  -0.360612  -0.627924  0  2.321946  0
O  O124  1  0.05146244  0.15787025  0.21728769  1  -1.163761  0  -0.343149  -0.572115  0  2.27729  0
O  O125  1  0.94854163  0.84212523  0.71728605  1  -1.163593  0  -0.343112  -0.572164  0  2.277462  0
O  O126  1  0.55146256  0.34212984  0.71728852  1  -1.16373  0  -0.343142  -0.572049  0  2.277271  0
O  O127  1  0.44853969  0.65787313  0.21728833  1  -1.163598  0  -0.343125  -0.572128  0  2.277238  0
O  O128  1  0.53425713  0.38302492  0.32520551  1  -1.176886  0  -0.339296  -0.609748  0  2.251613  0
O  O129  1  0.46574392  0.61697778  0.82520552  1  -1.176869  0  -0.33927  -0.60969  0  2.251584  0
O  O130  1  0.03424840  0.11697989  0.82520749  1  -1.176605  0  -0.339229  -0.609694  0  2.251934  0
O  O131  1  0.96574085  0.88302364  0.32520354  1  -1.176805  0  -0.339336  -0.609711  0  2.251698  0
O  O132  1  0.36882418  0.31203622  0.38054464  1  -1.171695  0  -0.304618  -0.528937  0  2.161959  0
O  O133  1  0.63118036  0.68796302  0.88054496  1  -1.171708  0  -0.304653  -0.528977  0  2.161735  0
O  O134  1  0.86881517  0.18796688  0.88054510  1  -1.171735  0  -0.304704  -0.528985  0  2.161741  0
O  O135  1  0.13117394  0.81203734  0.38054243  1  -1.171832  0  -0.304591  -0.528873  0  2.161748  0
O  O136  1  0.20844782  0.53341549  0.01734798  1  -1.192887  0  -0.356051  -0.628182  0  2.322089  0
O  O137  1  0.79155133  0.46658049  0.51735045  1  -1.192787  0  -0.356014  -0.628153  0  2.322196  0
O  O138  1  0.70845071  0.96658745  0.51734818  1  -1.19252  0  -0.356142  -0.628312  0  2.321915  0
O  O139  1  0.29155208  0.03341435  0.01734766  1  -1.192869  0  -0.356089  -0.628268  0  2.322021  0
O  O140  1  0.20767107  0.70809204  0.06001108  1  -1.179366  0  -0.360235  -0.598241  0  2.338512  0
O  O141  1  0.79233160  0.29189884  0.56001009  1  -1.179427  0  -0.360388  -0.598477  0  2.338375  0
O  O142  1  0.70766845  0.79190996  0.56000989  1  -1.179389  0  -0.36023  -0.598208  0  2.338574  0
O  O143  1  0.29233059  0.20809256  0.06001128  1  -1.179368  0  -0.36026  -0.598293  0  2.338568  0
O  O144  1  0.69766218  0.70978782  0.21604514  1  -1.162048  0  -0.354854  -0.591215  0  2.267354  0
O  O145  1  0.30233644  0.29021764  0.71604871  1  -1.16232  0  -0.354874  -0.591217  0  2.267307  0
O  O146  1  0.19766803  0.79020797  0.71604437  1  -1.16206  0  -0.3548  -0.591026  0  2.267432  0
O  O147  1  0.80232968  0.20978918  0.21604585  1  -1.162161  0  -0.354802  -0.591047  0  2.267524  0
O  O148  1  0.83422464  0.84011573  0.18406734  1  -1.205087  0  -0.397757  -0.662553  0  2.308526  0
O  O149  1  0.16578405  0.15988566  0.68406855  1  -1.204963  0  -0.397752  -0.662528  0  2.308487  0
O  O150  1  0.33422682  0.65988102  0.68406721  1  -1.204792  0  -0.397751  -0.662474  0  2.30832  0
O  O151  1  0.66577733  0.34011953  0.18406920  1  -1.204707  0  -0.39779  -0.662545  0  2.308298  0
O  O152  1  0.89526997  0.58495818  0.39655880  1  -1.184042  0  -0.393039  -0.618508  0  2.253067  0
O  O153  1  0.10472817  0.41503769  0.89656190  1  -1.183799  0  -0.393014  -0.618564  0  2.252977  0
O  O154  1  0.39527496  0.91503889  0.89656102  1  -1.183324  0  -0.393102  -0.618627  0  2.252694  0
O  O155  1  0.60472227  0.08495781  0.39656279  1  -1.183219  0  -0.393007  -0.61857  0  2.252752  0
O  O156  1  0.80130427  0.51600393  0.30156603  1  -1.174116  0  -0.388322  -0.600747  0  2.247018  0
O  O157  1  0.19870138  0.48399883  0.80157261  1  -1.173991  0  -0.388313  -0.600726  0  2.247485  0
O  O158  1  0.30130293  0.98399667  0.80156974  1  -1.17413  0  -0.388326  -0.600693  0  2.247334  0
O  O159  1  0.69869637  0.01599777  0.30157253  1  -1.174156  0  -0.388348  -0.600663  0  2.247582  0
O  O160  1  0.67755135  0.65564659  0.44574380  1  -1.184411  0  -0.399513  -0.60034  0  2.258204  0
O  O161  1  0.32244847  0.34434999  0.94574834  1  -1.184227  0  -0.399559  -0.600535  0  2.258259  0
O  O162  1  0.17755087  0.84435196  0.94574868  1  -1.184269  0  -0.399559  -0.600598  0  2.257908  0
O  O163  1  0.82244351  0.15565376  0.44574916  1  -1.184167  0  -0.399535  -0.600575  0  2.257934  0
O  O164  1  0.59015608  0.60926950  0.34388854  1  -1.162356  0  -0.383422  -0.57614  0  2.26396  0
O  O165  1  0.40984674  0.39073730  0.84389556  1  -1.163088  0  -0.383481  -0.576262  0  2.264234  0
O  O166  1  0.09016197  0.89073260  0.84389338  1  -1.162447  0  -0.383514  -0.576294  0  2.264536  0
O  O167  1  0.90983722  0.10926923  0.34389228  1  -1.162408  0  -0.38346  -0.576271  0  2.264404  0
O  O168  1  0.91662642  0.32555126  0.97955380  1  -1.261113  0  -0.633346  -0.828331  0  2.006381  0
O  O169  1  0.08337422  0.67444690  0.47955338  1  -1.261112  0  -0.633336  -0.828261  0  2.006465  0
O  O170  1  0.41662631  0.17444746  0.47955503  1  -1.261121  0  -0.633378  -0.828374  0  2.006353  0
O  O171  1  0.58337343  0.82555237  0.97955423  1  -1.26109  0  -0.633323  -0.828309  0  2.006413  0
O  O172  1  0.10930039  0.15344752  0.95741830  1  -1.308973  0  -0.653348  -0.858525  0  2.033008  0
O  O173  1  0.89069941  0.84655319  0.45741652  1  -1.308949  0  -0.653346  -0.858483  0  2.032987  0
O  O174  1  0.60930003  0.34655365  0.45741739  1  -1.308953  0  -0.653411  -0.858593  0  2.032903  0
O  O175  1  0.39069977  0.65344706  0.95741691  1  -1.308967  0  -0.653375  -0.85854  0  2.03296  0
O  O176  1  0.56502074  0.54241537  0.10337636  1  -1.293721  0  -0.618025  -0.851236  0  2.055774  0
O  O177  1  0.43497818  0.45758372  0.60337811  1  -1.293789  0  -0.618066  -0.851241  0  2.055792  0
O  O178  1  0.06502484  0.95758648  0.60337284  1  -1.293689  0  -0.618063  -0.851352  0  2.055671  0
O  O179  1  0.93497681  0.04241677  0.10337748  1  -1.293826  0  -0.618057  -0.851236  0  2.055814  0
