# generated using pymatgen
data_Zn4H18(C13O6)3
_symmetry_space_group_name_H-M   'P 1'
_cell_length_a   18.12334812
_cell_length_b   18.29819208
_cell_length_c   22.19193858
_cell_angle_alpha   65.99435121
_cell_angle_beta   66.05674039
_cell_angle_gamma   90.01697869
_symmetry_Int_Tables_number   1
_chemical_formula_structural   Zn4H18(C13O6)3
_chemical_formula_sum   'Zn8 H36 C78 O36'
_cell_volume   6022.54814708
_cell_formula_units_Z   2
loop_
 _symmetry_equiv_pos_site_id
 _symmetry_equiv_pos_as_xyz
  1  'x, y, z'
loop_
 _atom_site_type_symbol
 _atom_site_label
 _atom_site_symmetry_multiplicity
 _atom_site_fract_x
 _atom_site_fract_y
 _atom_site_fract_z
 _atom_site_occupancy
 _atom_site_pbe_bader_charge
 _atom_site_pbe_bader_spin_density
 _atom_site_pbe_cm5_charge
 _atom_site_pbe_ddec_charge
 _atom_site_pbe_ddec_spin_density
 _atom_site_pbe_ddec_sum_bond_order
 _atom_site_pbe_magmom
Zn  Zn0  1  0.69533106  0.78106234  0.43586287  1  1.299322  0  0.666934  0.95706  0  2.388497  0
Zn  Zn1  1  0.30467048  0.21893856  0.56413632  1  1.299212  0  0.66698  0.957133  0  2.388389  0
Zn  Zn2  1  0.71651298  0.80543465  0.56322810  1  1.302488  0  0.672315  0.967374  0  2.362911  0
Zn  Zn3  1  0.28348697  0.19456503  0.43677293  1  1.302473  0  0.672294  0.9673  0  2.362864  0
Zn  Zn4  1  0.87014240  0.78254141  0.43698842  1  1.318357  0  0.672912  0.967597  0  2.361557  0
Zn  Zn5  1  0.12985817  0.21745888  0.56301126  1  1.318397  0  0.672941  0.96758  0  2.361567  0
Zn  Zn6  1  0.72051831  0.63103703  0.56161707  1  1.319747  0  0.67768  0.972214  0  2.354503  0
Zn  Zn7  1  0.27948023  0.36896143  0.43838319  1  1.319769  0  0.677608  0.972119  0  2.354531  0
H  H8  1  0.40886949  0.57425313  0.95266318  1  0.10718  0  0.121394  0.123408  0  0.958551  0
H  H9  1  0.51417868  0.31228301  0.00410697  1  0.059443  0  0.105358  0.038976  0  0.942959  0
H  H10  1  0.90625100  0.16233596  0.44717449  1  0.041147  0  0.09851  0.026156  0  0.951227  0
H  H11  1  0.09374827  0.83766433  0.55282589  1  0.041167  0  0.09851  0.026292  0  0.950558  0
H  H12  1  0.85971095  0.99575505  0.58567490  1  0.102214  0  0.109998  0.106663  0  0.976345  0
H  H13  1  0.14028832  0.00424524  0.41432548  1  0.102235  0  0.110001  0.10673  0  0.976192  0
H  H14  1  0.99078332  0.95258627  0.62341289  1  0.110047  0  0.111921  0.106926  0  0.9724  0
H  H15  1  0.00921583  0.04741341  0.37658773  1  0.10999  0  0.111899  0.106839  0  0.97251  0
H  H16  1  0.38189257  0.86460991  0.68244734  1  0.045951  0  0.100868  0.031099  0  0.947374  0
H  H17  1  0.61810483  0.13538732  0.31755431  1  0.045994  0  0.100875  0.031108  0  0.947393  0
H  H18  1  0.48418537  0.04151413  0.59627206  1  0.079456  0  0.109843  0.106839  0  0.976737  0
H  H19  1  0.59113090  0.42574655  0.04733740  1  0.107153  0  0.12138  0.123479  0  0.958381  0
H  H20  1  0.51581236  0.95848433  0.40372780  1  0.07944  0  0.109857  0.106892  0  0.976687  0
H  H21  1  0.66085466  0.40352513  0.44841278  1  0.059406  0  0.100638  0.030641  0  0.947331  0
H  H22  1  0.33914654  0.59647455  0.55158821  1  0.05941  0  0.100637  0.03064  0  0.947306  0
H  H23  1  0.49425660  0.36066976  0.58618289  1  0.10216  0  0.109749  0.106367  0  0.976717  0
H  H24  1  0.50574405  0.63932870  0.41381708  1  0.102172  0  0.109728  0.106332  0  0.976718  0
H  H25  1  0.03721658  0.86675152  0.04828647  1  0.079198  0  0.105727  0.094312  0  0.984971  0
H  H26  1  0.96278374  0.13324755  0.95171371  1  0.079225  0  0.105716  0.094276  0  0.984938  0
H  H27  1  0.95865351  0.91360169  0.95435617  1  0.077361  0  0.104776  0.092684  0  0.986974  0
H  H28  1  0.04134653  0.08639799  0.04564356  1  0.077378  0  0.104801  0.092724  0  0.986916  0
H  H29  1  0.14972079  0.01900732  0.95740024  1  0.071876  0  0.104242  0.092956  0  0.987922  0
H  H30  1  0.36549379  0.93396957  0.52730795  1  0.075522  0  0.109809  0.103458  0  0.976133  0
H  H31  1  0.85028193  0.98099297  0.04259850  1  0.071932  0  0.104248  0.093002  0  0.987924  0
H  H32  1  0.10305434  0.53174316  0.53543784  1  0.079355  0  0.101609  0.091971  0  0.992119  0
H  H33  1  0.89694508  0.46825591  0.46456323  1  0.079361  0  0.101617  0.092013  0  0.992116  0
H  H34  1  0.92875940  0.49600479  0.62194809  1  0.068851  0  0.102383  0.088974  0  0.988798  0
H  H35  1  0.07124060  0.50399489  0.37805229  1  0.068796  0  0.102356  0.088901  0  0.98878  0
H  H36  1  0.91837887  0.36186306  0.58964321  1  0.085192  0  0.099503  0.088084  0  0.992864  0
H  H37  1  0.08162107  0.63813662  0.41035782  1  0.085199  0  0.099496  0.088073  0  0.992834  0
H  H38  1  0.63450438  0.06602950  0.47269316  1  0.075562  0  0.109826  0.103465  0  0.976094  0
H  H39  1  0.54596657  0.50823721  0.37711345  1  0.072573  0  0.112777  0.108208  0  0.970212  0
H  H40  1  0.45403274  0.49176308  0.62288628  1  0.072577  0  0.112782  0.108226  0  0.970204  0
H  H41  1  0.34929673  0.38986473  0.99852325  1  0.05224  0  0.105495  0.038695  0  0.941497  0
H  H42  1  0.65070254  0.61013556  0.00147713  1  0.052234  0  0.105476  0.038761  0  0.940948  0
H  H43  1  0.48581953  0.68771606  0.99589349  1  0.059505  0  0.105362  0.038845  0  0.943546  0
C  C44  1  0.64638796  0.65231346  0.69856533  1  1.716428  0  0.238211  0.680224  0  4.22876  0
C  C45  1  0.11116345  0.10642755  0.77937523  1  0.026753  0  -0.056583  -0.209673  0  4.007512  0
C  C46  1  0.91704224  0.98977877  0.02302533  1  -0.040437  0  -0.069419  -0.079481  0  3.636321  0
C  C47  1  0.08295951  0.01022091  0.97697390  1  -0.040381  0  -0.069403  -0.079368  0  3.63617  0
C  C48  1  0.96049150  0.96349522  0.07568160  1  0.195451  0  0.007797  0.118289  0  3.799116  0
C  C49  1  0.03950997  0.03650507  0.92431719  1  0.1955  0  0.007804  0.118291  0  3.799157  0
C  C50  1  0.92164131  0.92602969  0.15349973  1  -0.34461  0  -0.026606  -0.038046  0  4.089917  0
C  C51  1  0.07835871  0.07397060  0.84650170  1  -0.344576  0  -0.026528  -0.037954  0  4.089577  0
C  C52  1  0.96105279  0.49684357  0.56792003  1  -0.019113  0  -0.069042  -0.058328  0  3.620558  0
C  C53  1  0.03894813  0.50315672  0.43208050  1  -0.019095  0  -0.069026  -0.058221  0  3.620521  0
C  C54  1  0.05666154  0.51865601  0.51958255  1  -0.037359  0  -0.069203  -0.062249  0  3.617858  0
C  C55  1  0.35361171  0.34768683  0.30143525  1  1.716412  0  0.238218  0.680198  0  4.228732  0
C  C56  1  0.94333846  0.48134366  0.48041783  1  -0.037316  0  -0.069288  -0.062447  0  3.618016  0
C  C57  1  0.04931723  0.44411113  0.50222972  1  0.024278  0  -0.007624  -0.033556  0  3.648152  0
C  C58  1  0.95068216  0.55588977  0.49777041  1  0.024291  0  -0.007619  -0.033673  0  3.648257  0
C  C59  1  0.84960224  0.85390595  0.29981496  1  1.619538  0  0.228019  0.679212  0  4.245235  0
C  C60  1  0.15039906  0.14609373  0.70018472  1  1.619452  0  0.228064  0.679369  0  4.245132  0
C  C61  1  0.95403805  0.42348739  0.54995308  1  -0.030439  0  -0.076938  -0.068044  0  3.64718  0
C  C62  1  0.04596275  0.57651229  0.45004771  1  -0.030434  0  -0.077019  -0.06811  0  3.647267  0
C  C63  1  0.42954455  0.44695183  0.02572190  1  -0.025913  0  0.01145  0.011351  0  3.601855  0
C  C64  1  0.57045768  0.55304845  0.97427794  1  -0.02596  0  0.011481  -0.005096  0  3.623172  0
C  C65  1  0.45028016  0.54118346  0.97339969  1  -0.014207  0  -0.042431  -0.101441  0  3.559049  0
C  C66  1  0.49683754  0.42269645  0.54795854  1  -0.045199  0  -0.064103  -0.078245  0  3.614406  0
C  C67  1  0.54972121  0.45881683  0.02660040  1  -0.013956  0  -0.042437  -0.096943  0  3.566346  0
C  C68  1  0.60692675  0.61209502  0.77803743  1  -0.133832  0  -0.028025  -0.154453  0  3.944006  0
C  C69  1  0.39307199  0.38790466  0.22196299  1  -0.133797  0  -0.028035  -0.154407  0  3.944056  0
C  C70  1  0.52004587  0.44247883  0.97484800  1  -0.013441  0  0.010253  -0.007849  0  3.62317  0
C  C71  1  0.47995428  0.55751962  0.02515307  1  -0.013423  0  0.010255  0.009118  0  3.600476  0
C  C72  1  0.53963448  0.53699536  0.92280535  1  0.100255  0  0.021149  0.100339  0  3.794915  0
C  C73  1  0.46036729  0.46300493  0.07719494  1  0.100005  0  0.021187  0.095717  0  3.790018  0
C  C74  1  0.57713821  0.57675470  0.84485339  1  -0.125588  0  -0.028289  -0.041505  0  4.071268  0
C  C75  1  0.42286316  0.42324559  0.15514670  1  -0.125619  0  -0.028281  -0.041919  0  4.072664  0
C  C76  1  0.92213418  0.99764582  0.54765590  1  -0.055213  0  -0.064255  -0.081998  0  3.610532  0
C  C77  1  0.50316298  0.57730384  0.45204180  1  -0.045215  0  -0.064122  -0.078206  0  3.614431  0
C  C78  1  0.07786508  0.00235447  0.45234447  1  -0.055167  0  -0.06427  -0.079591  0  3.613821  0
C  C79  1  0.98352988  0.07656148  0.47822694  1  0.000479  0  0.002324  0.035092  0  3.619392  0
C  C80  1  0.01646914  0.92343759  0.52177393  1  0.000385  0  0.002394  0.020067  0  3.645446  0
C  C81  1  0.05623285  0.05100933  0.49877401  1  0.030859  0  -0.001237  -0.044529  0  3.649879  0
C  C82  1  0.94376661  0.94899218  0.50122653  1  0.030824  0  -0.001263  -0.042142  0  3.653028  0
C  C83  1  0.61099007  0.88966057  0.49664436  1  1.584076  0  0.224635  0.607048  0  4.198149  0
C  C84  1  0.38900940  0.11033849  0.50335606  1  1.584021  0  0.224691  0.607173  0  4.198099  0
C  C85  1  0.99432765  0.97399945  0.56840695  1  -0.040873  0  -0.055054  -0.065455  0  3.583101  0
C  C86  1  0.00567202  0.02600084  0.43159363  1  -0.040931  0  -0.055038  -0.067746  0  3.579634  0
C  C87  1  0.47086881  0.93266012  0.56618734  1  -0.045663  0  0.001365  0.018717  0  3.645612  0
C  C88  1  0.97649212  0.95152525  0.97551874  1  0.00277  0  -0.065776  -0.071941  0  3.624523  0
C  C89  1  0.52913059  0.06733834  0.43381268  1  -0.045611  0  0.001414  0.018718  0  3.645615  0
C  C90  1  0.42595496  0.96359561  0.51439726  1  0.00408  0  -0.054768  -0.064306  0  3.582512  0
C  C91  1  0.57404403  0.03640284  0.48560255  1  0.003994  0  -0.054755  -0.06423  0  3.582446  0
C  C92  1  0.44672357  0.05254521  0.50340290  1  0.012232  0  -0.001621  -0.039738  0  3.651267  0
C  C93  1  0.55327335  0.94745569  0.49659667  1  0.012258  0  -0.001571  -0.039735  0  3.651331  0
C  C94  1  0.49144861  0.02303833  0.55346197  1  0.005622  0  -0.064861  -0.079839  0  3.615477  0
C  C95  1  0.50855079  0.97696013  0.44653805  1  0.005545  0  -0.064892  -0.079911  0  3.615503  0
C  C96  1  0.89310330  0.61327548  0.49830808  1  1.528708  0  0.232895  0.618716  0  4.15527  0
C  C97  1  0.10689687  0.38672481  0.50169140  1  1.528707  0  0.232876  0.618551  0  4.155268  0
C  C98  1  0.88581393  0.89160047  0.50094787  1  1.597724  0  0.226083  0.609274  0  4.192825  0
C  C99  1  0.02350837  0.04847443  0.02448054  1  0.002774  0  -0.06582  -0.072014  0  3.624596  0
C  C100  1  0.11418661  0.10840165  0.49905087  1  1.597763  0  0.226092  0.609173  0  4.193214  0
C  C101  1  0.61148812  0.61242062  0.49769205  1  1.599978  0  0.227736  0.611126  0  4.185636  0
C  C102  1  0.38851301  0.38757845  0.50230853  1  1.600008  0  0.227638  0.61106  0  4.185877  0
C  C103  1  0.57678893  0.48241650  0.47817014  1  -0.024665  0  0.002115  0.018975  0  3.644516  0
C  C104  1  0.42321159  0.51758379  0.52183019  1  -0.024458  0  0.002121  0.018998  0  3.644471  0
C  C105  1  0.52522295  0.50516987  0.43186994  1  0.003092  0  -0.053823  -0.063621  0  3.578065  0
C  C106  1  0.47477814  0.49483103  0.56812970  1  0.002862  0  -0.053844  -0.063666  0  3.578087  0
C  C107  1  0.44722869  0.44487129  0.50192991  1  0.023017  0  -0.000731  -0.041786  0  3.652604  0
C  C108  1  0.55276969  0.55512656  0.49807125  1  0.022959  0  -0.000703  -0.04174  0  3.652642  0
C  C109  1  0.35397237  0.39205618  0.04667434  1  1.00032  0  0.105908  0.26202  0  3.982727  0
C  C110  1  0.02128801  0.92635667  0.02592272  1  -0.055248  0  -0.066385  -0.072876  0  3.624919  0
C  C111  1  0.64602718  0.60794350  0.95332649  1  1.000296  0  0.105919  0.265579  0  3.985627  0
C  C112  1  0.46138722  0.62614381  0.04479586  1  0.958456  0  0.104223  0.259106  0  3.988583  0
C  C113  1  0.53861370  0.37385648  0.95520467  1  0.958482  0  0.104204  0.262692  0  3.991472  0
C  C114  1  0.96620524  0.15955903  0.45086338  1  0.943496  0  0.104096  0.268641  0  3.986159  0
C  C115  1  0.03379362  0.84044126  0.54913680  1  0.943713  0  0.104105  0.272574  0  3.988577  0
C  C116  1  0.43473642  0.85824902  0.63709885  1  0.96473  0  0.103138  0.270421  0  3.987255  0
C  C117  1  0.56526187  0.14175066  0.36290202  1  0.964751  0  0.103101  0.270375  0  3.987397  0
C  C118  1  0.65980528  0.46371149  0.45057198  1  0.945163  0  0.103997  0.272091  0  3.988877  0
C  C119  1  0.34019602  0.53628819  0.54942770  1  0.945211  0  0.103978  0.272036  0  3.988899  0
C  C120  1  0.97871276  0.07364240  0.97407701  1  -0.055273  0  -0.066398  -0.072844  0  3.624984  0
C  C121  1  0.88883760  0.89357396  0.22062070  1  0.026759  0  -0.056457  -0.209462  0  4.007787  0
O  O122  1  0.75025466  0.75006963  0.49990451  1  -1.211325  0  -0.571656  -1.033828  0  2.535158  0
O  O123  1  0.10342968  0.16850870  0.66881905  1  -1.158524  0  -0.310635  -0.539793  0  2.275895  0
O  O124  1  0.66852789  0.60597113  0.66718699  1  -1.151253  0  -0.301853  -0.528771  0  2.272747  0
O  O125  1  0.33147308  0.39402916  0.33281290  1  -1.151277  0  -0.301864  -0.528744  0  2.27275  0
O  O126  1  0.77109404  0.84499689  0.33100745  1  -1.153286  0  -0.317191  -0.547424  0  2.277041  0
O  O127  1  0.22890649  0.15500096  0.66899277  1  -1.153333  0  -0.317241  -0.547518  0  2.276945  0
O  O128  1  0.65098866  0.88655325  0.53319086  1  -1.175308  0  -0.317227  -0.550289  0  2.319337  0
O  O129  1  0.34901003  0.11344642  0.46681021  1  -1.175325  0  -0.317217  -0.55031  0  2.319327  0
O  O130  1  0.92385314  0.68909080  0.45565908  1  -1.170971  0  -0.314047  -0.545949  0  2.32522  0
O  O131  1  0.07614861  0.31090888  0.54434015  1  -1.170969  0  -0.314042  -0.545871  0  2.325303  0
O  O132  1  0.81232009  0.86979062  0.55195159  1  -1.172655  0  -0.313088  -0.542698  0  2.321555  0
O  O133  1  0.24974516  0.24992944  0.50009677  1  -1.211324  0  -0.571626  -1.033705  0  2.535092  0
O  O134  1  0.18767951  0.13021089  0.44804699  1  -1.17269  0  -0.313099  -0.542704  0  2.321576  0
O  O135  1  0.63342284  0.58294419  0.54919671  1  -1.166623  0  -0.312773  -0.544548  0  2.317844  0
O  O136  1  0.36657777  0.41705183  0.45080379  1  -1.166616  0  -0.312722  -0.544546  0  2.317918  0
O  O137  1  0.91573274  0.87103715  0.44868410  1  -1.173258  0  -0.3159  -0.549064  0  2.322342  0
O  O138  1  0.08426869  0.12896497  0.55131374  1  -1.173269  0  -0.315894  -0.549066  0  2.322401  0
O  O139  1  0.63282222  0.68532922  0.44670090  1  -1.175481  0  -0.313488  -0.541945  0  2.324121  0
O  O140  1  0.36717943  0.31467046  0.55329964  1  -1.175421  0  -0.313487  -0.541949  0  2.324227  0
O  O141  1  0.30027440  0.35269982  0.10931002  1  -1.055083  0  -0.244349  -0.318907  0  2.093069  0
O  O142  1  0.69972693  0.64729802  0.89069060  1  -1.055092  0  -0.244376  -0.318678  0  2.091378  0
O  O143  1  0.42306502  0.61892289  0.10711918  1  -1.041016  0  -0.242994  -0.316409  0  2.095229  0
O  O144  1  0.61563003  0.85026273  0.45977250  1  -1.164923  0  -0.312747  -0.541721  0  2.323177  0
O  O145  1  0.57693784  0.38107679  0.89288196  1  -1.040986  0  -0.242968  -0.316083  0  2.093397  0
O  O146  1  0.01225398  0.22172958  0.43202146  1  -1.059028  0  -0.258217  -0.34142  0  2.098337  0
O  O147  1  0.98774524  0.77827071  0.56797957  1  -1.059034  0  -0.258231  -0.34112  0  2.096371  0
O  O148  1  0.45755011  0.79318672  0.64730261  1  -1.067508  0  -0.26276  -0.346545  0  2.098013  0
O  O149  1  0.54244875  0.20681357  0.35269756  1  -1.067545  0  -0.262759  -0.34653  0  2.098072  0
O  O150  1  0.72369163  0.50895006  0.42993962  1  -1.065576  0  -0.260208  -0.347914  0  2.101979  0
O  O151  1  0.27630943  0.49105023  0.57005897  1  -1.065631  0  -0.260195  -0.347873  0  2.101996  0
O  O152  1  0.38436925  0.14973511  0.54022776  1  -1.164896  0  -0.312803  -0.541822  0  2.323164  0
O  O153  1  0.81698204  0.58111472  0.54194153  1  -1.166247  0  -0.31778  -0.551337  0  2.317887  0
O  O154  1  0.18301886  0.41888678  0.45805636  1  -1.166245  0  -0.317782  -0.551324  0  2.317838  0
O  O155  1  0.65511536  0.72993025  0.66838340  1  -1.116732  0  -0.306223  -0.53362  0  2.271457  0
O  O156  1  0.34488565  0.27007003  0.33161583  1  -1.116717  0  -0.306198  -0.533589  0  2.271436  0
O  O157  1  0.89657117  0.83149098  0.33118108  1  -1.158554  0  -0.310585  -0.539722  0  2.276048  0
