# generated using pymatgen
data_CuH14C16(NO3)2
_symmetry_space_group_name_H-M   'P 1'
_cell_length_a   7.24101373
_cell_length_b   10.70505673
_cell_length_c   10.86212474
_cell_angle_alpha   96.11974369
_cell_angle_beta   103.79202449
_cell_angle_gamma   109.11911898
_symmetry_Int_Tables_number   1
_chemical_formula_structural   CuH14C16(NO3)2
_chemical_formula_sum   'Cu2 H28 C32 N4 O12'
_cell_volume   756.78963639
_cell_formula_units_Z   2
loop_
 _symmetry_equiv_pos_site_id
 _symmetry_equiv_pos_as_xyz
  1  'x, y, z'
loop_
 _atom_site_type_symbol
 _atom_site_label
 _atom_site_symmetry_multiplicity
 _atom_site_fract_x
 _atom_site_fract_y
 _atom_site_fract_z
 _atom_site_occupancy
 _atom_site_hle17_ddec_charge
 _atom_site_hle17_ddec_spin_density
 _atom_site_hle17_ddec_sum_bond_order
 _atom_site_hle17_magmom
 _atom_site_hse06_10hf_ddec_charge
 _atom_site_hse06_10hf_ddec_spin_density
 _atom_site_hse06_10hf_ddec_sum_bond_order
 _atom_site_hse06_10hf_magmom
 _atom_site_hse06_ddec_charge
 _atom_site_hse06_ddec_spin_density
 _atom_site_hse06_ddec_sum_bond_order
 _atom_site_hse06_magmom
 _atom_site_pbe_cm5_charge
 _atom_site_pbe_ddec_charge
 _atom_site_pbe_ddec_spin_density
 _atom_site_pbe_ddec_sum_bond_order
 _atom_site_pbe_magmom
Cu  Cu0  1  0.23826824  0.59277288  0.22986328  1  0.930708  0.730945  1.663691  0.514  0.919498  0.816827  2.041201  0.635  1.012492  0.890988  1.972663  0.72  0.720973  0.860226  0.762839  2.091327  0.58
Cu  Cu1  1  0.76173263  0.40722796  0.77013963  1  0.9308  -0.730938  1.663549  -0.514  0.919563  -0.816824  2.041089  -0.635  1.012555  -0.890987  1.972583  -0.72  0.720984  0.860305  -0.762838  2.091192  -0.58
H  H2  1  0.42842223  0.49926658  0.12078772  1  0.416443  -0.000187  0.898823  -0.002  0.383399  0.000393  0.967148  0.0  0.396491  0.000171  0.948906  0.0  0.287216  0.37424  0.000566  0.979917  0.0
H  H3  1  0.57158011  0.50073430  0.87922095  1  0.416415  0.000187  0.898786  0.002  0.383368  -0.000393  0.967184  0.0  0.396461  -0.000171  0.948941  0.0  0.287197  0.374204  -0.000566  0.979963  0.0
H  H4  1  0.19130837  0.39246954  0.07094362  1  0.42838  -0.000156  0.877934  -0.001  0.398654  0.000431  0.942432  0.0  0.411431  0.000245  0.9242  0.0  0.289493  0.389635  0.000565  0.955355  0.0
H  H5  1  0.80869338  0.60753031  0.92906117  1  0.4285  0.000156  0.877804  0.001  0.398729  -0.000431  0.942363  0.0  0.411507  -0.000246  0.924132  0.0  0.289559  0.389712  -0.000565  0.955283  0.0
H  H6  1  0.17022405  0.20399210  0.15995457  1  0.09781  0.0003  0.959853  0.0  0.108689  0.000301  1.020307  0.0  0.111653  0.000212  1.018478  0.0  0.101678  0.106472  0.000296  1.021916  0.0
H  H7  1  0.82977965  0.79600873  0.84004602  1  0.097819  -0.000298  0.959884  0.0  0.108701  -0.000301  1.020331  0.0  0.111665  -0.000211  1.0185  0.0  0.10169  0.106482  -0.000296  1.021938  0.0
H  H8  1  0.30129456  0.92244489  0.64842537  1  0.073208  1.5e-05  0.975357  0.0  0.091319  3e-06  1.035017  0.0  0.090617  1e-05  1.037757  0.0  0.108374  0.091795  4e-06  1.033106  0.0
H  H9  1  0.69870229  0.07755389  0.35156934  1  0.073216  -1.4e-05  0.975319  0.0  0.09132  -3e-06  1.035008  0.0  0.090619  -1e-05  1.037746  0.0  0.108398  0.091796  -4e-06  1.033096  0.0
H  H10  1  0.54681226  0.05201731  0.68735282  1  0.085397  -2.4e-05  0.955655  0.0  0.094898  -3.1e-05  1.02915  0.0  0.096871  6e-06  1.027242  0.0  0.10818  0.093358  -7.8e-05  1.030653  0.0
H  H11  1  0.45318514  0.94798248  0.31264116  1  0.085358  2.6e-05  0.955656  0.0  0.094807  3e-05  1.029225  0.0  0.096776  -5e-06  1.027321  0.0  0.108143  0.093271  7.8e-05  1.030716  0.0
H  H12  1  0.80633677  0.18176600  0.11807234  1  0.096906  -0.0002  0.950311  0.0  0.106101  -2e-05  1.011593  0.0  0.108488  -2.1e-05  1.011774  0.0  0.099316  0.104421  2e-06  1.011661  0.0
H  H13  1  0.19366407  0.81823483  0.88192780  1  0.096905  0.0002  0.950375  0.0  0.106094  2e-05  1.011663  0.0  0.10848  2.1e-05  1.011846  0.0  0.099319  0.104412  -2e-06  1.011729  0.0
H  H14  1  0.79303209  0.01604897  0.56682812  1  0.074872  -0.000109  0.928247  0.0  0.089167  -0.000138  0.992892  0.0  0.090153  -8.6e-05  0.992535  0.0  0.105627  0.088322  -0.000184  0.993267  0.0
H  H15  1  0.20696477  0.98394981  0.43316752  1  0.074828  0.00011  0.928293  0.0  0.089161  0.000138  0.992934  0.0  0.090146  8.6e-05  0.992575  0.0  0.105635  0.088319  0.000184  0.993305  0.0
H  H16  1  0.69431362  0.86690538  0.44097989  1  0.097504  -4e-06  0.927228  0.0  0.113233  -0.0  0.983404  0.0  0.114889  -0.0  0.982161  0.0  0.118195  0.111877  -1e-06  0.984473  0.0
H  H17  1  0.30568181  0.13309339  0.55901460  1  0.097423  7e-06  0.927323  0.0  0.113171  0.0  0.983511  0.0  0.114828  0.0  0.982266  0.0  0.118163  0.111811  1e-06  0.984585  0.0
H  H18  1  0.74889481  0.58576578  0.57507926  1  0.10425  -0.001078  0.937745  -0.002  0.109812  -0.00093  1.002949  -0.002  0.112276  -0.000656  1.000116  -0.001  0.123105  0.107913  -0.001148  1.004969  -0.002
H  H19  1  0.25110237  0.41423099  0.42491714  1  0.104325  0.001079  0.937568  0.002  0.109772  0.00093  1.002918  0.002  0.112237  0.000656  1.000083  0.001  0.123099  0.107867  0.001148  1.00494  0.002
H  H20  1  0.99991693  0.71913518  0.47089285  1  0.12527  -0.000546  0.934105  -0.001  0.137454  -0.000447  0.987704  -0.001  0.141671  -0.000332  0.985684  0.0  0.114135  0.134196  -0.000568  0.989635  -0.001
H  H21  1  0.00007884  0.28086159  0.52910424  1  0.125284  0.000547  0.934099  0.001  0.137473  0.000447  0.987696  0.001  0.141691  0.000332  0.985673  0.0  0.11415  0.134218  0.000568  0.98963  0.001
H  H22  1  0.26265150  0.00190754  0.17328789  1  0.089957  9e-06  0.961073  0.0  0.102027  0.000111  1.021871  0.0  0.104515  6.5e-05  1.021148  0.0  0.101529  0.100158  0.000111  1.0226  0.0
H  H23  1  0.73735020  0.99809227  0.82671137  1  0.089957  -8e-06  0.961111  0.0  0.102062  -0.000111  1.021855  0.0  0.104551  -6.5e-05  1.021131  0.0  0.101534  0.100192  -0.000111  1.022589  0.0
H  H24  1  0.54287845  0.95872754  0.11174326  1  0.092016  0.000186  0.961401  0.0  0.101854  0.00013  1.025013  0.0  0.104852  8.2e-05  1.023188  0.0  0.10121  0.099661  0.000166  1.026359  0.0
H  H25  1  0.45712469  0.04127229  0.88825715  1  0.091997  -0.000187  0.961384  0.0  0.101814  -0.000131  1.025028  0.0  0.104807  -8.2e-05  1.023207  0.0  0.101204  0.099621  -0.000166  1.026365  0.0
H  H26  1  0.20157393  0.50672169  0.83404106  1  0.103133  -0.001062  0.962176  -0.002  0.107456  -0.000927  1.027944  -0.001  0.110028  -0.000649  1.025154  -0.001  0.124417  0.105177  -0.001142  1.030517  -0.002
H  H27  1  0.79842436  0.49327710  0.16595572  1  0.103129  0.001062  0.962168  0.002  0.107431  0.000927  1.027972  0.001  0.110001  0.000649  1.025183  0.001  0.124412  0.105152  0.001142  1.030543  0.002
H  H28  1  0.46854263  0.63427463  0.74024645  1  0.127741  -0.000694  0.965114  -0.001  0.139534  -0.000655  1.019553  -0.001  0.143457  -0.000448  1.017752  0.0  0.112375  0.136564  -0.000819  1.021229  -0.001
H  H29  1  0.53145819  0.36572618  0.25975093  1  0.127727  0.000694  0.96513  0.001  0.139534  0.000655  1.019551  0.001  0.143475  0.000448  1.017726  0.0  0.112393  0.136565  0.000819  1.021226  0.001
C  C30  1  0.05309067  0.10668765  0.15347984  1  -0.045756  -0.002113  3.741023  -0.002  -0.064404  -0.000225  3.998994  0.0  -0.064685  -0.000509  4.019979  -0.001  -0.086266  -0.063949  0.000244  3.984854  0.0
C  C31  1  0.94691049  0.89331116  0.84652015  1  -0.045727  0.002121  3.74109  0.002  -0.064372  0.000224  3.99906  0.0  -0.064654  0.00051  4.020046  0.001  -0.086269  -0.063913  -0.000244  3.984914  0.0
C  C32  1  0.42176697  0.97724286  0.60842204  1  -0.029204  0.000109  3.64915  0.0  -0.094582  5e-05  3.910045  0.0  -0.090477  7.2e-05  3.920556  0.0  -0.061419  -0.097116  1.2e-05  3.902699  0.0
C  C33  1  0.57822989  0.02275592  0.39157360  1  -0.029044  -0.000116  3.649042  0.0  -0.094421  -4.8e-05  3.909913  0.0  -0.090313  -7.5e-05  3.92042  0.0  -0.061399  -0.096958  -1.2e-05  3.902563  0.0
C  C34  1  0.25561252  0.68768509  0.59743591  1  0.017102  0.008334  3.743583  0.008  0.034386  0.002823  3.979478  0.003  0.035973  0.003079  3.997702  0.003  0.011999  0.032873  0.002578  3.967326  0.003
C  C35  1  0.74438634  0.31231472  0.40256198  1  0.017069  -0.008328  3.743694  -0.008  0.034367  -0.002821  3.979587  -0.003  0.035955  -0.003081  3.997812  -0.003  0.012003  0.032852  -0.002578  3.967445  -0.003
C  C36  1  0.84922836  0.09455456  0.13178622  1  -0.073337  0.006199  3.764337  0.005  -0.092953  0.002068  4.027277  0.002  -0.096173  0.001431  4.049187  0.001  -0.094829  -0.090719  0.002558  4.01227  0.002
C  C37  1  0.15077336  0.90544526  0.86821488  1  -0.07339  -0.006207  3.764472  -0.006  -0.093013  -0.002068  4.027414  -0.002  -0.096233  -0.001432  4.049323  -0.001  -0.094858  -0.090777  -0.002558  4.012404  -0.002
C  C38  1  0.02727569  0.74840807  0.15553119  1  0.655089  -0.004595  3.88839  -0.007  0.605613  -0.000375  4.199449  -0.003  0.644279  -0.000842  4.188979  -0.003  0.20952  0.579313  3.9e-05  4.205769  -0.003
C  C39  1  0.97272522  0.25159280  0.84447634  1  0.6553  0.004596  3.888314  0.007  0.605735  0.000374  4.199498  0.003  0.644401  0.00084  4.189023  0.003  0.209582  0.579435  -3.9e-05  4.205831  0.003
C  C40  1  0.65769686  0.94668872  0.48972052  1  -0.005587  -1.3e-05  3.609912  0.0  -0.065564  -5.7e-05  3.864365  0.0  -0.061047  -3.1e-05  3.873553  0.0  -0.05608  -0.068449  -7.5e-05  3.858091  0.0
C  C41  1  0.34229801  0.05330905  0.51027286  1  -0.005284  1.3e-05  3.609892  0.0  -0.065383  5.6e-05  3.864474  0.0  -0.060863  3.2e-05  3.873662  0.0  -0.056049  -0.068273  7.5e-05  3.858202  0.0
C  C42  1  0.91034822  0.60077823  0.60982065  1  0.130775  0.005791  3.669665  0.006  0.102151  -2e-05  3.929636  0.001  0.111682  0.001314  3.948251  0.002  0.052101  0.095978  -0.001045  3.917846  0.0
C  C43  1  0.08964952  0.39921956  0.39017686  1  0.130831  -0.005784  3.669508  -0.006  0.102286  2e-05  3.929513  -0.001  0.111817  -0.001315  3.948128  -0.002  0.052137  0.096124  0.001044  3.91771  0.0
C  C44  1  0.95716622  0.86640793  0.15304687  1  -0.048214  0.007839  3.704706  0.008  -0.032564  0.004397  3.935571  0.005  -0.034825  0.00251  3.953483  0.003  -0.004692  -0.030845  0.006133  3.923239  0.007
C  C45  1  0.04283663  0.13359392  0.84695645  1  -0.048228  -0.007832  3.704596  -0.008  -0.032572  -0.004398  3.935538  -0.005  -0.034835  -0.002509  3.953455  -0.003  -0.004694  -0.030869  -0.006133  3.923234  -0.007
C  C46  1  0.05127827  0.67565996  0.55263219  1  -0.138006  -0.010153  3.690069  -0.011  -0.159237  -0.004491  3.936813  -0.005  -0.165508  -0.004092  3.955158  -0.005  -0.077803  -0.155206  -0.004782  3.925201  -0.006
C  C47  1  0.94871862  0.32433884  0.44736621  1  -0.138078  0.010145  3.690152  0.011  -0.159308  0.004491  3.93687  0.005  -0.165577  0.004094  3.955211  0.005  -0.077835  -0.155283  0.004782  3.925263  0.006
C  C48  1  0.10520398  0.99315670  0.16235611  1  -0.091248  0.005025  3.748732  0.005  -0.114701  0.001886  4.001917  0.002  -0.117814  0.001342  4.023698  0.001  -0.089894  -0.112497  0.002752  3.987138  0.003
C  C49  1  0.89479860  0.00684212  0.83764410  1  -0.0913  -0.005037  3.748815  -0.005  -0.114769  -0.001886  4.001987  -0.002  -0.117882  -0.001344  4.02377  -0.001  -0.08988  -0.112558  -0.002752  3.987218  -0.003
C  C50  1  0.70214548  0.97007688  0.12635380  1  -0.082316  -0.001705  3.762052  -0.002  -0.102614  -0.000115  4.011721  0.0  -0.102076  -0.000431  4.031574  -0.001  -0.087546  -0.102577  0.000226  3.997808  0.0
C  C51  1  0.29785427  0.02992194  0.87364781  1  -0.082319  0.001715  3.761873  0.002  -0.102586  0.000115  4.011542  0.0  -0.102045  0.00043  4.031392  0.001  -0.087549  -0.102544  -0.000226  3.997621  0.0
C  C52  1  0.59574830  0.72638362  0.14493967  1  0.64399  -0.002426  3.885099  -0.005  0.601202  0.000699  4.177418  -0.001  0.638608  0.00024  4.170755  -0.001  0.214048  0.5758  0.001037  4.181201  -0.001
C  C53  1  0.40425483  0.27362129  0.85506861  1  0.643688  0.002425  3.885496  0.005  0.600943  -0.000701  4.177764  0.001  0.63835  -0.000242  4.171099  0.001  0.214009  0.575535  -0.001038  4.181555  0.001
C  C54  1  0.41633778  0.74802968  0.53226516  1  0.490909  -0.000903  3.821749  -0.001  0.441402  -0.000464  4.11553  -0.001  0.47187  -0.000363  4.113069  0.0  0.246117  0.420953  -0.00054  4.11654  -0.001
C  C55  1  0.58365851  0.25196808  0.46772844  1  0.490964  0.000903  3.821735  0.001  0.441445  0.000464  4.115523  0.001  0.471913  0.000361  4.11306  0.0  0.246124  0.420993  0.00054  4.116541  0.001
C  C56  1  0.75416723  0.85593074  0.13971550  1  -0.079811  0.012014  3.732264  0.012  -0.067017  0.005936  3.962527  0.006  -0.074613  0.004178  3.98405  0.005  -0.017386  -0.061905  0.007257  3.947749  0.008
C  C57  1  0.24583510  0.14407013  0.86029133  1  -0.079667  -0.012023  3.732168  -0.012  -0.066894  -0.005936  3.962415  -0.006  -0.07449  -0.004178  3.983941  -0.005  -0.017374  -0.061775  -0.007257  3.947641  -0.008
C  C58  1  0.16337165  0.55645281  0.75464492  1  0.130694  0.007477  3.674482  0.008  0.101486  0.001495  3.932266  0.002  0.112215  0.002578  3.948766  0.003  0.049336  0.094304  0.000598  3.922079  0.001
C  C59  1  0.83662721  0.44354700  0.24535389  1  0.130738  -0.007471  3.674379  -0.008  0.101544  -0.001495  3.932194  -0.002  0.112273  -0.002578  3.948702  -0.003  0.04934  0.094362  -0.000597  3.922012  -0.001
C  C60  1  0.31196772  0.62878047  0.70199417  1  -0.130802  -0.009648  3.675001  -0.01  -0.147982  -0.004091  3.910207  -0.005  -0.155235  -0.003725  3.928656  -0.004  -0.076346  -0.143151  -0.004361  3.898263  -0.005
C  C61  1  0.68803026  0.37122034  0.29800368  1  -0.130803  0.009643  3.674959  0.01  -0.147993  0.00409  3.910163  0.005  -0.155259  0.003727  3.928604  0.004  -0.076371  -0.143162  0.004362  3.898224  0.005
N  N62  1  0.49832633  0.88363280  0.54873063  1  -0.197924  -4e-05  3.408071  0.0  -0.110138  -5.9e-05  3.64435  0.0  -0.130587  -4.8e-05  3.665415  0.0  -0.272827  -0.096455  -0.000108  3.629701  0.0
N  N63  1  0.50167052  0.11636598  0.45126408  1  -0.198091  3.3e-05  3.408129  0.0  -0.110279  5.8e-05  3.644457  0.0  -0.130726  5.2e-05  3.665518  0.0  -0.272879  -0.096594  0.000107  3.62981  0.0
N  N64  1  0.96547344  0.53999857  0.70727696  1  -0.306223  -0.081549  3.337208  -0.099  -0.258164  -0.057603  3.634263  -0.075  -0.290843  -0.047779  3.657472  -0.066  -0.346465  -0.238744  -0.062776  3.620926  -0.079
N  N65  1  0.03452543  0.46000125  0.29272278  1  -0.306251  0.081549  3.33713  0.099  -0.258196  0.057606  3.634157  0.075  -0.290876  0.04778  3.657366  0.066  -0.346448  -0.238772  0.06278  3.620811  0.079
O  O66  1  0.61374737  0.61628400  0.10796661  1  -0.593  -0.001757  2.037819  -0.001  -0.533238  -0.001267  2.248745  -0.001  -0.559518  -0.001388  2.240423  -0.001  -0.299122  -0.514728  -0.001108  2.254024  -0.001
O  O67  1  0.38626324  0.38371894  0.89204909  1  -0.592828  0.001756  2.038104  0.001  -0.533057  0.001267  2.248999  0.001  -0.559337  0.00139  2.240677  0.001  -0.29902  -0.514552  0.001108  2.254301  0.001
O  O68  1  0.47361162  0.66945083  0.47084941  1  -0.55937  1.1e-05  1.931461  0.001  -0.532588  -0.00011  2.171027  0.001  -0.556837  -0.000232  2.161128  0.001  -0.29808  -0.515517  -5e-05  2.17755  0.001
O  O69  1  0.52638010  0.33054895  0.52914552  1  -0.559385  -1e-05  1.931365  -0.001  -0.532593  0.000108  2.170936  -0.001  -0.556867  0.000233  2.161084  -0.001  -0.298074  -0.515518  5e-05  2.177457  -0.001
O  O70  1  0.11880352  0.73520781  0.26788464  1  -0.592655  0.096702  2.001519  0.125  -0.57192  0.058808  2.28248  0.083  -0.615324  0.04501  2.276926  0.067  -0.316827  -0.542401  0.067755  2.286226  0.092
O  O71  1  0.88119737  0.26479305  0.73212104  1  -0.592719  -0.096708  2.001555  -0.125  -0.57194  -0.058812  2.282547  -0.083  -0.615345  -0.045012  2.276994  -0.067  -0.316813  -0.542418  -0.067756  2.286294  -0.092
O  O72  1  0.01071232  0.67527681  0.05171236  1  -0.618608  -0.002079  1.993881  -0.001  -0.58285  -0.001219  2.238613  -0.001  -0.611767  -0.001428  2.226287  -0.001  -0.308116  -0.562465  -0.000897  2.247328  0.0
O  O73  1  0.98928976  0.32472102  0.94829320  1  -0.618697  0.00208  1.993906  0.001  -0.582925  0.00122  2.238675  0.001  -0.611841  0.001429  2.226346  0.001  -0.308165  -0.562537  0.000898  2.247392  0.0
O  O74  1  0.45289741  0.73905222  0.19080504  1  -0.601696  0.08316  2.088088  0.108  -0.573403  0.049689  2.371119  0.071  -0.616435  0.038041  2.363955  0.057  -0.325847  -0.544661  0.057388  2.376329  0.079
O  O75  1  0.54710226  0.26095164  0.80919707  1  -0.601697  -0.083163  2.088119  -0.108  -0.573442  -0.049691  2.371188  -0.071  -0.61647  -0.038044  2.364019  -0.057  -0.325922  -0.544696  -0.057391  2.376398  -0.079
O  O76  1  0.30857283  0.44441795  0.15104932  1  -0.818536  0.072205  1.965583  0.091  -0.785463  0.052709  2.189804  0.072  -0.820786  0.042245  2.152644  0.062  -0.579411  -0.761906  0.059142  2.216537  0.078
O  O77  1  0.69143004  0.55558392  0.84895677  1  -0.818627  -0.072203  1.96533  -0.091  -0.78553  -0.052705  2.189662  -0.072  -0.820854  -0.042242  2.15251  -0.062  -0.579463  -0.761975  -0.059142  2.216397  -0.078
