# generated using pymatgen
data_Ag2P2H13C14NO5
_symmetry_space_group_name_H-M   'P 1'
_cell_length_a   5.79390219
_cell_length_b   10.99118993
_cell_length_c   13.07717752
_cell_angle_alpha   83.63018441
_cell_angle_beta   84.77005452
_cell_angle_gamma   86.92036556
_symmetry_Int_Tables_number   1
_chemical_formula_structural   Ag2P2H13C14NO5
_chemical_formula_sum   'Ag4 P4 H26 C28 N2 O10'
_cell_volume   823.39196336
_cell_formula_units_Z   2
loop_
 _symmetry_equiv_pos_site_id
 _symmetry_equiv_pos_as_xyz
  1  'x, y, z'
loop_
 _atom_site_type_symbol
 _atom_site_label
 _atom_site_symmetry_multiplicity
 _atom_site_fract_x
 _atom_site_fract_y
 _atom_site_fract_z
 _atom_site_occupancy
 _atom_site_hle17_bader_spin_density
 _atom_site_hle17_ddec_charge
 _atom_site_hle17_ddec_spin_density
 _atom_site_hle17_ddec_sum_bond_order
 _atom_site_hle17_magmom
 _atom_site_hse06_10hf_bader_spin_density
 _atom_site_hse06_10hf_ddec_charge
 _atom_site_hse06_10hf_ddec_spin_density
 _atom_site_hse06_10hf_ddec_sum_bond_order
 _atom_site_hse06_10hf_magmom
 _atom_site_hse06_bader_spin_density
 _atom_site_hse06_ddec_charge
 _atom_site_hse06_ddec_spin_density
 _atom_site_hse06_ddec_sum_bond_order
 _atom_site_hse06_magmom
 _atom_site_pbe_bader_spin_density
 _atom_site_pbe_cm5_charge
 _atom_site_pbe_ddec_charge
 _atom_site_pbe_ddec_spin_density
 _atom_site_pbe_ddec_sum_bond_order
 _atom_site_pbe_magmom
Ag  Ag0  1  0.18166711  0.46439627  0.42235727  1  0  0.633457  0  1.491033  0  0  0.534534  0  1.953334  0  0  0.565518  0  1.886754  0  0  0.437961  0.512835  0  1.999908  0
Ag  Ag1  1  0.81830605  0.53560735  0.57763267  1  0  0.633489  0  1.490793  0  0  0.534503  0  1.953182  0  0  0.565488  0  1.886609  0  0  0.437955  0.512805  0  1.999754  0
Ag  Ag2  1  0.26478191  0.70390696  0.47187826  1  0  0.676162  0  1.462983  0  0  0.565022  0  1.935199  0  0  0.593165  0  1.876026  0  0  0.471808  0.545396  0  1.976613  0
Ag  Ag3  1  0.73518678  0.29608149  0.52812656  1  0  0.676213  0  1.462948  0  0  0.565115  0  1.935112  0  0  0.593224  0  1.876006  0  0  0.471855  0.545485  0  1.976521  0
P  P4  1  0.20484042  0.33933884  0.66724407  1  0  1.420269  0  4.827426  0  0  1.260401  0  5.304739  0  0  1.311817  0  5.271507  0  0  0.35421  1.22459  0  5.326795  0
P  P5  1  0.79513220  0.66066679  0.33275100  1  0  1.420294  0  4.827286  0  0  1.260452  0  5.304625  0  0  1.311873  0  5.271374  0  0  0.354127  1.22463  0  5.32673  0
P  P6  1  0.30206357  0.58617759  0.72187806  1  0  1.434739  0  4.800095  0  0  1.275749  0  5.283191  0  0  1.328047  0  5.24758  0  0  0.364796  1.23915  0  5.30731  0
P  P7  1  0.69791760  0.41382466  0.27812406  1  0  1.434957  0  4.800053  0  0  1.276  0  5.283149  0  0  1.3283  0  5.247524  0  0  0.364928  1.239407  0  5.307267  0
H  H8  1  0.60344294  0.25967478  0.78643391  1  0  0.106725  0  0.9564  0  0  0.116112  0  1.019995  0  0  0.119154  0  1.017973  0  0  0.105015  0.113834  0  1.021646  0
H  H9  1  0.39653725  0.74034186  0.21355892  1  0  0.106782  0  0.956344  0  0  0.116212  0  1.019886  0  0  0.119263  0  1.017843  0  0  0.105032  0.113937  0  1.021537  0
H  H10  1  0.70716089  0.06061760  0.88448669  1  0  0.09047  0  0.949657  0  0  0.101926  0  1.00675  0  0  0.104638  0  1.006615  0  0  0.101601  0.100016  0  1.006858  0
H  H11  1  0.29282854  0.93940836  0.11550787  1  0  0.090408  0  0.949383  0  0  0.101865  0  1.006509  0  0  0.104577  0  1.006375  0  0  0.101569  0.099951  0  1.006621  0
H  H12  1  0.46041397  0.88108338  0.88307950  1  0  0.085379  0  0.968008  0  0  0.095662  0  1.030348  0  0  0.09817  0  1.029585  0  0  0.099352  0.093855  0  1.03091  0
H  H13  1  0.53961243  0.11893641  0.11691552  1  0  0.085467  0  0.967874  0  0  0.09571  0  1.030264  0  0  0.098226  0  1.029492  0  0  0.099341  0.093877  0  1.030855  0
H  H14  1  0.11030237  0.90250866  0.78637590  1  0  0.086286  0  0.972927  0  0  0.096679  0  1.033527  0  0  0.098637  0  1.034367  0  0  0.097283  0.094983  0  1.033489  0
H  H15  1  0.88972938  0.09749283  0.21362108  1  0  0.086241  0  0.973031  0  0  0.096639  0  1.033623  0  0  0.098597  0  1.034462  0  0  0.097275  0.09494  0  1.033581  0
H  H16  1  0.99775249  0.10424684  0.69327571  1  0  0.084867  0  0.984375  0  0  0.094784  0  1.050967  0  0  0.096799  0  1.051141  0  0  0.098046  0.093302  0  1.050954  0
H  H17  1  0.00224561  0.89574876  0.30671676  1  0  0.084904  0  0.984533  0  0  0.094863  0  1.051027  0  0  0.096877  0  1.051203  0  0  0.098092  0.093367  0  1.051032  0
H  H18  1  0.84614451  0.68737531  0.79623247  1  0  0.10861  0  0.96617  0  0  0.117807  0  1.029938  0  0  0.120775  0  1.028464  0  0  0.103235  0.115742  0  1.030976  0
H  H19  1  0.15384840  0.31262458  0.20377955  1  0  0.108577  0  0.966234  0  0  0.117783  0  1.029975  0  0  0.120753  0  1.028501  0  0  0.103246  0.115719  0  1.031012  0
H  H20  1  0.70191279  0.75698561  0.96706165  1  0  0.076192  0  0.97905  0  0  0.087663  0  1.041666  0  0  0.089801  0  1.041814  0  0  0.095381  0.086156  0  1.041627  0
H  H21  1  0.29809339  0.24300074  0.03295538  1  0  0.07606  0  0.979078  0  0  0.087614  0  1.041609  0  0  0.089721  0  1.04179  0  0  0.095303  0.086072  0  1.041599  0
H  H22  1  0.95046762  0.72756301  0.11271648  1  0  0.084092  0  0.986634  0  0  0.095192  0  1.047689  0  0  0.097203  0  1.047602  0  0  0.095567  0.09377  0  1.047762  0
H  H23  1  0.04956005  0.27242138  0.88729253  1  0  0.084027  0  0.986864  0  0  0.095182  0  1.04785  0  0  0.097192  0  1.047766  0  0  0.09555  0.093757  0  1.047922  0
H  H24  1  0.49911860  0.57056127  0.91742077  1  0  0.088789  0  0.972608  0  0  0.099027  0  1.038417  0  0  0.10118  0  1.037981  0  0  0.103575  0.097431  0  1.038836  0
H  H25  1  0.50087973  0.42943160  0.08257277  1  0  0.088718  0  0.9726  0  0  0.098958  0  1.038424  0  0  0.101109  0  1.037993  0  0  0.103537  0.097364  0  1.038841  0
H  H26  1  0.34597381  0.62909524  0.08991770  1  0  0.091779  0  0.956495  0  0  0.104555  0  1.013734  0  0  0.107185  0  1.012803  0  0  0.101951  0.102615  0  1.014582  0
H  H27  1  0.65404939  0.37088877  0.91008076  1  0  0.091679  0  0.956549  0  0  0.104483  0  1.013764  0  0  0.107112  0  1.012831  0  0  0.101997  0.102588  0  1.014553  0
H  H28  1  0.29249988  0.19037512  0.46798043  1  0  0.163177  0  0.946022  0  0  0.176412  0  1.013674  0  0  0.179013  0  1.011537  0  0  0.111348  0.174375  0  1.01553  0
H  H29  1  0.70749993  0.80961875  0.53201525  1  0  0.163191  0  0.946121  0  0  0.176417  0  1.013762  0  0  0.179017  0  1.01163  0  0  0.111355  0.174381  0  1.015618  0
H  H30  1  0.09168849  0.17447118  0.37542029  1  0  0.167336  0  0.929013  0  0  0.183551  0  0.989248  0  0  0.185872  0  0.987721  0  0  0.116127  0.181673  0  0.990686  0
H  H31  1  0.90832349  0.82551839  0.62458168  1  0  0.167428  0  0.928952  0  0  0.183629  0  0.989168  0  0  0.185947  0  0.987641  0  0  0.116154  0.181748  0  0.990611  0
H  H32  1  0.39670987  0.16397527  0.34003799  1  0  0.166793  0  0.927238  0  0  0.182154  0  0.986465  0  0  0.184319  0  0.98588  0  0  0.116858  0.180611  0  0.986865  0
H  H33  1  0.60327881  0.83602152  0.65996455  1  0  0.166927  0  0.927066  0  0  0.182234  0  0.986357  0  0  0.184403  0  0.985774  0  0  0.116866  0.18069  0  0.986757  0
C  C34  1  0.29236619  0.19490775  0.73461914  1  0  -0.249106  0  3.79547  0  0  -0.202966  0  4.030635  0  0  -0.213997  0  4.053809  0  0  -0.027996  -0.195648  0  4.015245  0
C  C35  1  0.70763927  0.80509809  0.26537577  1  0  -0.248883  0  3.795229  0  0  -0.202829  0  4.030505  0  0  -0.213859  0  4.053681  0  0  -0.027956  -0.195514  0  4.015119  0
C  C36  1  0.49370646  0.18201722  0.78770654  1  0  -0.040703  0  3.732175  0  0  -0.069061  0  3.984869  0  0  -0.068287  0  4.005522  0  0  -0.081604  -0.069575  0  3.971175  0
C  C37  1  0.50628911  0.81799527  0.21229630  1  0  -0.040849  0  3.731719  0  0  -0.069219  0  3.984471  0  0  -0.068444  0  4.005125  0  0  -0.081604  -0.069732  0  3.97078  0
C  C38  1  0.55320095  0.06949305  0.84155005  1  0  -0.078732  0  3.757212  0  0  -0.087095  0  4.001928  0  0  -0.091077  0  4.024288  0  0  -0.089846  -0.084443  0  3.986837  0
C  C39  1  0.44680373  0.93053143  0.15845192  1  0  -0.078593  0  3.756797  0  0  -0.086958  0  4.00153  0  0  -0.090942  0  4.023895  0  0  -0.089848  -0.084301  0  3.98643  0
C  C40  1  0.41524420  0.96907773  0.84087612  1  0  -0.060202  0  3.759014  0  0  -0.072597  0  3.999331  0  0  -0.072769  0  4.020108  0  0  -0.086281  -0.072355  0  3.985114  0
C  C41  1  0.58478604  0.03093406  0.15912661  1  0  -0.060417  0  3.759092  0  0  -0.072773  0  3.999397  0  0  -0.072951  0  4.020173  0  0  -0.086293  -0.072512  0  3.98517  0
C  C42  1  0.21756366  0.98103006  0.78612282  1  0  -0.07808  0  3.766724  0  0  -0.085896  0  4.00717  0  0  -0.08944  0  4.029556  0  0  -0.093091  -0.083368  0  3.992029  0
C  C43  1  0.78246933  0.01897429  0.21387686  1  0  -0.077911  0  3.766576  0  0  -0.085735  0  4.007015  0  0  -0.089277  0  4.029399  0  0  -0.092997  -0.083202  0  3.991854  0
C  C44  1  0.15522295  0.09369707  0.73351541  1  0  -0.047911  0  3.760017  0  0  -0.068543  0  3.993776  0  0  -0.06879  0  4.016839  0  0  -0.08441  -0.068137  0  3.978023  0
C  C45  1  0.84478665  0.90629890  0.26648588  1  0  -0.048068  0  3.760123  0  0  -0.0687  0  3.993907  0  0  -0.06895  0  4.016972  0  0  -0.084496  -0.068278  0  3.978166  0
C  C46  1  0.18357856  0.62693188  0.84587159  1  0  -0.244193  0  3.790856  0  0  -0.199122  0  4.025736  0  0  -0.210821  0  4.050007  0  0  -0.02735  -0.191449  0  4.009752  0
C  C47  1  0.81640630  0.37306679  0.15413314  1  0  -0.244154  0  3.790545  0  0  -0.199105  0  4.025423  0  0  -0.210804  0  4.049696  0  0  -0.027361  -0.191442  0  4.009456  0
C  C48  1  0.95760743  0.67843233  0.85977261  1  0  -0.049307  0  3.742721  0  0  -0.071439  0  3.981978  0  0  -0.07061  0  4.003096  0  0  -0.082667  -0.071663  0  3.967694  0
C  C49  1  0.04238439  0.32156377  0.14023605  1  0  -0.049348  0  3.742596  0  0  -0.071475  0  3.981861  0  0  -0.070641  0  4.002966  0  0  -0.082695  -0.071697  0  3.96757  0
C  C50  1  0.87644684  0.71581580  0.95573200  1  0  -0.080081  0  3.766091  0  0  -0.090198  0  4.011341  0  0  -0.094341  0  4.033767  0  0  -0.092597  -0.087388  0  3.995854  0
C  C51  1  0.12356003  0.28416673  0.04428086  1  0  -0.079955  0  3.765687  0  0  -0.09013  0  4.010932  0  0  -0.094247  0  4.03337  0  0  -0.092563  -0.08729  0  3.995452  0
C  C52  1  0.01608779  0.69904013  0.03809509  1  0  -0.042642  0  3.735592  0  0  -0.056304  0  3.976326  0  0  -0.05597  0  3.997451  0  0  -0.086687  -0.056259  0  3.961654  0
C  C53  1  0.98392104  0.30094840  0.96190402  1  0  -0.042625  0  3.735458  0  0  -0.056356  0  3.976235  0  0  -0.05602  0  3.997352  0  0  -0.086619  -0.056313  0  3.961565  0
C  C54  1  0.32339699  0.61001090  0.92886519  1  0  -0.045182  0  3.762688  0  0  -0.069804  0  4.005848  0  0  -0.069119  0  4.028298  0  0  -0.081444  -0.07004  0  3.990568  0
C  C55  1  0.67660512  0.38997748  0.07113106  1  0  -0.045192  0  3.762761  0  0  -0.069801  0  4.005913  0  0  -0.069114  0  4.028363  0  0  -0.081422  -0.070036  0  3.990645  0
C  C56  1  0.23859327  0.64454688  0.02505992  1  0  -0.080104  0  3.75553  0  0  -0.091274  0  4.004309  0  0  -0.095201  0  4.026153  0  0  -0.091053  -0.088603  0  3.989397  0
C  C57  1  0.76141613  0.35545005  0.97494279  1  0  -0.079925  0  3.755831  0  0  -0.091124  0  4.004642  0  0  -0.095049  0  4.02649  0  0  -0.091096  -0.088485  0  3.989718  0
C  C58  1  0.26253299  0.01166583  0.43249548  1  0  0.439217  0  3.697814  0  0  0.42889  0  3.969606  0  0  0.442752  0  3.98752  0  0  0.220243  0.419253  0  3.957537  0
C  C59  1  0.73748721  0.98831706  0.56749784  1  0  0.43927  0  3.697549  0  0  0.428931  0  3.969333  0  0  0.442798  0  3.987243  0  0  0.22017  0.419286  0  3.957262  0
C  C60  1  0.26062467  0.14133259  0.40212571  1  0  -0.387824  0  3.728748  0  0  -0.455458  0  3.95579  0  0  -0.459181  0  3.959146  0  0  -0.213766  -0.452626  0  3.953948  0
C  C61  1  0.73938068  0.85865505  0.59787513  1  0  -0.388096  0  3.728687  0  0  -0.455614  0  3.955733  0  0  -0.459342  0  3.959093  0  0  -0.213786  -0.452773  0  3.953887  0
N  N62  1  0.26275956  0.90663646  0.45705637  1  0  -0.489724  0  2.905572  0  0  -0.443867  0  3.200889  0  0  -0.462059  0  3.206139  0  0  -0.351775  -0.431822  0  3.19775  0
N  N63  1  0.73725591  0.09335921  0.54293484  1  0  -0.489838  0  2.905365  0  0  -0.44398  0  3.200684  0  0  -0.462167  0  3.205927  0  0  -0.351774  -0.431929  0  3.197541  0
O  O64  1  0.29531952  0.43491877  0.73786748  1  0  -0.677726  0  2.246388  0  0  -0.578745  0  2.501631  0  0  -0.602544  0  2.483267  0  0  -0.210717  -0.561805  0  2.513476  0
O  O65  1  0.70464481  0.56508314  0.26212825  1  0  -0.677715  0  2.246284  0  0  -0.578753  0  2.501554  0  0  -0.602577  0  2.483244  0  0  -0.210556  -0.561797  0  2.513357  0
O  O66  1  0.94119442  0.34989161  0.66972720  1  0  -0.820897  0  2.057529  0  0  -0.724724  0  2.34042  0  0  -0.757036  0  2.32027  0  0  -0.367484  -0.701825  0  2.35349  0
O  O67  1  0.05878500  0.65011673  0.33026508  1  0  -0.821081  0  2.057385  0  0  -0.724891  0  2.340262  0  0  -0.757208  0  2.320116  0  0  -0.367578  -0.701982  0  2.353305  0
O  O68  1  0.33523785  0.35482563  0.55952371  1  0  -0.864508  0  2.197639  0  0  -0.764625  0  2.517422  0  0  -0.797435  0  2.490996  0  0  -0.376279  -0.741479  0  2.535212  0
O  O69  1  0.66474992  0.64518377  0.44047127  1  0  -0.864484  0  2.197597  0  0  -0.764609  0  2.51738  0  0  -0.797422  0  2.490959  0  0  -0.376266  -0.741465  0  2.535165  0
O  O70  1  0.55318512  0.61700880  0.70405828  1  0  -0.802659  0  1.969874  0  0  -0.71757  0  2.240132  0  0  -0.747432  0  2.220988  0  0  -0.368796  -0.696279  0  2.252514  0
O  O71  1  0.44679847  0.38298877  0.29594124  1  0  -0.802797  0  1.970076  0  0  -0.717737  0  2.240339  0  0  -0.747587  0  2.221183  0  0  -0.368907  -0.696446  0  2.252724  0
O  O72  1  0.13821524  0.63557629  0.64093494  1  0  -0.864736  0  2.146219  0  0  -0.76682  0  2.448638  0  0  -0.797905  0  2.424052  0  0  -0.380509  -0.744818  0  2.465117  0
O  O73  1  0.86177039  0.36442982  0.35907196  1  0  -0.864721  0  2.146102  0  0  -0.766815  0  2.448487  0  0  -0.797909  0  2.423933  0  0  -0.380541  -0.744815  0  2.464966  0
