# generated using pymatgen
data_CuH13C15Br2N7O
_symmetry_space_group_name_H-M   'P 1'
_cell_length_a   7.75196297
_cell_length_b   14.77552590
_cell_length_c   16.36925175
_cell_angle_alpha   98.86915253
_cell_angle_beta   90.00014334
_cell_angle_gamma   89.99957535
_symmetry_Int_Tables_number   1
_chemical_formula_structural   CuH13C15Br2N7O
_chemical_formula_sum   'Cu4 H52 C60 Br8 N28 O4'
_cell_volume   1852.50469756
_cell_formula_units_Z   4
loop_
 _symmetry_equiv_pos_site_id
 _symmetry_equiv_pos_as_xyz
  1  'x, y, z'
loop_
 _atom_site_type_symbol
 _atom_site_label
 _atom_site_symmetry_multiplicity
 _atom_site_fract_x
 _atom_site_fract_y
 _atom_site_fract_z
 _atom_site_occupancy
 _atom_site_pbe_bader_charge
 _atom_site_pbe_bader_spin_density
 _atom_site_pbe_cm5_charge
 _atom_site_pbe_ddec_charge
 _atom_site_pbe_ddec_spin_density
 _atom_site_pbe_ddec_sum_bond_order
 _atom_site_pbe_magmom
Cu  Cu0  1  0.01552057  0.72464805  0.20695758  1  0.876599  -0.480389  0.603281  0.542544  -0.642283  2.497594  -0.482
Cu  Cu1  1  0.51552799  0.77535070  0.79304163  1  0.876527  0.480387  0.603293  0.542587  0.642257  2.497488  0.482
Cu  Cu2  1  0.98447980  0.27534768  0.79304687  1  0.876577  0.480388  0.603285  0.54255  0.642258  2.497619  0.482
Cu  Cu3  1  0.48447754  0.22465313  0.20695651  1  0.87652  -0.48038  0.603276  0.542488  -0.642272  2.497695  -0.482
H  H4  1  0.21213109  0.71546569  0.05736868  1  0.108304  -0.001554  0.105461  0.08271  -0.000263  1.031279  -0.001
H  H5  1  0.71213270  0.78453650  0.94263670  1  0.108107  0.001554  0.105441  0.082668  0.000263  1.031326  0.001
H  H6  1  0.78787831  0.28452879  0.94264295  1  0.107949  0.001554  0.105486  0.082721  0.000262  1.031321  0.001
H  H7  1  0.28786121  0.21547221  0.05736756  1  0.108188  -0.001556  0.105465  0.082709  -0.000264  1.031289  -0.001
H  H8  1  0.34368282  0.59993982  0.95047055  1  0.120369  -0.001168  0.096448  0.109169  -0.000756  1.037223  -0.001
H  H9  1  0.84367176  0.90006529  0.04953473  1  0.120533  0.001167  0.096435  0.109127  0.000756  1.037285  0.001
H  H10  1  0.65632400  0.40005938  0.04953739  1  0.120406  0.001168  0.096458  0.109203  0.000756  1.037354  0.001
H  H11  1  0.15631313  0.09994489  0.95047521  1  0.120291  -0.001168  0.096473  0.109213  -0.000756  1.037323  -0.001
H  H12  1  0.30567173  0.43045548  0.96175204  1  0.138796  8e-05  0.092279  0.103445  0.000114  1.041499  0.0
H  H13  1  0.80565878  0.06954802  0.03824903  1  0.139063  -8e-05  0.092292  0.10349  -0.000114  1.041456  0.0
H  H14  1  0.69433380  0.56953949  0.03824804  1  0.138892  -8e-05  0.09231  0.103539  -0.000114  1.041485  0.0
H  H15  1  0.19432740  0.93046271  0.96175365  1  0.138928  8e-05  0.09234  0.103573  0.000114  1.041427  0.0
H  H16  1  0.13489234  0.39033897  0.08074308  1  0.092862  -0.001812  0.102479  0.11933  -0.001108  1.023695  -0.001
H  H17  1  0.63488983  0.10966166  0.91925132  1  0.092843  0.001812  0.10253  0.119441  0.001108  1.023691  0.001
H  H18  1  0.86510673  0.60965187  0.91925525  1  0.092876  0.001811  0.102478  0.119303  0.001107  1.023924  0.001
H  H19  1  0.36511054  0.89034623  0.08074428  1  0.09286  -0.001811  0.102465  0.119303  -0.001108  1.023893  -0.001
H  H20  1  0.84917782  0.53503855  0.19946558  1  0.113426  0.000339  0.116915  0.111082  0.000277  1.020401  0.0
H  H21  1  0.34918687  0.96495953  0.80052904  1  0.113506  -0.000339  0.116928  0.111098  -0.000277  1.020273  0.0
H  H22  1  0.15081610  0.46495092  0.80053197  1  0.113469  -0.000339  0.116901  0.111106  -0.000277  1.020335  0.0
H  H23  1  0.65081865  0.03504495  0.19946735  1  0.113392  0.000339  0.116914  0.111103  0.000277  1.020334  0.0
H  H24  1  0.97679653  0.43394691  0.20148477  1  0.148707  -0.001211  0.11331  0.13024  -0.001264  0.999247  0.0
H  H25  1  0.47680470  0.06605110  0.79851275  1  0.14873  0.001211  0.113324  0.130249  0.001264  0.999187  0.0
H  H26  1  0.02319223  0.56604255  0.79851278  1  0.148913  0.001211  0.113321  0.130269  0.001264  0.999219  0.0
H  H27  1  0.52319695  0.93395274  0.20148600  1  0.148825  -0.001211  0.113297  0.130211  -0.001264  0.999231  0.0
H  H28  1  0.17192714  0.43836947  0.32930309  1  0.196851  -0.000183  0.114925  0.142346  -0.000121  1.043094  0.0
H  H29  1  0.67193305  0.06162830  0.67069221  1  0.196709  0.000184  0.114959  0.14237  0.000121  1.043259  0.0
H  H30  1  0.82807065  0.56161792  0.67069298  1  0.197025  0.000183  0.114982  0.142456  0.000121  1.043091  0.0
H  H31  1  0.32807635  0.93838033  0.32930715  1  0.196955  -0.000184  0.114985  0.142443  -0.000121  1.043142  0.0
H  H32  1  0.38008061  0.52694614  0.46724354  1  0.021127  -6.6e-05  0.105725  0.079268  -3.5e-05  0.999642  0.0
H  H33  1  0.88007489  0.97305586  0.53274734  1  0.021162  6.6e-05  0.105697  0.079152  3.5e-05  0.999688  0.0
H  H34  1  0.61992879  0.47305287  0.53275277  1  0.072677  6.3e-05  0.105659  0.079161  3.5e-05  0.999553  0.0
H  H35  1  0.11993451  0.02694655  0.46724757  1  0.072662  -6.3e-05  0.105693  0.079187  -3.5e-05  0.999573  0.0
H  H36  1  0.37159032  0.65054666  0.48413438  1  0.115244  0.000126  0.121038  0.106059  6.4e-05  0.964835  0.0
H  H37  1  0.87159269  0.84945539  0.51585772  1  0.115369  -0.000126  0.121051  0.106121  -6.4e-05  0.964707  0.0
H  H38  1  0.62840875  0.34945097  0.51586115  1  0.114959  -0.000126  0.121031  0.106005  -6.4e-05  0.96493  0.0
H  H39  1  0.12840767  0.15054703  0.48413780  1  0.115035  0.000126  0.121035  0.106022  6.4e-05  0.964908  0.0
H  H40  1  0.56814587  0.57314606  0.83877865  1  0.106157  0.000236  0.101103  0.109522  -1.7e-05  1.045614  0.0
H  H41  1  0.06814571  0.92685317  0.16122069  1  0.106171  -0.000236  0.101103  0.109526  1.7e-05  1.04556  0.0
H  H42  1  0.43184418  0.42685439  0.16122151  1  0.106179  -0.000236  0.101063  0.109489  1.7e-05  1.04553  0.0
H  H43  1  0.93185982  0.07315001  0.83877982  1  0.106303  0.000236  0.101125  0.109545  -1.7e-05  1.045534  0.0
H  H44  1  0.54341910  0.40036949  0.82006279  1  0.118461  -0.000148  0.094235  0.108082  -0.000133  1.02826  0.0
H  H45  1  0.04342619  0.09963094  0.17994003  1  0.118551  0.000148  0.094251  0.108179  0.000133  1.028242  0.0
H  H46  1  0.45656837  0.59963240  0.17994244  1  0.118603  0.000148  0.094234  0.108112  0.000133  1.02816  0.0
H  H47  1  0.95658321  0.90037155  0.82006039  1  0.118588  -0.000148  0.094204  0.108004  -0.000133  1.028318  0.0
H  H48  1  0.39905595  0.31530564  0.70014577  1  0.098032  1.6e-05  0.096651  0.101811  2.1e-05  1.040008  0.0
H  H49  1  0.89906596  0.18469619  0.29985825  1  0.098032  -1.6e-05  0.096626  0.101817  -2.1e-05  1.039979  0.0
H  H50  1  0.60094184  0.68469282  0.29985842  1  0.09812  -1.6e-05  0.096688  0.101873  -2.1e-05  1.039944  0.0
H  H51  1  0.10094602  0.81530697  0.70014102  1  0.098132  1.6e-05  0.096681  0.101862  2.1e-05  1.039971  0.0
H  H52  1  0.25858618  0.39464049  0.59282571  1  0.098796  0.000608  0.115793  0.133664  0.000318  0.979988  0.0
H  H53  1  0.75857850  0.10535836  0.40717227  1  0.098642  -0.000608  0.115798  0.133673  -0.000318  0.979945  0.0
H  H54  1  0.74142064  0.60535379  0.40717367  1  0.098923  -0.000608  0.115777  0.133651  -0.000318  0.979963  0.0
H  H55  1  0.24142058  0.89464748  0.59282368  1  0.098893  0.000609  0.115788  0.133686  0.000318  0.979893  0.0
C  C56  1  0.19868856  0.64278981  0.06043403  1  0.48707  0.003148  0.044256  0.103176  0.001988  3.93307  0.002
C  C57  1  0.69868527  0.85721033  0.93956801  1  0.487324  -0.003148  0.044342  0.103244  -0.001989  3.933124  -0.002
C  C58  1  0.80131439  0.35720389  0.93957200  1  0.487742  -0.00315  0.044258  0.103139  -0.001989  3.933041  -0.002
C  C59  1  0.30130220  0.14279358  0.06043502  1  0.487119  0.003148  0.044281  0.103168  0.001988  3.933141  0.002
C  C60  1  0.27326482  0.57696310  0.00110165  1  -0.064601  -0.00539  -0.0826  -0.114478  -0.003826  3.941586  -0.004
C  C61  1  0.77325704  0.92303951  0.99890141  1  -0.064671  0.005391  -0.082591  -0.114405  0.003826  3.941647  0.004
C  C62  1  0.72673684  0.42303678  0.99890577  1  -0.064677  0.005391  -0.082608  -0.114543  0.003827  3.941892  0.004
C  C63  1  0.22672526  0.07696714  0.00110198  1  -0.064689  -0.00539  -0.082625  -0.114543  -0.003827  3.941806  -0.004
C  C64  1  0.25201022  0.48470692  0.00751154  1  -0.035094  0.004265  -0.070256  -0.013882  0.002885  3.932098  0.003
C  C65  1  0.75200424  0.01529406  0.99248976  1  -0.035471  -0.004265  -0.070264  -0.013906  -0.002885  3.932129  -0.003
C  C66  1  0.74798757  0.51528809  0.99249099  1  -0.035184  -0.004264  -0.070345  -0.014034  -0.002884  3.932314  -0.003
C  C67  1  0.24798451  0.98471532  0.00751336  1  -0.035489  0.004264  -0.070355  -0.013987  0.002884  3.932387  0.003
C  C68  1  0.15570333  0.46158683  0.07319992  1  0.009684  -0.006228  -0.080924  -0.161055  -0.004544  3.922528  -0.005
C  C69  1  0.65570314  0.03841517  0.92679895  1  0.009671  0.00623  -0.08094  -0.161193  0.004546  3.922429  0.005
C  C70  1  0.84429575  0.53841294  0.92680076  1  0.009723  0.00623  -0.080857  -0.160906  0.004546  3.922453  0.005
C  C71  1  0.34429336  0.96158797  0.07319850  1  0.01006  -0.006229  -0.08089  -0.161038  -0.004545  3.922594  -0.005
C  C72  1  0.08615803  0.53109651  0.13115458  1  0.479347  -0.000265  0.121125  0.234951  -0.001153  3.924098  0.0
C  C73  1  0.58616313  0.96889991  0.86884442  1  0.47918  0.000265  0.121074  0.234846  0.001153  3.923916  0.0
C  C74  1  0.91383847  0.46889373  0.86884856  1  0.478469  0.000265  0.121177  0.234847  0.001152  3.923912  0.0
C  C75  1  0.41384111  0.03110182  0.13115101  1  0.478967  -0.000264  0.121173  0.234923  -0.001153  3.923759  0.0
C  C76  1  0.98100656  0.50834681  0.20273052  1  0.251934  -0.003547  -0.044417  -0.185463  -0.002366  3.870459  -0.003
C  C77  1  0.48101651  0.99165285  0.79726568  1  0.25178  0.003548  -0.04435  -0.185335  0.002367  3.870209  0.003
C  C78  1  0.01898478  0.49164608  0.79726746  1  0.251621  0.003548  -0.044392  -0.185507  0.002367  3.87038  0.003
C  C79  1  0.51899030  0.00835170  0.20273439  1  0.251709  -0.003548  -0.044374  -0.185445  -0.002367  3.870214  -0.003
C  C80  1  0.14415691  0.51154554  0.33836498  1  0.327996  -0.001685  0.035328  -0.126486  -0.001271  3.823937  -0.001
C  C81  1  0.64416841  0.98846091  0.66163413  1  0.327988  0.001686  0.035277  -0.126461  0.001271  3.82402  0.001
C  C82  1  0.85583959  0.48844872  0.66163317  1  0.327914  0.001686  0.035315  -0.126565  0.001271  3.823662  0.001
C  C83  1  0.35584357  0.01154635  0.33836506  1  0.327846  -0.001686  0.035339  -0.126565  -0.001271  3.823619  -0.001
C  C84  1  0.18683607  0.58504246  0.39850261  1  0.512462  -0.00065  0.07914  0.111156  -0.00052  4.052971  -0.001
C  C85  1  0.68684183  0.91495553  0.60149060  1  0.512347  0.000649  0.079103  0.110961  0.00052  4.053148  0.001
C  C86  1  0.81316301  0.41494695  0.60149188  1  0.512323  0.000649  0.079162  0.111132  0.00052  4.053001  0.001
C  C87  1  0.31316499  0.08505102  0.39850667  1  0.512306  -0.000649  0.079143  0.111251  -0.00052  4.052773  -0.001
C  C88  1  0.29536875  0.58719350  0.47275177  1  0.357126  -0.000313  -0.055195  -0.050079  -0.000212  3.890839  0.0
C  C89  1  0.79536514  0.91280753  0.52724316  1  0.356761  0.000313  -0.055181  -0.04994  0.000212  3.89087  0.0
C  C90  1  0.70463935  0.41279733  0.52724534  1  0.305892  0.000316  -0.055106  -0.0498  0.000212  3.890871  0.0
C  C91  1  0.20463781  0.08720041  0.47275550  1  0.305943  -0.000316  -0.055166  -0.049949  -0.000212  3.890928  0.0
C  C92  1  0.33927207  0.52857839  0.65744339  1  0.252484  0.004148  0.099049  0.036939  0.002807  4.046891  0.003
C  C93  1  0.83926668  0.97142115  0.34255446  1  0.252537  -0.004148  0.098951  0.036753  -0.002808  4.046808  -0.003
C  C94  1  0.66072572  0.47141933  0.34255765  1  0.252484  -0.004148  0.09904  0.036946  -0.002808  4.046891  -0.003
C  C95  1  0.16073111  0.02858265  0.65744184  1  0.252465  0.004149  0.09914  0.03698  0.002808  4.047061  0.003
C  C96  1  0.42731153  0.57865217  0.72530741  1  0.406965  0.002091  0.092664  0.112335  0.001736  4.058559  0.002
C  C97  1  0.92731036  0.92134498  0.27469025  1  0.40694  -0.002091  0.092749  0.112598  -0.001736  4.05838  -0.002
C  C98  1  0.57268239  0.42134555  0.27469363  1  0.406946  -0.002091  0.092674  0.112447  -0.001736  4.058578  -0.002
C  C99  1  0.07269001  0.07865749  0.72530833  1  0.406908  0.00209  0.092715  0.112421  0.001735  4.058498  0.002
C  C100  1  0.50201308  0.53404743  0.78626256  1  -0.036088  0.000841  -0.088631  -0.144145  0.000421  3.978812  0.001
C  C101  1  0.00200877  0.96595346  0.21373935  1  -0.036437  -0.000841  -0.088609  -0.144116  -0.000421  3.978908  -0.001
C  C102  1  0.49798084  0.46595584  0.21374345  1  -0.036102  -0.000841  -0.088513  -0.144101  -0.000421  3.979014  -0.001
C  C103  1  0.99799547  0.03405037  0.78625879  1  -0.036255  0.000842  -0.088542  -0.144053  0.000422  3.978784  0.001
C  C104  1  0.48869708  0.43942679  0.77508302  1  -0.030887  -0.001155  -0.09082  -0.077282  -0.000807  3.959991  -0.001
C  C105  1  0.98870328  0.06057053  0.22491748  1  -0.030385  0.001155  -0.090883  -0.077451  0.000806  3.96001  0.001
C  C106  1  0.51129425  0.56056961  0.22492090  1  -0.030738  0.001155  -0.090879  -0.07728  0.000806  3.96011  0.001
C  C107  1  0.01130612  0.93943264  0.77508241  1  -0.030225  -0.001155  -0.090876  -0.07721  -0.000807  3.960181  -0.001
C  C108  1  0.40454308  0.38962658  0.70529051  1  0.08082  0.000581  -0.081409  -0.056092  0.000315  3.965931  0.001
C  C109  1  0.90454120  0.11037180  0.29471308  1  0.080739  -0.000581  -0.08131  -0.056054  -0.000315  3.965644  -0.001
C  C110  1  0.59545470  0.61037117  0.29471236  1  0.080885  -0.000581  -0.081387  -0.056156  -0.000315  3.965835  -0.001
C  C111  1  0.09546045  0.88963071  0.70528856  1  0.080523  0.000582  -0.081316  -0.056084  0.000315  3.9658  0.001
C  C112  1  0.32724092  0.43276211  0.64515675  1  -0.043657  -0.000493  -0.092565  -0.161557  -0.000219  4.000782  0.0
C  C113  1  0.82724124  0.06723651  0.35484311  1  -0.043616  0.000493  -0.092612  -0.161559  0.000218  4.000865  0.0
C  C114  1  0.67275429  0.56723423  0.35484350  1  -0.04404  0.000493  -0.092566  -0.161557  0.000218  4.000828  0.0
C  C115  1  0.17276042  0.93277005  0.64515476  1  -0.043911  -0.000493  -0.092725  -0.161752  -0.000219  4.00105  0.0
Br  Br116  1  0.31539259  0.79002310  0.22473577  1  -0.582199  -0.121731  -0.287466  -0.502038  -0.093443  1.250539  -0.091
Br  Br117  1  0.81540212  0.70997792  0.77526347  1  -0.582161  0.121734  -0.287473  -0.502066  0.093412  1.250556  0.091
Br  Br118  1  0.68460520  0.20997804  0.77526509  1  -0.582165  0.121736  -0.287469  -0.502071  0.093443  1.250641  0.091
Br  Br119  1  0.18459567  0.29001979  0.22473634  1  -0.582198  -0.121746  -0.287448  -0.502025  -0.093427  1.250653  -0.091
Br  Br120  1  0.76369205  0.73617298  0.11760818  1  -0.542548  -0.172481  -0.281302  -0.45873  -0.132599  1.181107  -0.128
Br  Br121  1  0.26369918  0.76382552  0.88239251  1  -0.542511  0.172482  -0.281312  -0.458746  0.132634  1.181038  0.128
Br  Br122  1  0.23631606  0.26381927  0.88239278  1  -0.542553  0.172472  -0.281282  -0.458711  0.132625  1.181106  0.128
Br  Br123  1  0.73631151  0.23617904  0.11760877  1  -0.542539  -0.172473  -0.281289  -0.458712  -0.132593  1.181166  -0.128
N  N124  1  0.10811828  0.62041474  0.12460474  1  -1.234404  -0.094146  -0.347237  -0.25105  -0.064887  3.61142  -0.082
N  N125  1  0.60812208  0.87958435  0.87539523  1  -1.234071  0.094147  -0.347252  -0.251022  0.064885  3.611635  0.082
N  N126  1  0.89187951  0.37958035  0.87540207  1  -1.233653  0.094144  -0.347276  -0.250937  0.064882  3.611602  0.082
N  N127  1  0.39187571  0.12041945  0.12460108  1  -1.233623  -0.094141  -0.347254  -0.250978  -0.064883  3.611709  -0.082
N  N128  1  0.05341432  0.54964178  0.28203860  1  -0.78754  -0.000366  -0.129573  0.196627  -4.8e-05  3.727494  0.0
N  N129  1  0.55342794  0.95035684  0.71796186  1  -0.787643  0.000366  -0.12967  0.19651  4.7e-05  3.727519  0.0
N  N130  1  0.94657959  0.45034774  0.71796262  1  -0.787359  0.000366  -0.129585  0.196741  4.7e-05  3.727488  0.0
N  N131  1  0.44658275  0.04965180  0.28203811  1  -0.787407  -0.000366  -0.129594  0.196685  -4.8e-05  3.727468  0.0
N  N132  1  0.03991523  0.64149936  0.30584255  1  -0.143641  -0.01139  -0.116698  -0.102957  -0.008819  3.433874  -0.011
N  N133  1  0.53993258  0.85849996  0.69415554  1  -0.143192  0.01139  -0.11665  -0.102829  0.008818  3.433576  0.011
N  N134  1  0.96007482  0.35849152  0.69415762  1  -0.143597  0.011392  -0.116776  -0.103105  0.00882  3.433773  0.011
N  N135  1  0.46008069  0.14150728  0.30584242  1  -0.143592  -0.011391  -0.116733  -0.102934  -0.00882  3.433746  -0.011
N  N136  1  0.12051677  0.66337227  0.37615834  1  -0.558957  -0.002293  -0.199467  -0.202903  -0.001454  3.228762  -0.002
N  N137  1  0.62052504  0.83662738  0.62383744  1  -0.559088  0.002292  -0.199433  -0.202915  0.001453  3.228866  0.002
N  N138  1  0.87948230  0.33661716  0.62383737  1  -0.559367  0.002293  -0.199456  -0.202894  0.001454  3.228674  0.002
N  N139  1  0.37948436  0.16337918  0.37616105  1  -0.55928  -0.002293  -0.199494  -0.203032  -0.001454  3.228723  -0.002
N  N140  1  0.27990072  0.59619078  0.61583752  1  -0.271494  0.002738  -0.031741  0.201804  0.00185  3.833511  0.003
N  N141  1  0.77988746  0.90380693  0.38416004  1  -0.271501  -0.002738  -0.03172  0.201729  -0.00185  3.833594  -0.003
N  N142  1  0.72010610  0.40380279  0.38415994  1  -0.271407  -0.002739  -0.031816  0.201673  -0.00185  3.833579  -0.003
N  N143  1  0.22010775  0.09619759  0.61583880  1  -0.271523  0.002738  -0.031874  0.201654  0.001849  3.833559  0.003
N  N144  1  0.32807125  0.68030235  0.65129779  1  -0.020604  0.001041  -0.058906  -0.068997  0.001019  3.111008  0.0
N  N145  1  0.82805898  0.81969649  0.34869690  1  -0.020519  -0.001041  -0.058909  -0.068902  -0.001019  3.110946  0.0
N  N146  1  0.67193428  0.31969182  0.34869485  1  -0.020615  -0.001041  -0.058878  -0.068837  -0.001018  3.111016  0.0
N  N147  1  0.17193752  0.18030872  0.65130263  1  -0.020662  0.00104  -0.058856  -0.068797  0.001018  3.110915  0.0
N  N148  1  0.41789132  0.67001058  0.71701908  1  -0.586776  0.078103  -0.229847  -0.151971  0.055713  3.613686  0.071
N  N149  1  0.91788373  0.82998863  0.28297699  1  -0.586874  -0.078107  -0.229906  -0.152139  -0.055718  3.613742  -0.071
N  N150  1  0.58210647  0.32998638  0.28297697  1  -0.587  -0.078107  -0.22991  -0.152193  -0.055717  3.613964  -0.071
N  N151  1  0.08211406  0.17001318  0.71702334  1  -0.58696  0.078109  -0.229903  -0.15215  0.055717  3.613759  0.071
O  O152  1  0.18181965  0.58550300  0.54569776  1  -0.581222  0.003046  -0.082198  -0.147148  0.001995  2.31771  0.003
O  O153  1  0.68181047  0.91449711  0.45429815  1  -0.581106  -0.003046  -0.082188  -0.14709  -0.001995  2.317883  -0.003
O  O154  1  0.81818846  0.41448984  0.45429716  1  -0.581024  -0.003046  -0.082178  -0.147156  -0.001995  2.317842  -0.003
O  O155  1  0.31818990  0.08551012  0.54569920  1  -0.581026  0.003046  -0.082161  -0.147142  0.001995  2.317856  0.003
