# generated using pymatgen
data_CdH15C20N4ClO6
_symmetry_space_group_name_H-M   'P 1'
_cell_length_a   9.48972495
_cell_length_b   10.13044487
_cell_length_c   11.24755620
_cell_angle_alpha   100.63659395
_cell_angle_beta   106.00060651
_cell_angle_gamma   99.85564821
_symmetry_Int_Tables_number   1
_chemical_formula_structural   CdH15C20N4ClO6
_chemical_formula_sum   'Cd2 H30 C40 N8 Cl2 O12'
_cell_volume   992.91998460
_cell_formula_units_Z   2
loop_
 _symmetry_equiv_pos_site_id
 _symmetry_equiv_pos_as_xyz
  1  'x, y, z'
loop_
 _atom_site_type_symbol
 _atom_site_label
 _atom_site_symmetry_multiplicity
 _atom_site_fract_x
 _atom_site_fract_y
 _atom_site_fract_z
 _atom_site_occupancy
 _atom_site_pbe_bader_spin_density
 _atom_site_pbe_cm5_charge
 _atom_site_pbe_ddec_charge
 _atom_site_pbe_ddec_spin_density
 _atom_site_pbe_ddec_sum_bond_order
 _atom_site_pbe_magmom
Cd  Cd0  1  0.80026325  0.94798638  0.80549740  1  0  0.745459  0.887485  0  2.191315  0
Cd  Cd1  1  0.19973730  0.05202005  0.19450933  1  0  0.745489  0.887525  0  2.191249  0
H  H2  1  0.26708386  0.14478864  0.64633900  1  0  0.338946  0.312467  0  0.894176  0
H  H3  1  0.73291986  0.85520685  0.35365895  1  0  0.338955  0.312504  0  0.894173  0
H  H4  1  0.54639268  0.47968484  0.80048974  1  0  0.312359  0.384875  0  0.948032  0
H  H5  1  0.45360180  0.52032648  0.19949845  1  0  0.312389  0.384844  0  0.948052  0
H  H6  1  0.75004709  0.65019170  0.65813519  1  0  0.272875  0.345034  0  0.992949  0
H  H7  1  0.24996761  0.34981088  0.34187520  1  0  0.272772  0.344955  0  0.9929  0
H  H8  1  0.42506613  0.86894722  0.69705334  1  0  0.129826  0.107174  0  1.051433  0
H  H9  1  0.57493865  0.13105179  0.30295691  1  0  0.12988  0.107213  0  1.051487  0
H  H10  1  0.69969978  0.21131152  0.99363368  1  0  0.116852  0.116146  0  1.024369  0
H  H11  1  0.30029814  0.78869018  0.00638156  1  0  0.116907  0.116259  0  1.024402  0
H  H12  1  0.40175466  0.18193956  0.99370584  1  0  0.123805  0.137192  0  1.037693  0
H  H13  1  0.59824240  0.81805593  0.00630923  1  0  0.123759  0.137189  0  1.037508  0
H  H14  1  0.17086869  0.94816993  0.87947649  1  0  0.125111  0.138935  0  1.00328  0
H  H15  1  0.82912821  0.05182477  0.12051708  1  0  0.125108  0.13895  0  1.003163  0
H  H16  1  0.17903498  0.85315716  0.73381380  1  0  0.126128  0.129091  0  0.98543  0
H  H17  1  0.82096909  0.14684990  0.26618761  1  0  0.126111  0.129034  0  0.985402  0
H  H18  1  0.13391024  0.32609180  0.50137251  1  0  0.101695  0.125285  0  1.032694  0
H  H19  1  0.86609617  0.67389827  0.49862443  1  0  0.10166  0.125216  0  1.03267  0
H  H20  1  0.88780362  0.39515620  0.43535646  1  0  0.100973  0.102488  0  1.028621  0
H  H21  1  0.11220966  0.60484163  0.56463604  1  0  0.100951  0.102443  0  1.028634  0
H  H22  1  0.66808417  0.28807094  0.49060553  1  0  0.094613  0.113841  0  1.018086  0
H  H23  1  0.33192314  0.71193231  0.50938276  1  0  0.094659  0.113898  0  1.018041  0
H  H24  1  0.68584943  0.11357443  0.61960778  1  0  0.10144  0.112873  0  1.019594  0
H  H25  1  0.31414925  0.88642931  0.38037945  1  0  0.101398  0.112845  0  1.019751  0
H  H26  1  0.31721795  0.34682011  0.95645358  1  0  0.108442  0.107924  0  1.043904  0
H  H27  1  0.68278571  0.65316460  0.04353485  1  0  0.108488  0.107918  0  1.044046  0
H  H28  1  0.10551697  0.61361029  0.74923320  1  0  0.108036  0.105271  0  1.041135  0
H  H29  1  0.89447989  0.38638792  0.25077063  1  0  0.107999  0.105245  0  1.041106  0
H  H30  1  0.84220639  0.32076614  0.88324029  1  0  0.110637  0.112413  0  1.01615  0
H  H31  1  0.15779986  0.67923049  0.11676464  1  0  0.110634  0.112357  0  1.016134  0
C  C32  1  0.46061217  0.96098139  0.77461636  1  0  0.139721  0.090557  0  3.913233  0
C  C33  1  0.53938981  0.03902615  0.22539442  1  0  0.139807  0.090812  0  3.913731  0
C  C34  1  0.59775920  0.13814950  0.93029372  1  0  -0.004548  -0.021164  0  3.984946  0
C  C35  1  0.40224300  0.86185177  0.06971713  1  0  -0.004551  -0.021327  0  3.985144  0
C  C36  1  0.45176419  0.12669431  0.93042823  1  0  0.000878  -0.102671  0  3.888703  0
C  C37  1  0.54823047  0.87330742  0.06958269  1  0  0.000945  -0.102402  0  3.888734  0
C  C38  1  0.20426937  0.95805033  0.79473971  1  0  -0.035003  -0.17033  0  3.86371  0
C  C39  1  0.79572374  0.04194297  0.20526613  1  0  -0.034898  -0.17009  0  3.863595  0
C  C40  1  0.11194885  0.04160150  0.72383635  1  0  0.240306  0.358429  0  3.946347  0
C  C41  1  0.88804945  0.95839781  0.27617154  1  0  0.240298  0.358368  0  3.946306  0
C  C42  1  0.04528643  0.18232530  0.59881040  1  0  0.092067  0.152814  0  4.013652  0
C  C43  1  0.95471395  0.81767354  0.40118812  1  0  0.092082  0.152969  0  4.013782  0
C  C44  1  0.03729853  0.28053534  0.52666186  1  0  -0.098433  -0.171599  0  3.984536  0
C  C45  1  0.96270570  0.71946519  0.47333245  1  0  -0.098416  -0.171798  0  3.984364  0
C  C46  1  0.89933502  0.31681619  0.48954592  1  0  -0.099181  -0.091766  0  4.019479  0
C  C47  1  0.10067749  0.68318270  0.51044566  1  0  -0.09915  -0.091539  0  4.019221  0
C  C48  1  0.77390337  0.25643553  0.52148797  1  0  -0.101293  -0.096176  0  4.016612  0
C  C49  1  0.22610271  0.74356392  0.47850841  1  0  -0.101296  -0.096187  0  4.016545  0
C  C50  1  0.78269087  0.15876678  0.59388059  1  0  -0.095513  -0.157561  0  3.984811  0
C  C51  1  0.21731120  0.84123386  0.40611324  1  0  -0.095535  -0.157598  0  3.984817  0
C  C52  1  0.92154214  0.12362505  0.63452116  1  0  0.080566  0.131038  0  4.069934  0
C  C53  1  0.07845209  0.87637519  0.36547700  1  0  0.080605  0.130986  0  4.069884  0
C  C54  1  0.07160793  0.21300782  0.00318961  1  0  0.196092  0.56077  0  4.234282  0
C  C55  1  0.92839086  0.78699648  0.99681285  1  0  0.196088  0.560732  0  4.234355  0
C  C56  1  0.07970550  0.32321757  0.93050157  1  0  -0.02188  -0.048376  0  3.976126  0
C  C57  1  0.92028907  0.67677329  0.06949715  1  0  -0.021907  -0.048401  0  3.976368  0
C  C58  1  0.21665802  0.38145885  0.91564007  1  0  -0.069351  -0.08101  0  3.900526  0
C  C59  1  0.78333979  0.61853867  0.08434699  1  0  -0.069358  -0.080853  0  3.900988  0
C  C60  1  0.22512530  0.48356008  0.84788181  1  0  -0.017372  -0.050836  0  3.990994  0
C  C61  1  0.77487570  0.51644066  0.15211266  1  0  -0.01739  -0.050984  0  3.991006  0
C  C62  1  0.36458603  0.53652962  0.81774767  1  0  0.229104  0.582718  0  4.131612  0
C  C63  1  0.63539609  0.46345651  0.18224393  1  0  0.229105  0.582975  0  4.13155  0
C  C64  1  0.09737506  0.53189880  0.79920910  1  0  -0.064567  -0.08293  0  3.919557  0
C  C65  1  0.90261926  0.46809823  0.20078686  1  0  -0.064554  -0.082874  0  3.919743  0
C  C66  1  0.95957303  0.47252127  0.81129327  1  0  -0.018436  -0.05703  0  3.99892  0
C  C67  1  0.04042093  0.52746772  0.18871039  1  0  -0.018417  -0.057132  0  3.998818  0
C  C68  1  0.82037242  0.51715480  0.75410352  1  0  0.239355  0.597897  0  4.10885  0
C  C69  1  0.17964706  0.48286278  0.24589761  1  0  0.239504  0.598193  0  4.108764  0
C  C70  1  0.95059092  0.36715313  0.87557763  1  0  -0.063573  -0.076109  0  3.912483  0
C  C71  1  0.04940896  0.63284066  0.12442452  1  0  -0.063577  -0.076071  0  3.912252  0
N  N72  1  0.60178548  0.03427698  0.83293582  1  0  -0.36395  -0.305108  0  3.537109  0
N  N73  1  0.39822298  0.96573022  0.16707642  1  0  -0.364099  -0.305292  0  3.53731  0
N  N74  1  0.36600465  0.01448928  0.83051429  1  0  -0.242886  0.047927  0  3.780573  0
N  N75  1  0.63398816  0.98551357  0.16949547  1  0  -0.242978  0.047449  0  3.78135  0
N  N76  1  0.96799495  0.03813860  0.71396798  1  0  -0.354643  -0.410567  0  3.442953  0
N  N77  1  0.03200058  0.96186577  0.28603106  1  0  -0.354629  -0.410505  0  3.442784  0
N  N78  1  0.16230156  0.12624431  0.65559998  1  0  -0.364693  -0.30622  0  3.570883  0
N  N79  1  0.83770080  0.87375043  0.34440377  1  0  -0.364773  -0.306291  0  3.57095  0
Cl  Cl80  1  0.63965317  0.78400137  0.58463318  1  0  -0.325579  -0.542735  0  1.025056  0
Cl  Cl81  1  0.36034182  0.21601188  0.41537942  1  0  -0.325591  -0.54274  0  1.025087  0
O  O82  1  0.94423209  0.14488587  0.99823681  1  0  -0.331421  -0.580305  0  2.268701  0
O  O83  1  0.05577246  0.85511934  0.00177157  1  0  -0.331421  -0.580286  0  2.268714  0
O  O84  1  0.19894751  0.19617818  0.06766743  1  0  -0.323032  -0.533847  0  2.302405  0
O  O85  1  0.80104983  0.80381446  0.93232774  1  0  -0.322996  -0.533829  0  2.302583  0
O  O86  1  0.45762044  0.45091701  0.83006607  1  0  -0.337111  -0.496275  0  2.31016  0
O  O87  1  0.54237575  0.54909625  0.16992101  1  0  -0.337163  -0.496402  0  2.309804  0
O  O88  1  0.38694371  0.64351448  0.78173838  1  0  -0.296807  -0.501528  0  2.117569  0
O  O89  1  0.61303356  0.35649444  0.21824100  1  0  -0.296731  -0.501518  0  2.118237  0
O  O90  1  0.84321312  0.61500390  0.69244936  1  0  -0.325  -0.47789  0  2.3774  0
O  O91  1  0.15677692  0.38499352  0.30755010  1  0  -0.325077  -0.478085  0  2.376638  0
O  O92  1  0.69735171  0.46653895  0.76337386  1  0  -0.281048  -0.498641  0  2.227173  0
O  O93  1  0.30263700  0.53346831  0.23663554  1  0  -0.281051  -0.498639  0  2.22802  0
