# generated using pymatgen
data_AlH9C21N(O2F)3
_symmetry_space_group_name_H-M   'P 1'
_cell_length_a   4.10853564
_cell_length_b   13.49598657
_cell_length_c   13.49591757
_cell_angle_alpha   119.99907010
_cell_angle_beta   90.00072860
_cell_angle_gamma   89.99964902
_symmetry_Int_Tables_number   1
_chemical_formula_structural   AlH9C21N(O2F)3
_chemical_formula_sum   'Al1 H9 C21 N1 O6 F3'
_cell_volume   648.08029162
_cell_formula_units_Z   1
loop_
 _symmetry_equiv_pos_site_id
 _symmetry_equiv_pos_as_xyz
  1  'x, y, z'
loop_
 _atom_site_type_symbol
 _atom_site_label
 _atom_site_symmetry_multiplicity
 _atom_site_fract_x
 _atom_site_fract_y
 _atom_site_fract_z
 _atom_site_occupancy
 _atom_site_pbe_bader_charge
 _atom_site_pbe_bader_spin_density
 _atom_site_pbe_cm5_charge
 _atom_site_pbe_ddec_charge
 _atom_site_pbe_ddec_spin_density
 _atom_site_pbe_ddec_sum_bond_order
 _atom_site_pbe_magmom
Al  Al0  1  0.01292978  0.49999592  0.49999508  1  2.509465  0  0.439336  1.616174  0  2.552275  0
H  H1  1  0.20932378  0.81588226  0.78779708  1  0.080077  0  0.115681  0.124161  0  0.966873  0
H  H2  1  0.20816353  0.02674226  0.89612042  1  0.07764  0  0.103354  0.113594  0  1.027868  0
H  H3  1  0.78540000  0.02992882  0.63016075  1  0.091224  0  0.110062  0.137669  0  1.022381  0
H  H4  1  0.78544545  0.10022120  0.97006699  1  0.104505  0  0.110047  0.13753  0  1.022053  0
H  H5  1  0.20931205  0.47190731  0.18411171  1  0.082602  0  0.115641  0.124124  0  0.9669  0
H  H6  1  0.20815919  0.36936934  0.97325047  1  0.074244  0  0.103405  0.113654  0  1.027821  0
H  H7  1  0.78545333  0.36982642  0.89976291  1  0.093095  0  0.110097  0.137654  0  1.022441  0
H  H8  1  0.20925635  0.21221302  0.52809837  1  0.092183  0  0.115628  0.124142  0  0.966844  0
H  H9  1  0.20810840  0.10388603  0.63063515  1  0.113053  0  0.103395  0.11364  0  1.027734  0
C  C10  1  0.51170325  0.40953538  0.32531374  1  1.675086  0  0.286344  0.698876  0  4.043927  0
C  C11  1  0.51172830  0.41577357  0.59044924  1  1.578857  0  0.28645  0.698889  0  4.044211  0
C  C12  1  0.51170602  0.67467679  0.58422133  1  1.580099  0  0.286492  0.699113  0  4.043551  0
C  C13  1  0.33977538  0.86323609  0.75433003  1  0.090629  0  -0.079169  -0.060942  0  3.992287  0
C  C14  1  0.33596873  0.98221104  0.81485792  1  -0.113372  0  -0.103254  -0.19842  0  4.012389  0
C  C15  1  0.49560618  0.04529154  0.77224014  1  0.340455  0  0.094943  0.20824  0  4.024088  0
C  C16  1  0.65865229  0.98546287  0.66708317  1  0.013135  0  -0.107584  -0.308832  0  4.001622  0
C  C17  1  0.65747424  0.86701057  0.60852815  1  0.44953  0  0.102533  0.287787  0  4.066486  0
C  C18  1  0.50263715  0.80282919  0.64946904  1  0.130054  0  -0.023399  -0.163113  0  3.984819  0
C  C19  1  0.65864916  0.18163480  0.01455506  1  0.087601  0  -0.107497  -0.308608  0  4.00265  0
C  C20  1  0.65751440  0.24149532  0.13296505  1  0.380925  0  0.102531  0.287589  0  4.067019  0
C  C21  1  0.50264442  0.34664288  0.19717499  1  -0.050091  0  -0.023488  -0.16293  0  3.984008  0
C  C22  1  0.33977442  0.39108312  0.13675155  1  0.045336  0  -0.079092  -0.060921  0  3.992682  0
C  C23  1  0.33595848  0.33264669  0.01779178  1  -0.028868  0  -0.103355  -0.198664  0  4.012372  0
C  C24  1  0.49563253  0.22693024  0.95470254  1  0.311115  0  0.094986  0.208515  0  4.02379  0
C  C25  1  0.65868662  0.33291400  0.81837882  1  0.083057  0  -0.107623  -0.308898  0  4.001621  0
C  C26  1  0.65751887  0.39146546  0.75848266  1  0.348569  0  0.10243  0.287789  0  4.066606  0
C  C27  1  0.50263949  0.35052580  0.65335920  1  0.07717  0  -0.023426  -0.16307  0  3.98453  0
C  C28  1  0.33974704  0.24567268  0.60892075  1  0.034394  0  -0.079117  -0.060939  0  3.99276  0
C  C29  1  0.33594464  0.18515221  0.66736124  1  -0.062044  0  -0.103342  -0.198526  0  4.012825  0
C  C30  1  0.49560918  0.22775509  0.77305619  1  0.310824  0  0.094989  0.208398  0  4.024073  0
N  N31  1  0.49235203  0.16666824  0.83333453  1  -1.215694  0  -0.246987  -0.145175  0  3.608768  0
O  O32  1  0.75126917  0.62743051  0.60413618  1  -1.245895  0  -0.230418  -0.593772  0  2.338975  0
O  O33  1  0.75128040  0.47670502  0.37256236  1  -1.253306  0  -0.230403  -0.593784  0  2.338859  0
O  O34  1  0.75126498  0.39585246  0.52329534  1  -1.244227  0  -0.23036  -0.593589  0  2.339456  0
O  O35  1  0.27884109  0.62340183  0.51537696  1  -1.251942  0  -0.232293  -0.596999  0  2.353373  0
O  O36  1  0.27885667  0.48461341  0.60801559  1  -1.244686  0  -0.232298  -0.597001  0  2.353622  0
O  O37  1  0.27885270  0.39197493  0.37658890  1  -1.248959  0  -0.232166  -0.596794  0  2.353506  0
F  F38  1  0.81803593  0.81148202  0.50664439  1  -0.631129  0  -0.101055  -0.138877  0  1.314541  0
F  F39  1  0.81807449  0.19515891  0.18851826  1  -0.634539  0  -0.101065  -0.138856  0  1.31471  0
F  F40  1  0.81810400  0.49334324  0.80482950  1  -0.630175  0  -0.100954  -0.138829  0  1.314668  0
