# generated using pymatgen
data_NiH4C6(SN2)2
_symmetry_space_group_name_H-M   'P 1'
_cell_length_a   5.54653984
_cell_length_b   7.09066140
_cell_length_c   11.97962928
_cell_angle_alpha   90.03683804
_cell_angle_beta   90.00716677
_cell_angle_gamma   105.74790696
_symmetry_Int_Tables_number   1
_chemical_formula_structural   NiH4C6(SN2)2
_chemical_formula_sum   'Ni2 H8 C12 S4 N8'
_cell_volume   453.45810102
_cell_formula_units_Z   2
loop_
 _symmetry_equiv_pos_site_id
 _symmetry_equiv_pos_as_xyz
  1  'x, y, z'
loop_
 _atom_site_type_symbol
 _atom_site_label
 _atom_site_symmetry_multiplicity
 _atom_site_fract_x
 _atom_site_fract_y
 _atom_site_fract_z
 _atom_site_occupancy
 _atom_site_hle17_ddec_charge
 _atom_site_hle17_ddec_spin_density
 _atom_site_hle17_ddec_sum_bond_order
 _atom_site_hle17_magmom
 _atom_site_hse06_10hf_ddec_charge
 _atom_site_hse06_10hf_ddec_spin_density
 _atom_site_hse06_10hf_ddec_sum_bond_order
 _atom_site_hse06_10hf_magmom
 _atom_site_hse06_ddec_charge
 _atom_site_hse06_ddec_spin_density
 _atom_site_hse06_ddec_sum_bond_order
 _atom_site_hse06_magmom
 _atom_site_pbe_cm5_charge
 _atom_site_pbe_ddec_charge
 _atom_site_pbe_ddec_spin_density
 _atom_site_pbe_ddec_sum_bond_order
 _atom_site_pbe_magmom
Ni  Ni0  1  0.99999556  0.00000202  0.50000026  1  0.620676  -1.699766  2.444229  -1.376  0.647391  -1.750089  2.840729  -1.504  0.746606  -1.832807  2.761444  -1.624  0.601024  0.585552  -1.680448  2.892106  -1.408
Ni  Ni1  1  0.99999739  0.00000292  0.99999917  1  0.62086  -1.699771  2.443839  -1.376  0.648049  -1.750151  2.840138  -1.504  0.747344  -1.832834  2.760576  -1.624  0.600562  0.586266  -1.680578  2.891432  -1.407
H  H2  1  0.02810124  0.91821090  0.25000951  1  0.069429  -0.000474  0.965399  -0.002  0.071814  -0.000553  1.040376  -0.001  0.074173  -0.000329  1.035629  -0.001  0.122061  0.069634  -0.00075  1.044642  -0.001
H  H3  1  0.97190832  0.08179240  0.74999133  1  0.069448  -0.000474  0.965465  -0.002  0.071851  -0.000553  1.040415  -0.001  0.074206  -0.000329  1.035683  -0.001  0.122082  0.069673  -0.00075  1.044677  -0.001
H  H4  1  0.05324614  0.60859682  0.25039432  1  0.125464  -0.000411  0.952089  0.0  0.135023  -0.000714  1.010533  -0.001  0.137992  -0.000441  1.01009  -0.001  0.109924  0.132768  -0.00097  1.011208  -0.001
H  H5  1  0.94674487  0.39140496  0.74960568  1  0.125484  -0.000407  0.952092  0.0  0.134964  -0.000714  1.010609  -0.001  0.13799  -0.000441  1.010096  -0.001  0.109928  0.132714  -0.00097  1.011289  -0.001
H  H6  1  0.03918041  0.41919410  0.43021798  1  0.079959  -0.000813  0.955371  -0.002  0.08805  -0.000648  1.022328  -0.001  0.09017  -0.000407  1.018437  -0.001  0.115029  0.086373  -0.000964  1.025551  -0.001
H  H7  1  0.95589712  0.57956877  0.92967769  1  0.079836  -0.000806  0.955984  -0.002  0.088139  -0.000649  1.022766  -0.001  0.090255  -0.000406  1.018894  -0.001  0.114924  0.086443  -0.000964  1.026028  -0.001
H  H8  1  0.96081963  0.58080770  0.56978119  1  0.079912  -0.000813  0.955391  -0.002  0.088027  -0.000648  1.022339  -0.001  0.090148  -0.000407  1.018443  -0.001  0.115019  0.086352  -0.000964  1.025566  -0.001
H  H9  1  0.04409600  0.42042863  0.07032315  1  0.079809  -0.000803  0.955955  -0.002  0.08812  -0.000649  1.022736  -0.001  0.09023  -0.000406  1.018871  -0.001  0.114917  0.086425  -0.000964  1.025999  -0.001
C  C10  1  0.03185408  0.07207568  0.25006978  1  0.30844  0.028975  3.644254  0.021  0.263687  0.008377  3.90507  0.006  0.283483  0.010191  3.918477  0.007  0.189576  0.249735  0.006967  3.897166  0.005
C  C11  1  0.96814596  0.92792612  0.74993022  1  0.30846  0.029018  3.644191  0.021  0.263653  0.008373  3.905073  0.006  0.283446  0.010191  3.918479  0.007  0.189564  0.249705  0.006969  3.897153  0.005
C  C12  1  0.04509363  0.45380536  0.25026695  1  -0.15582  -0.017494  3.686448  -0.02  -0.16267  -0.00669  3.92791  -0.007  -0.173413  -0.006091  3.94454  -0.007  -0.075931  -0.156169  -0.007762  3.91815  -0.008
C  C13  1  0.95490360  0.54619351  0.74973221  1  -0.155764  -0.017563  3.686404  -0.02  -0.162533  -0.006691  3.927858  -0.007  -0.173319  -0.006091  3.944462  -0.007  -0.075915  -0.156035  -0.007762  3.918113  -0.008
C  C14  1  0.03808566  0.35046711  0.34906043  1  0.191826  0.026701  3.645602  0.019  0.158555  0.008058  3.894685  0.006  0.174031  0.009028  3.9081  0.006  0.071313  0.147435  0.007842  3.887078  0.006
C  C15  1  0.95911980  0.64886874  0.84863168  1  0.192727  0.026768  3.646768  0.019  0.159249  0.008047  3.895989  0.006  0.174688  0.009013  3.909445  0.006  0.071777  0.148169  0.00784  3.88834  0.006
C  C16  1  0.96190515  0.64952881  0.65093956  1  0.191851  0.026772  3.645632  0.019  0.158542  0.008059  3.894693  0.006  0.174015  0.009027  3.908123  0.006  0.071312  0.147417  0.007842  3.887095  0.006
C  C17  1  0.04088184  0.35112721  0.15136832  1  0.192843  0.026678  3.646654  0.019  0.159342  0.008049  3.895908  0.006  0.17479  0.009014  3.909349  0.006  0.071789  0.148263  0.00784  3.888261  0.006
C  C18  1  0.41958337  0.80362013  0.43165020  1  0.29947  0.04499  3.944923  0.033  0.303461  0.006916  4.252992  0.004  0.335058  0.008676  4.265653  0.005  0.157216  0.281893  0.00498  4.244136  0.002
C  C19  1  0.58050561  0.19670643  0.93185198  1  0.300194  0.04531  3.944134  0.033  0.304328  0.00705  4.251974  0.004  0.335941  0.008824  4.264565  0.005  0.157707  0.282736  0.005106  4.243159  0.002
C  C20  1  0.58040765  0.19638165  0.56835147  1  0.299539  0.045025  3.944689  0.033  0.303527  0.006921  4.252781  0.004  0.335127  0.00868  4.26544  0.005  0.157226  0.281958  0.004983  4.243931  0.002
C  C21  1  0.41950947  0.80328664  0.06814635  1  0.30026  0.04533  3.944467  0.033  0.304393  0.00705  4.252301  0.004  0.336008  0.008827  4.264901  0.005  0.157851  0.282795  0.005106  4.243483  0.002
S  S22  1  0.66815704  0.72746256  0.41462424  1  -0.261758  -0.081658  2.285866  -0.107  -0.298671  -0.047294  2.643343  -0.065  -0.333936  -0.028559  2.63753  -0.046  -0.114519  -0.274449  -0.062339  2.648283  -0.078
S  S23  1  0.33132987  0.27192001  0.91441415  1  -0.262089  -0.08141  2.286608  -0.106  -0.299223  -0.047108  2.644366  -0.065  -0.334492  -0.02846  2.63844  -0.046  -0.114769  -0.275039  -0.062122  2.649365  -0.078
S  S24  1  0.33183347  0.27253776  0.58537742  1  -0.261793  -0.081655  2.285939  -0.107  -0.29869  -0.047291  2.643379  -0.065  -0.333957  -0.028555  2.637571  -0.046  -0.114527  -0.274469  -0.062335  2.64832  -0.078
S  S25  1  0.66868902  0.72807892  0.08558668  1  -0.262137  -0.08141  2.286689  -0.106  -0.29928  -0.04711  2.64448  -0.065  -0.33455  -0.028463  2.63855  -0.046  -0.11483  -0.275095  -0.062122  2.649487  -0.078
N  N26  1  0.03142890  0.15950195  0.34913419  1  -0.30419  -0.060978  3.275638  -0.092  -0.252546  -0.040594  3.544142  -0.063  -0.28676  -0.032542  3.564613  -0.054  -0.309646  -0.229753  -0.048178  3.531332  -0.071
N  N27  1  0.96685242  0.84004808  0.84886182  1  -0.304656  -0.061077  3.276342  -0.092  -0.253449  -0.040649  3.545283  -0.063  -0.287615  -0.032558  3.565671  -0.054  -0.30934  -0.230698  -0.048285  3.532503  -0.071
N  N28  1  0.96857555  0.84049695  0.65086748  1  -0.304214  -0.061003  3.275727  -0.092  -0.252533  -0.040592  3.544247  -0.063  -0.286747  -0.032542  3.564718  -0.054  -0.309656  -0.22974  -0.048179  3.531429  -0.071
N  N29  1  0.03315153  0.15994935  0.15113818  1  -0.304703  -0.06104  3.276438  -0.092  -0.253488  -0.040649  3.54535  -0.063  -0.287654  -0.032556  3.565735  -0.054  -0.30934  -0.23074  -0.04828  3.532587  -0.071
N  N30  1  0.23851378  0.85949119  0.44358361  1  -0.489892  -0.083788  3.065198  -0.116  -0.476868  -0.05166  3.364013  -0.072  -0.513423  -0.041499  3.369744  -0.061  -0.39312  -0.452607  -0.059902  3.359471  -0.08
N  N31  1  0.76146374  0.14089563  0.94427409  1  -0.489755  -0.084066  3.065708  -0.116  -0.476636  -0.051769  3.364125  -0.072  -0.513168  -0.041624  3.369747  -0.061  -0.393019  -0.452417  -0.059989  3.359627  -0.08
N  N32  1  0.76148806  0.14051062  0.55641555  1  -0.49  -0.08381  3.065091  -0.116  -0.476989  -0.051668  3.363941  -0.072  -0.51354  -0.041505  3.369657  -0.061  -0.393154  -0.452733  -0.059909  3.359412  -0.08
N  N33  1  0.23855104  0.85910183  0.05572423  1  -0.489714  -0.084075  3.065781  -0.116  -0.476591  -0.051767  3.364195  -0.072  -0.513127  -0.041622  3.369827  -0.061  -0.393034  -0.452362  -0.059987  3.35968  -0.08
