# generated using pymatgen
data_ZnH12(C8O3)2
_symmetry_space_group_name_H-M   'P 1'
_cell_length_a   7.92293347
_cell_length_b   7.96564195
_cell_length_c   11.65494819
_cell_angle_alpha   82.67336896
_cell_angle_beta   78.64071384
_cell_angle_gamma   72.56738496
_symmetry_Int_Tables_number   1
_chemical_formula_structural   ZnH12(C8O3)2
_chemical_formula_sum   'Zn2 H24 C32 O12'
_cell_volume   686.17888768
_cell_formula_units_Z   2
loop_
 _symmetry_equiv_pos_site_id
 _symmetry_equiv_pos_as_xyz
  1  'x, y, z'
loop_
 _atom_site_type_symbol
 _atom_site_label
 _atom_site_symmetry_multiplicity
 _atom_site_fract_x
 _atom_site_fract_y
 _atom_site_fract_z
 _atom_site_occupancy
 _atom_site_hle17_bader_spin_density
 _atom_site_hle17_ddec_charge
 _atom_site_hle17_ddec_spin_density
 _atom_site_hle17_ddec_sum_bond_order
 _atom_site_hle17_magmom
 _atom_site_hse06_10hf_bader_spin_density
 _atom_site_hse06_10hf_ddec_charge
 _atom_site_hse06_10hf_ddec_spin_density
 _atom_site_hse06_10hf_ddec_sum_bond_order
 _atom_site_hse06_10hf_magmom
 _atom_site_hse06_bader_spin_density
 _atom_site_hse06_ddec_charge
 _atom_site_hse06_ddec_spin_density
 _atom_site_hse06_ddec_sum_bond_order
 _atom_site_hse06_magmom
 _atom_site_pbe_bader_spin_density
 _atom_site_pbe_cm5_charge
 _atom_site_pbe_ddec_charge
 _atom_site_pbe_ddec_spin_density
 _atom_site_pbe_ddec_sum_bond_order
 _atom_site_pbe_magmom
Zn  Zn0  1  0.02313141  0.74400969  0.50689807  1  0  1.197569  0  1.731425  0  0  1.02045  0  2.224949  0  0  1.070722  0  2.157458  0  0  0.715488  0.984762  0  2.271887  0
Zn  Zn1  1  0.97687027  0.25598574  0.49310280  1  0  1.197566  0  1.731419  0  0  1.02045  0  2.224928  0  0  1.070719  0  2.157439  0  0  0.715466  0.984756  0  2.271863  0
H  H2  1  0.20138454  0.69061423  0.16129262  1  0  0.096925  0  0.963949  0  0  0.106013  0  1.026397  0  0  0.108967  0  1.02465  0  0  0.10165  0.103847  0  1.027748  0
H  H3  1  0.79860896  0.30939179  0.83870771  1  0  0.097015  0  0.963855  0  0  0.106051  0  1.026357  0  0  0.109005  0  1.024611  0  0  0.101671  0.103885  0  1.027708  0
H  H4  1  0.36380763  0.57446927  0.97127439  1  0  0.091653  0  0.971478  0  0  0.103508  0  1.032517  0  0  0.106442  0  1.031844  0  0  0.097562  0.101423  0  1.03311  0
H  H5  1  0.63618973  0.42553674  0.02872541  1  0  0.091665  0  0.971504  0  0  0.103523  0  1.032542  0  0  0.10646  0  1.031868  0  0  0.097558  0.101439  0  1.033132  0
H  H6  1  0.10932420  0.15613521  0.04045653  1  0  0.101838  0  0.976946  0  0  0.113932  0  1.038607  0  0  0.117156  0  1.037288  0  0  0.102894  0.11163  0  1.039676  0
H  H7  1  0.89067683  0.84386690  0.95954048  1  0  0.101833  0  0.976949  0  0  0.11392  0  1.038627  0  0  0.117144  0  1.037307  0  0  0.102878  0.111619  0  1.039696  0
H  H8  1  0.37501496  0.52199043  0.79397143  1  0  0.109647  0  0.991419  0  0  0.117211  0  1.060018  0  0  0.120979  0  1.058235  0  0  0.104972  0.11454  0  1.061378  0
H  H9  1  0.62498297  0.47800903  0.20602708  1  0  0.109627  0  0.991437  0  0  0.117276  0  1.059938  0  0  0.12105  0  1.058161  0  0  0.10498  0.114597  0  1.061302  0
H  H10  1  0.58152144  0.87426551  0.77652230  1  0  0.097373  0  0.962969  0  0  0.107344  0  1.024977  0  0  0.110161  0  1.023452  0  0  0.102414  0.105325  0  1.02605  0
H  H11  1  0.41848675  0.12572978  0.22348197  1  0  0.097389  0  0.963068  0  0  0.107385  0  1.025026  0  0  0.110204  0  1.023494  0  0  0.10244  0.105364  0  1.026102  0
H  H12  1  0.36957246  0.00306300  0.94966709  1  0  0.089126  0  0.970869  0  0  0.101007  0  1.031559  0  0  0.10398  0  1.03083  0  0  0.096003  0.098916  0  1.032151  0
H  H13  1  0.63043464  0.99693620  0.05033874  1  0  0.089133  0  0.970963  0  0  0.101021  0  1.031644  0  0  0.103998  0  1.030911  0  0  0.095983  0.09893  0  1.032237  0
H  H14  1  0.62665725  0.65026437  0.53572099  1  0  0.113419  0  0.939015  0  0  0.127684  0  1.003259  0  0  0.129136  0  1.001956  0  0  0.104383  0.126567  0  1.004257  0
H  H15  1  0.37333127  0.34973645  0.46427785  1  0  0.113371  0  0.939024  0  0  0.127619  0  1.003308  0  0  0.129074  0  1.002003  0  0  0.10435  0.126503  0  1.004304  0
H  H16  1  0.59647992  0.62526871  0.69225423  1  0  0.075211  0  0.961799  0  0  0.092128  0  1.031656  0  0  0.091679  0  1.032192  0  0  0.091462  0.092362  0  1.031378  0
H  H17  1  0.40351135  0.37473604  0.30774479  1  0  0.075206  0  0.961834  0  0  0.09214  0  1.031677  0  0  0.091693  0  1.032212  0  0  0.091493  0.092373  0  1.031397  0
H  H18  1  0.40850019  0.65434824  0.61737286  1  0  0.104136  0  0.952565  0  0  0.116449  0  1.023037  0  0  0.117788  0  1.021656  0  0  0.101455  0.115436  0  1.024033  0
H  H19  1  0.59148984  0.34564728  0.38262704  1  0  0.104127  0  0.952707  0  0  0.116513  0  1.023096  0  0  0.117855  0  1.021718  0  0  0.101511  0.115498  0  1.024091  0
H  H20  1  0.80704963  0.06221452  0.28792686  1  0  0.114454  0  0.931247  0  0  0.13112  0  0.991223  0  0  0.132161  0  0.990929  0  0  0.108957  0.130272  0  0.991575  0
H  H21  1  0.19295055  0.93778618  0.71207382  1  0  0.11448  0  0.931238  0  0  0.131133  0  0.991224  0  0  0.132175  0  0.990929  0  0  0.108949  0.130285  0  0.991578  0
H  H22  1  0.03013811  0.99978533  0.20869793  1  0  0.090273  0  0.944363  0  0  0.106083  0  1.011596  0  0  0.106578  0  1.011183  0  0  0.098368  0.105676  0  1.011929  0
H  H23  1  0.96986040  0.00021669  0.79130287  1  0  0.090288  0  0.944335  0  0  0.106098  0  1.011566  0  0  0.106594  0  1.011152  0  0  0.09836  0.105691  0  1.011899  0
H  H24  1  0.84755275  0.11993828  0.13266701  1  0  0.071973  0  0.943693  0  0  0.090295  0  1.010268  0  0  0.090464  0  1.009781  0  0  0.091982  0.090138  0  1.010603  0
H  H25  1  0.15244908  0.88006110  0.86733353  1  0  0.07206  0  0.943646  0  0  0.090353  0  1.010244  0  0  0.090519  0  1.009763  0  0  0.092002  0.090196  0  1.01058  0
C  C26  1  0.06187978  0.49382876  0.20975341  1  0  -0.182014  0  3.708433  0  0  -0.167549  0  3.952881  0  0  -0.180417  0  3.973506  0  0  -0.029271  -0.159162  0  3.939102  0
C  C27  1  0.93811557  0.50617987  0.79024732  1  0  -0.182085  0  3.708568  0  0  -0.167651  0  3.953013  0  0  -0.180516  0  3.973636  0  0  -0.029291  -0.159263  0  3.939238  0
C  C28  1  0.17912187  0.57523341  0.13267792  1  0  -0.043035  0  3.773475  0  0  -0.06827  0  4.0287  0  0  -0.063904  0  4.046906  0  0  -0.087471  -0.070906  0  4.016244  0
C  C29  1  0.82087415  0.42477269  0.86731862  1  0  -0.043065  0  3.773388  0  0  -0.068253  0  4.028616  0  0  -0.06389  0  4.046822  0  0  -0.087484  -0.07089  0  4.016163  0
C  C30  1  0.27031904  0.50954833  0.02634344  1  0  -0.151221  0  3.769111  0  0  -0.173394  0  4.026057  0  0  -0.179682  0  4.046706  0  0  -0.106806  -0.169304  0  4.012054  0
C  C31  1  0.72967980  0.49045245  0.97365484  1  0  -0.151264  0  3.769173  0  0  -0.173443  0  4.026089  0  0  -0.179733  0  4.046742  0  0  -0.106817  -0.169351  0  4.012085  0
C  C32  1  0.24974100  0.35400316  0.99285819  1  0  0.096781  0  3.777351  0  0  0.109971  0  4.008721  0  0  0.11384  0  4.030755  0  0  0.000821  0.107522  0  3.993628  0
C  C33  1  0.75025489  0.64599894  0.00714040  1  0  0.096809  0  3.777343  0  0  0.110013  0  4.008707  0  0  0.113877  0  4.030753  0  0  0.000843  0.107566  0  3.993614  0
C  C34  1  0.13029616  0.27310823  0.06719120  1  0  -0.245324  0  3.724579  0  0  -0.270555  0  3.977222  0  0  -0.279591  0  3.99804  0  0  -0.106434  -0.264566  0  3.963203  0
C  C35  1  0.86970105  0.72689383  0.93280893  1  0  -0.245373  0  3.724582  0  0  -0.270615  0  3.97725  0  0  -0.27965  0  3.998068  0  0  -0.106464  -0.264627  0  3.963232  0
C  C36  1  0.03524998  0.34099452  0.17382984  1  0  0.291303  0  3.756519  0  0  0.271486  0  4.016995  0  0  0.286722  0  4.031792  0  0  0.09996  0.261171  0  4.00689  0
C  C37  1  0.96474700  0.65901283  0.82616904  1  0  0.291459  0  3.756517  0  0  0.271652  0  4.016951  0  0  0.286883  0  4.031751  0  0  0.100068  0.261334  0  4.00685  0
C  C38  1  0.35950822  0.27363295  0.88510304  1  0  0.088332  0  3.781453  0  0  0.103827  0  4.011381  0  0  0.107641  0  4.033468  0  0  -0.002719  0.101486  0  3.996198  0
C  C39  1  0.64049493  0.72636638  0.11489904  1  0  0.088403  0  3.781437  0  0  0.103859  0  4.011421  0  0  0.107675  0  4.033509  0  0  -0.002723  0.101515  0  3.996237  0
C  C40  1  0.42218388  0.37959944  0.79121741  1  0  -0.238891  0  3.704099  0  0  -0.268077  0  3.961412  0  0  -0.276708  0  3.980351  0  0  -0.106971  -0.262407  0  3.948678  0
C  C41  1  0.57781405  0.62040002  0.20878110  1  0  -0.238855  0  3.704056  0  0  -0.26808  0  3.961364  0  0  -0.276723  0  3.980303  0  0  -0.106927  -0.2624  0  3.948623  0
C  C42  1  0.54198014  0.30722789  0.69259044  1  0  0.300356  0  3.753975  0  0  0.280231  0  4.011676  0  0  0.296341  0  4.026124  0  0  0.10269  0.269379  0  4.001791  0
C  C43  1  0.45802201  0.69277026  0.30740672  1  0  0.300347  0  3.753973  0  0  0.28014  0  4.011769  0  0  0.296273  0  4.026217  0  0  0.102682  0.269285  0  4.001881  0
C  C44  1  0.60258185  0.12074108  0.68695545  1  0  -0.193083  0  3.709041  0  0  -0.178168  0  3.952325  0  0  -0.191555  0  3.972666  0  0  -0.03319  -0.169479  0  3.938775  0
C  C45  1  0.39742295  0.87925695  0.31304564  1  0  -0.193049  0  3.708965  0  0  -0.178129  0  3.952269  0  0  -0.191515  0  3.972604  0  0  -0.033247  -0.169441  0  3.938718  0
C  C46  1  0.53305642  0.01692607  0.78046720  1  0  -0.03603  0  3.767327  0  0  -0.060869  0  4.019018  0  0  -0.056377  0  4.038313  0  0  -0.08519  -0.063564  0  4.005837  0
C  C47  1  0.46694931  0.98307325  0.21953452  1  0  -0.036049  0  3.767351  0  0  -0.060904  0  4.019012  0  0  -0.056411  0  4.038307  0  0  -0.085237  -0.063601  0  4.005832  0
C  C48  1  0.41332761  0.08952622  0.87721701  1  0  -0.157261  0  3.775938  0  0  -0.176602  0  4.027254  0  0  -0.183554  0  4.048891  0  0  -0.108318  -0.172078  0  4.012537  0
C  C49  1  0.58667853  0.91047174  0.12278648  1  0  -0.157358  0  3.776067  0  0  -0.1767  0  4.027397  0  0  -0.183652  0  4.049027  0  0  -0.108303  -0.172175  0  4.012682  0
C  C50  1  0.55349343  0.59752547  0.61435794  1  0  -0.076048  0  3.570347  0  0  -0.176544  0  3.834693  0  0  -0.168569  0  3.836998  0  0  -0.147312  -0.181734  0  3.833019  0
C  C51  1  0.44649805  0.40247400  0.38564146  1  0  -0.075947  0  3.570495  0  0  -0.176549  0  3.83486  0  0  -0.168557  0  3.837166  0  0  -0.147325  -0.181738  0  3.833181  0
C  C52  1  0.90065086  0.10221766  0.21521619  1  0  -0.073188  0  3.60711  0  0  -0.171605  0  3.87075  0  0  -0.164198  0  3.874271  0  0  -0.141371  -0.176462  0  3.868211  0
C  C53  1  0.09934967  0.89778175  0.78478368  1  0  -0.073337  0  3.607159  0  0  -0.171734  0  3.870784  0  0  -0.164329  0  3.874311  0  0  -0.141411  -0.176591  0  3.868246  0
C  C54  1  0.74160222  0.02867694  0.59230098  1  0  0.69196  0  3.844965  0  0  0.64202  0  4.127587  0  0  0.679534  0  4.117352  0  0  0.221453  0.616419  0  4.133976  0
C  C55  1  0.25839907  0.97131983  0.40769898  1  0  0.691823  0  3.845239  0  0  0.641903  0  4.12782  0  0  0.679418  0  4.117584  0  0  0.22143  0.616301  0  4.134206  0
C  C56  1  0.98536661  0.56625472  0.32641809  1  0  0.693439  0  3.838338  0  0  0.64126  0  4.126145  0  0  0.678537  0  4.116304  0  0  0.221832  0.615814  0  4.132227  0
C  C57  1  0.01463435  0.43374330  0.67358440  1  0  0.693346  0  3.838389  0  0  0.641208  0  4.126148  0  0  0.678484  0  4.116309  0  0  0.221798  0.615762  0  4.132231  0
O  O58  1  0.91641160  0.26553026  0.24501812  1  0  -0.251301  0  2.40744  0  0  -0.168419  0  2.647198  0  0  -0.188814  0  2.652257  0  0  -0.173505  -0.154101  0  2.643265  0
O  O59  1  0.08358848  0.73447058  0.75497740  1  0  -0.251339  0  2.407499  0  0  -0.168418  0  2.647188  0  0  -0.188808  0  2.652245  0  0  -0.173497  -0.154097  0  2.643255  0
O  O60  1  0.01613633  0.71047443  0.34210041  1  0  -0.648616  0  2.056247  0  0  -0.576623  0  2.329922  0  0  -0.60633  0  2.314769  0  0  -0.312137  -0.555895  0  2.339735  0
O  O61  1  0.98386586  0.28952366  0.65789932  1  0  -0.648626  0  2.056301  0  0  -0.576629  0  2.329925  0  0  -0.606336  0  2.314773  0  0  -0.312155  -0.5559  0  2.339737  0
O  O62  1  0.60517908  0.40994138  0.60350187  1  0  -0.245978  0  2.405272  0  0  -0.159553  0  2.64074  0  0  -0.181012  0  2.646581  0  0  -0.168744  -0.144601  0  2.636257  0
O  O63  1  0.39482268  0.59005812  0.39649438  1  0  -0.24603  0  2.405288  0  0  -0.159533  0  2.640765  0  0  -0.181049  0  2.64665  0  0  -0.168781  -0.144576  0  2.636281  0
O  O64  1  0.81004829  0.11223533  0.50302708  1  0  -0.671194  0  2.117392  0  0  -0.603961  0  2.405819  0  0  -0.63012  0  2.384975  0  0  -0.325445  -0.585723  0  2.419714  0
O  O65  1  0.18995172  0.88776142  0.49697392  1  0  -0.671138  0  2.117503  0  0  -0.603912  0  2.405902  0  0  -0.630068  0  2.385056  0  0  -0.325432  -0.585675  0  2.419799  0
O  O66  1  0.79057014  0.85944470  0.60422135  1  0  -0.644857  0  2.073481  0  0  -0.571312  0  2.344345  0  0  -0.601282  0  2.330099  0  0  -0.308464  -0.550389  0  2.353395  0
O  O67  1  0.20943283  0.14055070  0.39578020  1  0  -0.644832  0  2.073622  0  0  -0.571275  0  2.344447  0  0  -0.601249  0  2.33021  0  0  -0.308466  -0.550353  0  2.353496  0
O  O68  1  0.89669705  0.48854659  0.40815193  1  0  -0.657703  0  2.110901  0  0  -0.59052  0  2.398716  0  0  -0.616709  0  2.378888  0  0  -0.320967  -0.572312  0  2.411991  0
O  O69  1  0.10330370  0.51144754  0.59184831  1  0  -0.657624  0  2.110945  0  0  -0.590429  0  2.398682  0  0  -0.616619  0  2.378857  0  0  -0.320933  -0.572222  0  2.411959  0
