# generated using pymatgen
data_CdH10C11N2O5
_symmetry_space_group_name_H-M   'P 1'
_cell_length_a   7.18569872
_cell_length_b   11.45688092
_cell_length_c   16.47784977
_cell_angle_alpha   82.41986364
_cell_angle_beta   77.04877418
_cell_angle_gamma   71.70013938
_symmetry_Int_Tables_number   1
_chemical_formula_structural   CdH10C11N2O5
_chemical_formula_sum   'Cd4 H40 C44 N8 O20'
_cell_volume   1252.40146985
_cell_formula_units_Z   4
loop_
 _symmetry_equiv_pos_site_id
 _symmetry_equiv_pos_as_xyz
  1  'x, y, z'
loop_
 _atom_site_type_symbol
 _atom_site_label
 _atom_site_symmetry_multiplicity
 _atom_site_fract_x
 _atom_site_fract_y
 _atom_site_fract_z
 _atom_site_occupancy
 _atom_site_hle17_bader_spin_density
 _atom_site_hle17_ddec_charge
 _atom_site_hle17_ddec_spin_density
 _atom_site_hle17_ddec_sum_bond_order
 _atom_site_hle17_magmom
 _atom_site_hse06_10hf_bader_spin_density
 _atom_site_hse06_10hf_ddec_charge
 _atom_site_hse06_10hf_ddec_spin_density
 _atom_site_hse06_10hf_ddec_sum_bond_order
 _atom_site_hse06_10hf_magmom
 _atom_site_hse06_bader_spin_density
 _atom_site_hse06_ddec_charge
 _atom_site_hse06_ddec_spin_density
 _atom_site_hse06_ddec_sum_bond_order
 _atom_site_hse06_magmom
 _atom_site_pbe_bader_charge
 _atom_site_pbe_bader_spin_density
 _atom_site_pbe_cm5_charge
 _atom_site_pbe_ddec_charge
 _atom_site_pbe_ddec_spin_density
 _atom_site_pbe_ddec_sum_bond_order
 _atom_site_pbe_magmom
Cd  Cd0  1  0.20720732  0.75345210  0.77721429  1  0  1.290144  0  1.596821  0  0  1.11674  0  2.050779  0  0  1.176792  0  1.987408  0  1.372915  0  0.787047  1.073243  0  2.094707  0
Cd  Cd1  1  0.74060459  0.74281117  0.72229297  1  0  1.290119  0  1.600974  0  0  1.116692  0  2.055577  0  0  1.176653  0  1.992192  0  1.372458  0  0.787575  1.073305  0  2.09944  0
Cd  Cd2  1  0.79279824  0.24654445  0.22278398  1  0  1.290167  0  1.59684  0  0  1.116718  0  2.050797  0  0  1.176772  0  1.987427  0  1.373006  0  0.787048  1.073222  0  2.094727  0
Cd  Cd3  1  0.25939912  0.25718354  0.27770243  1  0  1.290077  0  1.601012  0  0  1.11661  0  2.055612  0  0  1.176568  0  1.992236  0  1.372409  0  0.787545  1.073223  0  2.099475  0
H  H4  1  0.75047682  0.65062144  0.05893887  1  0  0.065472  0  0.925548  0  0  0.079674  0  0.986197  0  0  0.079823  0  0.987131  0  0.048189  0  0.102029  0.079461  0  0.985661  0
H  H5  1  0.46226470  0.85134052  0.43978970  1  0  0.065891  0  0.926215  0  0  0.080545  0  0.986302  0  0  0.080712  0  0.987199  0  0.059931  0  0.10215  0.080343  0  0.98575  0
H  H6  1  0.24952054  0.34938433  0.94105994  1  0  0.065459  0  0.925502  0  0  0.079656  0  0.986164  0  0  0.079803  0  0.987101  0  0.047997  0  0.102025  0.079446  0  0.985631  0
H  H7  1  0.53771941  0.14867261  0.56020712  1  0  0.065967  0  0.926196  0  0  0.080681  0  0.986206  0  0  0.080849  0  0.987102  0  0.059738  0  0.102207  0.080484  0  0.985658  0
H  H8  1  0.70185010  0.51325866  0.04184553  1  0  0.068357  0  0.938945  0  0  0.077276  0  1.007275  0  0  0.078611  0  1.006483  0  0.080258  0  0.098027  0.076243  0  1.007894  0
H  H9  1  0.25724005  0.98781509  0.45878198  1  0  0.067741  0  0.939913  0  0  0.076907  0  1.007966  0  0  0.078195  0  1.00724  0  0.067658  0  0.098135  0.07591  0  1.00852  0
H  H10  1  0.29814751  0.48674434  0.95815733  1  0  0.068337  0  0.938996  0  0  0.077258  0  1.007337  0  0  0.078594  0  1.006545  0  0.0802  0  0.098009  0.076226  0  1.007956  0
H  H11  1  0.74274256  0.01219897  0.54121871  1  0  0.06781  0  0.939898  0  0  0.07693  0  1.008018  0  0  0.078221  0  1.007289  0  0.067876  0  0.098122  0.075935  0  1.008573  0
H  H12  1  0.36608436  0.61209794  0.10696947  1  0  0.070574  0  0.921822  0  0  0.087315  0  0.97957  0  0  0.087859  0  0.979444  0  0.050363  0  0.106416  0.086742  0  0.979937  0
H  H13  1  0.08703005  0.88930198  0.39355624  1  0  0.071351  0  0.922001  0  0  0.087854  0  0.979629  0  0  0.088345  0  0.979556  0  0.061049  0  0.106511  0.087346  0  0.97991  0
H  H14  1  0.63390804  0.38791151  0.89302952  1  0  0.070506  0  0.921828  0  0  0.087243  0  0.979581  0  0  0.087797  0  0.979442  0  0.050288  0  0.1064  0.086671  0  0.979946  0
H  H15  1  0.91295727  0.11070747  0.60644357  1  0  0.071403  0  0.921935  0  0  0.087844  0  0.979594  0  0  0.088337  0  0.979527  0  0.061075  0  0.106502  0.08734  0  0.979865  0
H  H16  1  0.40467890  0.76115385  0.08981255  1  0  0.057819  0  0.925282  0  0  0.072649  0  0.988218  0  0  0.072261  0  0.990287  0  0.056588  0  0.100682  0.072847  0  0.986833  0
H  H17  1  0.25919739  0.74047734  0.40911769  1  0  0.058727  0  0.926906  0  0  0.073367  0  0.98971  0  0  0.073021  0  0.991724  0  0.05801  0  0.100893  0.073531  0  0.98837  0
H  H18  1  0.59532298  0.23885376  0.91017935  1  0  0.057835  0  0.925291  0  0  0.072656  0  0.988221  0  0  0.072266  0  0.990292  0  0.056636  0  0.100694  0.072854  0  0.986834  0
H  H19  1  0.74079186  0.25952935  0.59088164  1  0  0.058766  0  0.926829  0  0  0.073326  0  0.989685  0  0  0.072984  0  0.991702  0  0.058295  0  0.100904  0.073494  0  0.988341  0
H  H20  1  0.87791992  0.36132531  0.76337461  1  0  0.101893  0  0.949607  0  0  0.110966  0  1.011082  0  0  0.114958  0  1.008111  0  0.065291  0  0.104097  0.108061  0  1.013316  0
H  H21  1  0.00552395  0.13560479  0.73464444  1  0  0.10302  0  0.950001  0  0  0.111393  0  1.01196  0  0  0.115347  0  1.009028  0  0.096976  0  0.10408  0.108518  0  1.014184  0
H  H22  1  0.12208737  0.63865834  0.23664861  1  0  0.102052  0  0.949744  0  0  0.111049  0  1.011252  0  0  0.115045  0  1.008285  0  0.065117  0  0.104258  0.108149  0  1.013474  0
H  H23  1  0.99447499  0.86437978  0.26537525  1  0  0.102912  0  0.950082  0  0  0.111328  0  1.012003  0  0  0.115283  0  1.009069  0  0.097708  0  0.104032  0.108456  0  1.014223  0
H  H24  1  0.47323368  0.35994141  0.76698215  1  0  0.104009  0  0.945125  0  0  0.115977  0  1.002337  0  0  0.119541  0  1.00008  0  0.079376  0  0.107733  0.113316  0  1.004195  0
H  H25  1  0.60195239  0.13515424  0.73548662  1  0  0.103259  0  0.943902  0  0  0.113999  0  1.002438  0  0  0.117546  0  1.000197  0  0.103722  0  0.107324  0.111394  0  1.004242  0
H  H26  1  0.52678566  0.64005606  0.23300614  1  0  0.10386  0  0.94517  0  0  0.115896  0  1.002323  0  0  0.119461  0  1.000066  0  0.079844  0  0.107695  0.113248  0  1.004167  0
H  H27  1  0.39805394  0.86484231  0.26450234  1  0  0.103387  0  0.943754  0  0  0.114035  0  1.002399  0  0  0.117579  0  1.000163  0  0.103778  0  0.107348  0.111431  0  1.004201  0
H  H28  1  0.82455803  0.93545167  0.04809723  1  0  0.104673  0  0.938596  0  0  0.112859  0  0.99952  0  0  0.116858  0  0.996978  0  0.090658  0  0.103178  0.109974  0  1.001448  0
H  H29  1  0.80955962  0.56409169  0.45090648  1  0  0.104796  0  0.941699  0  0  0.113292  0  1.002066  0  0  0.117307  0  0.999526  0  0.101288  0  0.103402  0.110395  0  1.004014  0
H  H30  1  0.17544411  0.06454949  0.95190206  1  0  0.104685  0  0.938545  0  0  0.112873  0  0.999473  0  0  0.116872  0  0.996931  0  0.090689  0  0.103187  0.10999  0  1.0014  0
H  H31  1  0.19042092  0.43590394  0.54909594  1  0  0.104832  0  0.941533  0  0  0.113299  0  1.00192  0  0  0.117315  0  0.999376  0  0.101372  0  0.103421  0.110402  0  1.003869  0
H  H32  1  0.49021118  0.95174613  0.85895835  1  0  0.097296  0  0.981439  0  0  0.104226  0  1.049009  0  0  0.106812  0  1.048242  0  0.111339  0  0.100178  0.102319  0  1.049716  0
H  H33  1  0.30164292  0.54607149  0.64204887  1  0  0.097102  0  0.982497  0  0  0.10422  0  1.04998  0  0  0.106723  0  1.049313  0  0.109814  0  0.100054  0.102384  0  1.050617  0
H  H34  1  0.50978558  0.04825595  0.14104441  1  0  0.097347  0  0.981643  0  0  0.10424  0  1.049239  0  0  0.106847  0  1.048447  0  0.111326  0  0.100215  0.102335  0  1.049939  0
H  H35  1  0.69833202  0.45393427  0.35795100  1  0  0.097171  0  0.982367  0  0  0.104245  0  1.049893  0  0  0.106749  0  1.049224  0  0.109836  0  0.100055  0.102406  0  1.050537  0
H  H36  1  0.21245549  0.75359123  0.97951865  1  0  0.327199  0  0.917602  0  0  0.309684  0  0.978978  0  0  0.318334  0  0.971015  0  0.535643  0  0.308777  0.303564  0  0.984612  0
H  H37  1  0.94902137  0.74531823  0.52045477  1  0  0.325456  0  0.915982  0  0  0.308833  0  0.976665  0  0  0.317411  0  0.968801  0  0.515338  0  0.308525  0.302781  0  0.982218  0
H  H38  1  0.78755437  0.24641178  0.02047339  1  0  0.32712  0  0.917694  0  0  0.309648  0  0.97901  0  0  0.318297  0  0.971048  0  0.535646  0  0.308769  0.303535  0  0.984641  0
H  H39  1  0.05097260  0.25468938  0.47954505  1  0  0.325455  0  0.916035  0  0  0.308784  0  0.976776  0  0  0.317365  0  0.968909  0  0.515461  0  0.308509  0.30273  0  0.982331  0
H  H40  1  0.80407756  0.61530708  0.89629090  1  0  0.309684  0  0.917656  0  0  0.294699  0  0.973355  0  0  0.302137  0  0.967952  0  0.51008  0  0.310865  0.289458  0  0.977232  0
H  H41  1  0.31707083  0.88367884  0.60325635  1  0  0.308953  0  0.919616  0  0  0.294795  0  0.974699  0  0  0.302314  0  0.969104  0  0.51076  0  0.309986  0.289499  0  0.97865  0
H  H42  1  0.19593308  0.38468855  0.10370991  1  0  0.309708  0  0.917626  0  0  0.294717  0  0.973332  0  0  0.302156  0  0.967929  0  0.510147  0  0.310894  0.28948  0  0.977203  0
H  H43  1  0.68292246  0.11632877  0.39674273  1  0  0.308954  0  0.919597  0  0  0.29477  0  0.974704  0  0  0.302293  0  0.969103  0  0.510896  0  0.309983  0.289476  0  0.978652  0
C  C44  1  0.50193478  0.69255861  0.91698283  1  0  0.738874  0  3.873937  0  0  0.66729  0  4.17639  0  0  0.702868  0  4.172107  0  1.819819  0  0.337089  0.643109  0  4.178536  0
C  C45  1  0.11440879  0.80577222  0.58274581  1  0  0.734619  0  3.873847  0  0  0.663034  0  4.177505  0  0  0.698668  0  4.173168  0  1.83182  0  0.336204  0.638828  0  4.179685  0
C  C46  1  0.49807607  0.30743610  0.08301397  1  0  0.738967  0  3.873944  0  0  0.667314  0  4.17647  0  0  0.702893  0  4.172181  0  1.819795  0  0.337041  0.643147  0  4.178614  0
C  C47  1  0.88558553  0.19423355  0.41725604  1  0  0.734642  0  3.873572  0  0  0.663028  0  4.177205  0  0  0.698669  0  4.172862  0  1.832463  0  0.336235  0.638815  0  4.179393  0
C  C48  1  0.65913896  0.61394898  0.02987140  1  0  0.049371  0  3.594397  0  0  -0.006282  0  3.858214  0  0  -0.002095  0  3.868873  0  0.320114  0  -0.053343  -0.008972  0  3.850825  0
C  C49  1  0.30480292  0.88697551  0.46977071  1  0  0.049516  0  3.597434  0  0  -0.006252  0  3.861479  0  0  -0.002093  0  3.872151  0  0.324364  0  -0.053465  -0.008932  0  3.854091  0
C  C50  1  0.34086282  0.38605310  0.97012919  1  0  0.049364  0  3.594324  0  0  -0.006319  0  3.85821  0  0  -0.002135  0  3.868875  0  0.320305  0  -0.053344  -0.009016  0  3.850831  0
C  C51  1  0.69517851  0.11303670  0.53022784  1  0  0.049309  0  3.597259  0  0  -0.006533  0  3.861355  0  0  -0.002365  0  3.87203  0  0.324207  0  -0.053509  -0.009223  0  3.853983  0
C  C52  1  0.43249457  0.67388055  0.06140856  1  0  0.051602  0  3.593135  0  0  -0.007434  0  3.860408  0  0  -0.003536  0  3.871977  0  0.312112  0  -0.048463  -0.009945  0  3.852311  0
C  C53  1  0.17036631  0.82706881  0.43838246  1  0  0.045683  0  3.599529  0  0  -0.012347  0  3.86634  0  0  -0.008448  0  3.877899  0  0.30598  0  -0.050163  -0.014853  0  3.858285  0
C  C54  1  0.56750267  0.32612245  0.93858754  1  0  0.051572  0  3.593165  0  0  -0.007417  0  3.860426  0  0  -0.003524  0  3.871994  0  0.312037  0  -0.048516  -0.009916  0  3.852334  0
C  C55  1  0.82962345  0.17293695  0.56161826  1  0  0.045714  0  3.599332  0  0  -0.012171  0  3.866018  0  0  -0.008294  0  3.877607  0  0.305858  0  -0.050114  -0.014682  0  3.857975  0
C  C56  1  0.09270230  0.50550440  0.78594222  1  0  0.654025  0  3.915256  0  0  0.601884  0  4.211868  0  0  0.637511  0  4.202765  0  1.55352  0  0.210678  0.577621  0  4.217297  0
C  C57  1  0.38744597  0.99067872  0.71394185  1  0  0.652164  0  3.918048  0  0  0.5999  0  4.214534  0  0  0.635475  0  4.205555  0  1.563159  0  0.210368  0.575668  0  4.219884  0
C  C58  1  0.90731520  0.49449308  0.21405930  1  0  0.654149  0  3.914957  0  0  0.602048  0  4.211496  0  0  0.637677  0  4.202386  0  1.553542  0  0.210748  0.577782  0  4.216926  0
C  C59  1  0.61256273  0.00931507  0.28605473  1  0  0.652096  0  3.918015  0  0  0.599718  0  4.214641  0  0  0.635291  0  4.205662  0  1.563064  0  0.210228  0.575485  0  4.219989  0
C  C60  1  0.16844839  0.37185383  0.76817393  1  0  -0.056564  0  3.746934  0  0  -0.03475  0  3.980368  0  0  -0.041843  0  4.003319  0  -0.000528  0  -0.015612  -0.030057  0  3.964814  0
C  C61  1  0.31092961  0.12411805  0.73222249  1  0  -0.058518  0  3.750082  0  0  -0.036339  0  3.982694  0  0  -0.04344  0  4.005635  0  0.058215  0  -0.015987  -0.031632  0  3.967164  0
C  C62  1  0.83156360  0.62813719  0.23183505  1  0  -0.056328  0  3.746608  0  0  -0.034565  0  3.980049  0  0  -0.041657  0  4.003  0  -0.000561  0  -0.015579  -0.029871  0  3.964499  0
C  C63  1  0.68907673  0.87587574  0.26777787  1  0  -0.058575  0  3.750075  0  0  -0.03636  0  3.982673  0  0  -0.043459  0  4.00561  0  0.057532  0  -0.015952  -0.031653  0  3.967144  0
C  C64  1  0.03564087  0.31011637  0.75802291  1  0  -0.073569  0  3.740355  0  0  -0.095294  0  3.985025  0  0  -0.096517  0  4.005727  0  0.022221  0  -0.084401  -0.094348  0  3.970954  0
C  C65  1  0.10625773  0.18634937  0.74109960  1  0  -0.077595  0  3.743441  0  0  -0.099001  0  3.988266  0  0  -0.100184  0  4.008951  0  -0.157267  0  -0.085604  -0.098115  0  3.974221  0
C  C66  1  0.96436675  0.68987281  0.24199568  1  0  -0.073982  0  3.740495  0  0  -0.095641  0  3.985246  0  0  -0.096872  0  4.005953  0  0.022091  0  -0.084615  -0.094697  0  3.971177  0
C  C67  1  0.89374842  0.81363797  0.25891145  1  0  -0.077349  0  3.743194  0  0  -0.098785  0  3.987987  0  0  -0.099967  0  4.008671  0  -0.157758  0  -0.085544  -0.097901  0  3.973944  0
C  C68  1  0.37297727  0.30928529  0.75988662  1  0  -0.081138  0  3.747698  0  0  -0.105706  0  4.001157  0  0  -0.10681  0  4.021898  0  -0.058399  0  -0.082728  -0.104848  0  3.987112  0
C  C69  1  0.44395419  0.18613284  0.74177228  1  0  -0.072718  0  3.74288  0  0  -0.096079  0  3.99623  0  0  -0.097113  0  4.016927  0  -0.062563  0  -0.079991  -0.095302  0  3.982188  0
C  C70  1  0.62703665  0.69071126  0.24011184  1  0  -0.080989  0  3.747502  0  0  -0.105585  0  4.00093  0  0  -0.10669  0  4.021672  0  -0.058674  0  -0.082653  -0.104736  0  3.98688  0
C  C71  1  0.55605598  0.81386187  0.25822378  1  0  -0.072898  0  3.74296  0  0  -0.096213  0  3.996358  0  0  -0.097245  0  4.017053  0  -0.062148  0  -0.080097  -0.095435  0  3.98232  0
C  C72  1  0.86256782  0.86828548  0.89192853  1  0  0.647285  0  3.928846  0  0  0.595629  0  4.222655  0  0  0.631031  0  4.215095  0  1.54233  0  0.198489  0.571568  0  4.226896  0
C  C73  1  0.62524569  0.62906133  0.60783773  1  0  0.648565  0  3.922712  0  0  0.596819  0  4.216917  0  0  0.632199  0  4.209299  0  1.568551  0  0.199116  0.572758  0  4.221192  0
C  C74  1  0.13743156  0.13171845  0.10806780  1  0  0.647286  0  3.929149  0  0  0.59563  0  4.222938  0  0  0.631032  0  4.215378  0  1.542138  0  0.198537  0.571565  0  4.227178  0
C  C75  1  0.37474832  0.37093523  0.39216070  1  0  0.648398  0  3.922954  0  0  0.596609  0  4.217248  0  0  0.631991  0  4.209632  0  1.569283  0  0.199013  0.572548  0  4.221519  0
C  C76  1  0.67565997  0.93636014  0.94778535  1  0  -0.057717  0  3.755484  0  0  -0.034437  0  3.987074  0  0  -0.041221  0  4.009007  0  -0.039751  0  -0.016732  -0.030007  0  3.972327  0
C  C77  1  0.56102283  0.56218906  0.55219942  1  0  -0.058024  0  3.753843  0  0  -0.035962  0  3.986935  0  0  -0.042642  0  4.008725  0  0.008964  0  -0.017695  -0.03158  0  3.972265  0
C  C78  1  0.32433744  0.06364010  0.05221344  1  0  -0.057682  0  3.755503  0  0  -0.034377  0  3.987049  0  0  -0.041162  0  4.008988  0  -0.039387  0  -0.016649  -0.029943  0  3.972303  0
C  C79  1  0.43895757  0.43781210  0.44780167  1  0  -0.057885  0  3.753792  0  0  -0.035858  0  3.986946  0  0  -0.04254  0  4.008744  0  0.008306  0  -0.017696  -0.031475  0  3.972273  0
C  C80  1  0.68197346  0.96341347  0.02755537  1  0  -0.073792  0  3.722333  0  0  -0.09583  0  3.971559  0  0  -0.096518  0  3.990892  0  -0.000281  0  -0.08569  -0.09528  0  3.958504  0
C  C81  1  0.67372400  0.53638234  0.47185335  1  0  -0.073414  0  3.723548  0  0  -0.095324  0  3.972328  0  0  -0.09608  0  3.991656  0  -0.072368  0  -0.085539  -0.094736  0  3.959269  0
C  C82  1  0.31802677  0.03658677  0.97244774  1  0  -0.073766  0  3.722536  0  0  -0.095825  0  3.971776  0  0  -0.096511  0  3.991103  0  -0.00026  0  -0.085686  -0.095278  0  3.958721  0
C  C83  1  0.32625573  0.46361513  0.52815033  1  0  -0.073529  0  3.72337  0  0  -0.095384  0  3.972163  0  0  -0.096139  0  3.991491  0  -0.072893  0  -0.085574  -0.094797  0  3.959107  0
C  C84  1  0.49273710  0.97380747  0.92075283  1  0  -0.071302  0  3.73564  0  0  -0.095208  0  3.987988  0  0  -0.096339  0  4.009447  0  -0.087745  0  -0.0874  -0.094351  0  3.973483  0
C  C85  1  0.38775290  0.52489652  0.57983382  1  0  -0.070636  0  3.732206  0  0  -0.094256  0  3.984093  0  0  -0.095401  0  4.0056  0  -0.088356  0  -0.086912  -0.093404  0  3.969545  0
C  C86  1  0.50726397  0.02619369  0.07925037  1  0  -0.071399  0  3.735671  0  0  -0.095288  0  3.988017  0  0  -0.096434  0  4.009466  0  -0.087737  0  -0.08749  -0.094431  0  3.973512  0
C  C87  1  0.61222370  0.47510464  0.42016821  1  0  -0.070613  0  3.732118  0  0  -0.094202  0  3.984098  0  0  -0.095347  0  4.005605  0  -0.08885  0  -0.08685  -0.093349  0  3.969547  0
N  N88  1  0.35234732  0.69690841  0.98460557  1  0  -0.499062  0  3.193301  0  0  -0.439173  0  3.44211  0  0  -0.459736  0  3.445528  0  -1.226538  0  -0.433572  -0.425056  0  3.439467  0
N  N89  1  0.03663217  0.80241934  0.51549474  1  0  -0.493874  0  3.190729  0  0  -0.435716  0  3.439879  0  0  -0.456229  0  3.443307  0  -1.222129  0  -0.432363  -0.421687  0  3.437261  0
N  N90  1  0.64765633  0.30309183  0.01538984  1  0  -0.499006  0  3.193333  0  0  -0.439156  0  3.442149  0  0  -0.459718  0  3.445568  0  -1.22652  0  -0.433558  -0.425072  0  3.439526  0
N  N91  1  0.96335849  0.19759011  0.48450742  1  0  -0.493972  0  3.190752  0  0  -0.43575  0  3.439818  0  0  -0.456257  0  3.443245  0  -1.222662  0  -0.432403  -0.421716  0  3.437203  0
N  N92  1  0.68077034  0.64948907  0.94075207  1  0  -0.48228  0  3.247307  0  0  -0.420082  0  3.490688  0  0  -0.441462  0  3.497172  0  -1.241202  0  -0.434265  -0.405522  0  3.486004  0
N  N93  1  0.27374220  0.84956872  0.55867092  1  0  -0.479101  0  3.240268  0  0  -0.418377  0  3.483908  0  0  -0.439598  0  3.490174  0  -1.246598  0  -0.43367  -0.403859  0  3.479301  0
N  N94  1  0.31923746  0.35050564  0.05924777  1  0  -0.482218  0  3.24722  0  0  -0.419999  0  3.490638  0  0  -0.44138  0  3.49712  0  -1.241187  0  -0.434209  -0.405441  0  3.485953  0
N  N95  1  0.72625064  0.15043981  0.44132811  1  0  -0.479051  0  3.240185  0  0  -0.418244  0  3.483774  0  0  -0.439483  0  3.490063  0  -1.246968  0  -0.433652  -0.403723  0  3.479172  0
O  O96  1  0.48034978  0.72435424  0.84206263  1  0  -0.689023  0  2.098883  0  0  -0.613678  0  2.374097  0  0  -0.644146  0  2.359558  0  -1.182138  0  -0.322483  -0.592128  0  2.383304  0
O  O97  1  0.04996449  0.77250700  0.65762620  1  0  -0.68812  0  2.106638  0  0  -0.611857  0  2.381757  0  0  -0.642432  0  2.367082  0  -1.182829  0  -0.321461  -0.590318  0  2.391132  0
O  O98  1  0.51966527  0.27563678  0.15793190  1  0  -0.689119  0  2.098968  0  0  -0.613633  0  2.374066  0  0  -0.644109  0  2.359549  0  -1.18205  0  -0.322452  -0.592085  0  2.383274  0
O  O99  1  0.95004016  0.22749416  0.34237200  1  0  -0.688155  0  2.106443  0  0  -0.611913  0  2.381606  0  0  -0.642487  0  2.366928  0  -1.182875  0  -0.3215  -0.590369  0  2.390982  0
O  O100  1  0.21567356  0.55317988  0.80311137  1  0  -0.638758  0  2.031101  0  0  -0.576123  0  2.292011  0  0  -0.604368  0  2.27817  0  -1.156286  0  -0.320555  -0.556311  0  2.300843  0
O  O101  1  0.57592094  0.94307971  0.69757814  1  0  -0.638622  0  2.032313  0  0  -0.57547  0  2.293158  0  0  -0.603832  0  2.279354  0  -1.173958  0  -0.321084  -0.555585  0  2.301978  0
O  O102  1  0.78434562  0.44681760  0.19688562  1  0  -0.638903  0  2.030809  0  0  -0.57627  0  2.291704  0  0  -0.604514  0  2.277861  0  -1.156328  0  -0.320623  -0.55647  0  2.300566  0
O  O103  1  0.42409047  0.05691684  0.30242140  1  0  -0.638538  0  2.03229  0  0  -0.575314  0  2.293128  0  0  -0.603679  0  2.279335  0  -1.173789  0  -0.320989  -0.555429  0  2.301946  0
O  O104  1  0.90927158  0.56062549  0.78352057  1  0  -0.674267  0  2.063069  0  0  -0.610334  0  2.319946  0  0  -0.638434  0  2.305987  0  -1.19165  0  -0.332537  -0.59052  0  2.328797  0
O  O105  1  0.25725531  0.93575664  0.71490099  1  0  -0.672022  0  2.067059  0  0  -0.608317  0  2.322949  0  0  -0.636309  0  2.309238  0  -1.188323  0  -0.331017  -0.588636  0  2.331712  0
O  O106  1  0.09074845  0.43937291  0.21647651  1  0  -0.674331  0  2.063078  0  0  -0.610372  0  2.319935  0  0  -0.638475  0  2.305982  0  -1.191544  0  -0.332543  -0.590556  0  2.328783  0
O  O107  1  0.74276781  0.06423070  0.28509167  1  0  -0.672032  0  2.066884  0  0  -0.608236  0  2.322771  0  0  -0.636227  0  2.309059  0  -1.188364  0  -0.330967  -0.588554  0  2.331532  0
O  O108  1  0.85429587  0.84524196  0.81897405  1  0  -0.687135  0  2.075598  0  0  -0.617473  0  2.340968  0  0  -0.649743  0  2.328911  0  -1.170242  0  -0.33285  -0.594511  0  2.348132  0
O  O109  1  0.52056693  0.65192886  0.68112750  1  0  -0.689793  0  2.077003  0  0  -0.618633  0  2.342071  0  0  -0.651155  0  2.330162  0  -1.173198  0  -0.33382  -0.595565  0  2.349324  0
O  O110  1  0.14570967  0.15475736  0.18102423  1  0  -0.687184  0  2.075695  0  0  -0.61751  0  2.341067  0  0  -0.64978  0  2.329009  0  -1.170242  0  -0.332904  -0.594555  0  2.348257  0
O  O111  1  0.47943023  0.34806953  0.31887394  1  0  -0.6897  0  2.077066  0  0  -0.618593  0  2.342246  0  0  -0.651112  0  2.330341  0  -1.173239  0  -0.333806  -0.595524  0  2.349498  0
O  O112  1  0.02770998  0.83687221  0.91687966  1  0  -0.654839  0  1.982628  0  0  -0.596936  0  2.217116  0  0  -0.624385  0  2.205988  0  -1.180085  0  -0.325376  -0.577577  0  2.224022  0
O  O113  1  0.78506468  0.65978356  0.58244391  1  0  -0.653385  0  1.978477  0  0  -0.595854  0  2.212822  0  0  -0.623205  0  2.201694  0  -1.185994  0  -0.324843  -0.576558  0  2.219737  0
O  O114  1  0.97229014  0.16314369  0.08311679  1  0  -0.654774  0  1.98286  0  0  -0.596917  0  2.21742  0  0  -0.624369  0  2.206302  0  -1.180164  0  -0.325399  -0.577554  0  2.224322  0
O  O115  1  0.21492941  0.34020470  0.41755450  1  0  -0.653301  0  1.978414  0  0  -0.595718  0  2.212781  0  0  -0.62307  0  2.201656  0  -1.186209  0  -0.32474  -0.576419  0  2.219694  0
