# generated using pymatgen
data_NiH46C44(NO3)2
_symmetry_space_group_name_H-M   'P 1'
_cell_length_a   7.83407920
_cell_length_b   10.75605924
_cell_length_c   11.38666503
_cell_angle_alpha   82.49970741
_cell_angle_beta   81.91239202
_cell_angle_gamma   70.66169188
_symmetry_Int_Tables_number   1
_chemical_formula_structural   NiH46C44(NO3)2
_chemical_formula_sum   'Ni1 H46 C44 N2 O6'
_cell_volume   892.71911616
_cell_formula_units_Z   1
loop_
 _symmetry_equiv_pos_site_id
 _symmetry_equiv_pos_as_xyz
  1  'x, y, z'
loop_
 _atom_site_type_symbol
 _atom_site_label
 _atom_site_symmetry_multiplicity
 _atom_site_fract_x
 _atom_site_fract_y
 _atom_site_fract_z
 _atom_site_occupancy
 _atom_site_hle17_ddec_charge
 _atom_site_hle17_ddec_spin_density
 _atom_site_hle17_ddec_sum_bond_order
 _atom_site_hle17_magmom
 _atom_site_hse06_10hf_ddec_charge
 _atom_site_hse06_10hf_ddec_spin_density
 _atom_site_hse06_10hf_ddec_sum_bond_order
 _atom_site_hse06_10hf_magmom
 _atom_site_hse06_ddec_charge
 _atom_site_hse06_ddec_spin_density
 _atom_site_hse06_ddec_sum_bond_order
 _atom_site_hse06_magmom
 _atom_site_pbe_cm5_charge
 _atom_site_pbe_ddec_charge
 _atom_site_pbe_ddec_spin_density
 _atom_site_pbe_ddec_sum_bond_order
 _atom_site_pbe_magmom
Ni  Ni0  1  0.00000381  0.49999332  0.00000505  1  0.678733  0.008616  2.152897  0.008  0.668037  -0.009109  2.575943  -0.011  0.785899  -0.007271  2.479236  -0.01  0.612392  0.595258  0.010401  2.638592  0.011
H  H1  1  0.53005856  0.26782661  0.13042373  1  0.095439  -0.000374  0.96435  0.0  0.105712  -0.000358  1.035309  0.0  0.105778  -0.000292  1.037674  0.0  0.09292  0.106203  0.000389  1.033143  0.0
H  H2  1  0.46994000  0.73217347  0.86956923  1  0.09543  -0.000374  0.964375  0.0  0.10568  -0.000358  1.035358  0.0  0.105745  -0.000292  1.037727  0.0  0.092906  0.106176  0.000389  1.033181  0.0
H  H3  1  0.48603324  0.42093683  0.18780303  1  0.116078  0.000118  0.926142  0.0  0.133532  4.1e-05  0.982644  0.0  0.135114  4.1e-05  0.982612  0.0  0.105083  0.132455  -3.9e-05  0.982672  0.0
H  H4  1  0.51395695  0.57906132  0.81219610  1  0.1161  0.000118  0.92615  0.0  0.133578  4.1e-05  0.982608  0.0  0.135161  4.1e-05  0.982573  0.0  0.105105  0.132498  -3.9e-05  0.982634  0.0
H  H5  1  0.76803660  0.32893893  0.29235486  1  0.064863  -9.7e-05  0.933988  0.0  0.077482  -8.4e-05  0.998339  0.0  0.079638  -6.3e-05  0.996143  0.0  0.100288  0.07595  9.7e-05  0.999793  0.0
H  H6  1  0.23195641  0.67105230  0.70765013  1  0.064844  -9.8e-05  0.933983  0.0  0.077451  -8.4e-05  0.99842  0.0  0.079607  -6.2e-05  0.996222  0.0  0.100273  0.075922  9.7e-05  0.999874  0.0
H  H7  1  0.71157933  0.96354215  0.82529490  1  0.098853  0.000158  1.001668  0.0  0.109439  0.000153  1.061865  0.0  0.111474  0.000124  1.063102  0.0  0.104069  0.107907  -0.000171  1.061288  0.0
H  H8  1  0.28842004  0.03643817  0.17470210  1  0.098829  0.000159  1.001731  0.0  0.109472  0.000153  1.061863  0.0  0.111528  0.000124  1.063077  0.0  0.104106  0.107935  -0.00017  1.061296  0.0
H  H9  1  0.64869776  0.38136542  0.47739294  1  0.086526  8e-06  0.980314  0.0  0.098038  1.1e-05  1.046263  0.0  0.100289  7e-06  1.045991  0.0  0.097516  0.096324  -1.5e-05  1.046677  0.0
H  H10  1  0.35131602  0.61861984  0.52260760  1  0.086338  8e-06  0.980541  0.0  0.097916  1.1e-05  1.046409  0.0  0.10013  7e-06  1.046182  0.0  0.097461  0.096206  -1.5e-05  1.04682  0.0
H  H11  1  0.45835902  0.85096896  0.16789164  1  0.104771  0.000196  0.970834  0.0  0.114099  0.000186  1.03414  0.0  0.116359  0.000151  1.03448  0.0  0.108956  0.112437  -0.000207  1.034174  0.0
H  H12  1  0.54167934  0.14902918  0.83212561  1  0.104802  0.000197  0.970891  0.0  0.114131  0.000186  1.034209  0.0  0.116393  0.000151  1.034541  0.0  0.108983  0.112463  -0.000207  1.034239  0.0
H  H13  1  0.92126886  0.73670734  0.82806866  1  0.089177  0.000502  0.967359  0.001  0.093985  0.000528  1.035757  0.001  0.095878  0.000475  1.033942  0.001  0.121381  0.092247  -0.000536  1.03773  -0.001
H  H14  1  0.07873758  0.26327398  0.17193381  1  0.089178  0.000501  0.967412  0.001  0.094007  0.000528  1.03583  0.001  0.095899  0.000475  1.034019  0.001  0.121386  0.092303  -0.000536  1.037762  -0.001
H  H15  1  0.68328580  0.62809837  0.15522918  1  0.094774  0.0005  0.949623  0.001  0.101931  0.000513  1.010958  0.001  0.104256  0.000462  1.008235  0.001  0.125098  0.099897  -0.000522  1.013519  -0.001
H  H16  1  0.31673818  0.37189483  0.84478366  1  0.09476  0.0005  0.94955  0.001  0.101886  0.000513  1.01088  0.001  0.104221  0.000463  1.008156  0.001  0.125053  0.099847  -0.000522  1.013449  -0.001
H  H17  1  0.74685382  0.09143235  0.09703842  1  0.0866  -1.4e-05  0.980116  0.0  0.098066  -1e-05  1.04356  0.0  0.100284  -1e-05  1.043791  0.0  0.094996  0.096539  9e-06  1.043426  0.0
H  H18  1  0.25312470  0.90856581  0.90296340  1  0.086469  -1.4e-05  0.980249  0.0  0.098007  -1e-05  1.043625  0.0  0.100231  -1e-05  1.043838  0.0  0.094964  0.096485  9e-06  1.043489  0.0
H  H19  1  0.25351152  0.09905655  0.50371585  1  0.084052  -0.0  0.963579  0.0  0.096048  1e-06  1.022819  0.0  0.098159  1e-06  1.023069  0.0  0.096627  0.094547  -0.0  1.022714  0.0
H  H20  1  0.74647116  0.90095250  0.49628785  1  0.083965  0.0  0.963648  0.0  0.096  1e-06  1.022866  0.0  0.098109  1e-06  1.023113  0.0  0.096582  0.094493  -0.0  1.022759  0.0
H  H21  1  0.96127421  0.13500555  0.41184861  1  0.084836  2e-06  0.963399  0.0  0.096161  0.0  1.027937  0.0  0.098672  0.0  1.027499  0.0  0.097292  0.094294  -1e-06  1.028414  0.0
H  H22  1  0.03872657  0.86499254  0.58814265  1  0.084744  0.0  0.963509  0.0  0.096128  0.0  1.027972  0.0  0.098637  0.0  1.027537  0.0  0.097269  0.094267  -1e-06  1.028444  0.0
H  H23  1  0.45495200  0.11892072  0.31843084  1  0.085701  2e-06  0.959237  0.0  0.09792  -8e-06  1.021117  0.0  0.100351  -4e-06  1.020973  0.0  0.09559  0.096271  9e-06  1.021272  0.0
H  H24  1  0.54502588  0.88108143  0.68157582  1  0.085624  2e-06  0.959116  0.0  0.09781  -7e-06  1.021056  0.0  0.10024  -4e-06  1.020913  0.0  0.095512  0.096162  9e-06  1.021207  0.0
H  H25  1  0.24872210  0.21954216  0.67703148  1  0.094498  -1.1e-05  0.967476  0.0  0.102259  -1.1e-05  1.033346  0.0  0.104784  -1.1e-05  1.03321  0.0  0.098205  0.100462  9e-06  1.033522  0.0
H  H26  1  0.75126577  0.78046094  0.32297164  1  0.094463  -1e-05  0.967544  0.0  0.102238  -1e-05  1.033397  0.0  0.104763  -1.1e-05  1.033262  0.0  0.098201  0.100443  9e-06  1.033569  0.0
H  H27  1  0.18969782  0.77542143  0.23601305  1  0.092025  -2.1e-05  0.967978  0.0  0.103444  -2.5e-05  1.029528  0.0  0.106335  -2.1e-05  1.028048  0.0  0.100331  0.101305  2.7e-05  1.030678  0.0
H  H28  1  0.81030121  0.22458157  0.76396722  1  0.092083  -2.2e-05  0.967912  0.0  0.103543  -2.5e-05  1.029424  0.0  0.106434  -2.1e-05  1.027942  0.0  0.100351  0.101397  2.7e-05  1.030576  0.0
H  H29  1  0.45012760  0.36053317  0.66298137  1  0.079391  8e-06  0.959124  0.0  0.093582  1.2e-05  1.01591  0.0  0.09611  1e-05  1.014754  0.0  0.097526  0.091726  -1.4e-05  1.016859  0.0
H  H30  1  0.54987866  0.63946300  0.33702374  1  0.079383  7e-06  0.959292  0.0  0.093687  1.2e-05  1.015932  0.0  0.096223  1e-05  1.014771  0.0  0.097532  0.091825  -1.4e-05  1.016894  0.0
H  H31  1  0.18812381  0.91080439  0.39928284  1  0.081902  -3e-06  0.975663  0.0  0.091656  -1e-06  1.039694  0.0  0.093699  -1e-06  1.040179  0.0  0.094523  0.090183  2e-06  1.03939  0.0
H  H32  1  0.81187810  0.08919170  0.60070154  1  0.081891  -1e-06  0.975841  0.0  0.091662  -1e-06  1.039831  0.0  0.093666  -0.0  1.040358  0.0  0.094515  0.090193  1e-06  1.03952  0.0
H  H33  1  0.97119775  0.86769130  0.08557082  1  0.090696  -1.8e-05  0.956846  0.0  0.101254  -1.5e-05  1.017033  0.0  0.103257  -1.5e-05  1.017745  0.0  0.098301  0.099798  1.3e-05  1.016602  0.0
H  H34  1  0.02878687  0.13231175  0.91441675  1  0.090824  -1.8e-05  0.956872  0.0  0.101378  -1.5e-05  1.017026  0.0  0.103386  -1.5e-05  1.017736  0.0  0.09836  0.099926  1.3e-05  1.016586  0.0
H  H35  1  0.81263854  0.53066957  0.53318685  1  0.096657  2.1e-05  0.996155  0.0  0.11751  3e-05  1.060663  0.0  0.117691  2.1e-05  1.063605  0.0  0.083632  0.11728  -3.8e-05  1.058725  0.0
H  H36  1  0.18737491  0.46936910  0.46681527  1  0.096662  1.8e-05  0.996262  0.0  0.117538  3e-05  1.060741  0.0  0.117711  2.1e-05  1.063707  0.0  0.083639  0.117306  -3.8e-05  1.058792  0.0
H  H37  1  0.72076733  0.43379946  0.64628214  1  0.088999  -1.7e-05  0.967011  0.0  0.111073  -1.5e-05  1.030065  0.0  0.111998  -1.3e-05  1.030299  0.0  0.081521  0.110332  1.6e-05  1.029989  0.0
H  H38  1  0.27923366  0.56623919  0.35370955  1  0.08905  -1.9e-05  0.966807  0.0  0.111084  -1.5e-05  1.029926  0.0  0.112035  -1.3e-05  1.030134  0.0  0.081567  0.110356  1.6e-05  1.029833  0.0
H  H39  1  0.94879088  0.36722292  0.58123422  1  0.098074  -1.1e-05  0.963126  0.0  0.119165  -2e-06  1.026488  0.0  0.12015  -3e-06  1.027297  0.0  0.083775  0.118444  1e-06  1.025921  0.0
H  H40  1  0.05121108  0.63280485  0.41875605  1  0.098165  -1.4e-05  0.9633  0.0  0.119239  -2e-06  1.026623  0.0  0.120245  -3e-06  1.027409  0.0  0.083827  0.118515  1e-06  1.026064  0.0
H  H41  1  0.03119888  0.54238112  0.66761343  1  0.033568  5.9e-05  0.91944  0.0  0.053083  4.7e-05  0.980189  0.0  0.053149  2.6e-05  0.979778  0.0  0.091816  0.052938  -6.9e-05  0.980583  0.0
H  H42  1  0.96882474  0.45762493  0.33239615  1  0.033477  6e-05  0.919709  0.0  0.053065  4.7e-05  0.980355  0.0  0.053134  2.7e-05  0.979943  0.0  0.091791  0.052922  -6.9e-05  0.980755  0.0
H  H43  1  0.80432152  0.60320609  0.73412947  1  0.012228  -4.3e-05  0.962117  0.0  0.02528  -2.3e-05  1.037629  0.0  0.025097  -1.4e-05  1.038297  0.0  0.081555  0.025275  3.2e-05  1.037426  0.0
H  H44  1  0.19570395  0.39681082  0.26587516  1  0.012273  -4.2e-05  0.962124  0.0  0.025323  -2.3e-05  1.03757  0.0  0.025145  -1.4e-05  1.038235  0.0  0.081531  0.025323  3.2e-05  1.037365  0.0
H  H45  1  0.85663509  0.40251329  0.85202966  1  0.351657  -0.000122  0.946388  0.0  0.326852  -0.000102  1.023741  0.0  0.337979  -8.9e-05  1.01117  0.0  0.282333  0.318874  9.8e-05  1.032912  0.0
H  H46  1  0.14336187  0.59749869  0.14796991  1  0.351694  -0.000122  0.946257  0.0  0.326895  -0.000102  1.023619  0.0  0.338024  -8.9e-05  1.011045  0.0  0.282361  0.318924  9.8e-05  1.032773  0.0
C  C47  1  0.71677521  0.37451409  0.06085292  1  0.693506  0.000815  3.801942  0.002  0.65171  -0.000343  4.112021  0.001  0.689693  -0.000172  4.106563  0.001  0.216704  0.625566  0.000387  4.114119  -0.001
C  C48  1  0.28322457  0.62548209  0.93915358  1  0.693564  0.000819  3.802144  0.002  0.651705  -0.000343  4.112309  0.001  0.689683  -0.000172  4.106853  0.001  0.216786  0.625557  0.000387  4.114408  -0.001
C  C49  1  0.56326608  0.93175748  0.99793241  1  0.089261  -0.002377  3.754029  -0.002  0.101319  -0.000573  3.982547  0.0  0.107526  -0.000826  3.999697  -0.001  0.011814  0.096394  0.000409  3.972265  0.0
C  C50  1  0.43675305  0.06823274  0.00207326  1  0.08925  -0.002359  3.75425  -0.002  0.101296  -0.000573  3.982795  0.0  0.107504  -0.000826  3.999947  -0.001  0.011739  0.096369  0.00041  3.972505  0.0
C  C51  1  0.56495083  0.25270377  0.38466988  1  0.065308  4e-05  3.724846  0.0  0.08728  2.5e-05  3.955154  0.0  0.086786  1.6e-05  3.980322  0.0  -0.007801  0.087523  -3.3e-05  3.938144  0.0
C  C52  1  0.43503180  0.74728250  0.61532687  1  0.06511  5e-05  3.725035  0.0  0.087315  2.5e-05  3.955116  0.0  0.086823  1.6e-05  3.980276  0.0  -0.007804  0.08756  -3.3e-05  3.938111  0.0
C  C53  1  0.83529385  0.12849357  0.25692224  1  0.064209  2.3e-05  3.722357  0.0  0.084171  1.6e-05  3.953724  0.0  0.084378  9e-06  3.978019  0.0  -0.010074  0.083849  -2e-05  3.937417  0.0
C  C54  1  0.16468957  0.87150556  0.74307467  1  0.064127  -8e-06  3.722623  0.0  0.084163  1.6e-05  3.953978  0.0  0.084368  9e-06  3.978273  0.0  -0.010087  0.083846  -2e-05  3.937671  0.0
C  C55  1  0.59539159  0.33023007  0.16354467  1  -0.282405  -0.00242  3.640798  -0.002  -0.329442  -0.001442  3.89325  -0.001  -0.335819  -0.001219  3.901557  -0.001  -0.162484  -0.324531  0.001516  3.886415  0.001
C  C56  1  0.40460237  0.66976808  0.83645679  1  -0.282549  -0.002421  3.640972  -0.002  -0.329503  -0.001442  3.893439  -0.001  -0.335879  -0.001219  3.90174  -0.001  -0.162547  -0.324573  0.001517  3.886581  0.001
C  C57  1  0.69437730  0.26362766  0.27383248  1  -0.030576  -6.7e-05  3.677937  0.0  -0.044212  -0.000143  3.906322  0.0  -0.043308  -0.000109  3.919835  0.0  -0.079086  -0.044748  0.000164  3.897102  0.0
C  C58  1  0.30560932  0.73636655  0.72617091  1  -0.030408  -6.4e-05  3.677931  0.0  -0.044239  -0.000143  3.906476  0.0  -0.043329  -0.00011  3.919978  0.0  -0.079087  -0.044794  0.000164  3.897295  0.0
C  C59  1  0.69581695  0.89415602  0.90113686  1  -0.156893  0.002723  3.714044  0.003  -0.175687  0.001536  3.959214  0.001  -0.183435  0.001502  3.978383  0.001  -0.081634  -0.171051  -0.001592  3.947767  -0.001
C  C60  1  0.30419167  0.10582924  0.09886409  1  -0.156893  0.002705  3.714451  0.003  -0.175747  0.001535  3.959636  0.001  -0.183506  0.001502  3.97879  0.001  -0.081612  -0.171111  -0.001592  3.9482  -0.001
C  C61  1  0.56239356  0.31892362  0.48318287  1  -0.135342  6e-06  3.767497  0.0  -0.156206  2.6e-05  4.014133  0.0  -0.159566  1.7e-05  4.036848  0.0  -0.0982  -0.153878  -3.3e-05  3.998789  0.0
C  C62  1  0.43760584  0.68106559  0.51681219  1  -0.13521  -8e-06  3.767837  0.0  -0.156208  2.6e-05  4.014497  0.0  -0.159545  1.7e-05  4.037243  0.0  -0.098239  -0.153866  -3.3e-05  3.999131  0.0
C  C63  1  0.55822768  0.83240740  0.09022778  1  -0.142793  0.002571  3.682564  0.002  -0.162735  0.001392  3.932241  0.001  -0.169574  0.00145  3.94954  0.001  -0.074015  -0.158856  -0.001269  3.922154  -0.001
C  C64  1  0.44179892  0.16758579  0.90978397  1  -0.142881  0.00255  3.682761  0.002  -0.162891  0.001392  3.932445  0.001  -0.16973  0.00145  3.949745  0.001  -0.074084  -0.159006  -0.001269  3.922347  -0.001
C  C65  1  0.81574812  0.76616725  0.90119172  1  0.11851  -0.002195  3.685373  -0.002  0.089177  0.000109  3.942624  0.0  0.10046  -0.000366  3.960264  -0.001  0.047684  0.080674  -0.000347  3.932977  0.0
C  C66  1  0.18425997  0.23381901  0.09881178  1  0.118572  -0.00218  3.68582  -0.002  0.089196  0.00011  3.943085  0.0  0.100466  -0.000366  3.960741  -0.001  0.047712  0.080673  -0.000347  3.93343  0.0
C  C67  1  0.68272547  0.70643008  0.08461465  1  0.149836  -0.002166  3.651193  -0.002  0.11784  0.000102  3.909402  0.0  0.13011  -0.000458  3.924674  -0.001  0.058307  0.108707  -0.000469  3.901194  0.0
C  C68  1  0.31729468  0.29356016  0.91539796  1  0.149758  -0.00215  3.651202  -0.002  0.117917  0.000102  3.909241  0.0  0.130173  -0.000458  3.924521  -0.001  0.058337  0.108783  -0.000469  3.901033  0.0
C  C69  1  0.84103949  0.05233043  0.16482691  1  -0.129142  -3e-05  3.740265  0.0  -0.147203  2e-06  3.982939  0.0  -0.150767  -4e-06  4.005376  0.0  -0.097812  -0.144665  -4e-06  3.967541  0.0
C  C70  1  0.15893927  0.94766771  0.83516874  1  -0.128966  -4e-06  3.740394  0.0  -0.147109  2e-06  3.983041  0.0  -0.150666  -4e-06  4.005475  0.0  -0.097785  -0.144574  -4e-06  3.96765  0.0
C  C71  1  0.33916206  0.16193944  0.49768753  1  -0.066727  2e-06  3.781518  0.0  -0.076377  -1.3e-05  4.023561  0.0  -0.077963  -1.1e-05  4.045307  0.0  -0.09124  -0.07519  1.6e-05  4.008587  0.0
C  C72  1  0.66081834  0.83806068  0.50230950  1  -0.066652  1e-05  3.781498  0.0  -0.076332  -1.3e-05  4.023527  0.0  -0.077915  -1.2e-05  4.04527  0.0  -0.091186  -0.075139  1.6e-05  4.008541  0.0
C  C73  1  0.96265972  0.07584070  0.34050194  1  -0.132193  -6.6e-05  3.753914  0.0  -0.150639  -2.1e-05  3.998997  0.0  -0.154456  -1.4e-05  4.021291  0.0  -0.097873  -0.147921  2.9e-05  3.98381  0.0
C  C74  1  0.03733035  0.92415544  0.65948953  1  -0.131962  -3e-05  3.754139  0.0  -0.150453  -2.1e-05  3.999157  0.0  -0.154265  -1.4e-05  4.021438  0.0  -0.097725  -0.147745  2.9e-05  3.983974  0.0
C  C75  1  0.45196293  0.17368147  0.39334569  1  -0.116219  -1.7e-05  3.740292  0.0  -0.133705  -1.3e-05  3.982218  0.0  -0.136505  -1.1e-05  4.003764  0.0  -0.092624  -0.131749  1.5e-05  3.967507  0.0
C  C76  1  0.54801483  0.82631570  0.60665367  1  -0.116047  -2.5e-05  3.739971  0.0  -0.133547  -1.3e-05  3.981805  0.0  -0.136345  -1.1e-05  4.003356  0.0  -0.092481  -0.131592  1.5e-05  3.967092  0.0
C  C77  1  0.33799693  0.22810383  0.59590720  1  -0.084852  -3e-06  3.767993  0.0  -0.097446  8e-06  4.012945  0.0  -0.099745  4e-06  4.034658  0.0  -0.096878  -0.095714  -1.2e-05  3.997963  0.0
C  C78  1  0.66198609  0.77189332  0.40408911  1  -0.084792  -1.8e-05  3.768356  0.0  -0.097424  8e-06  4.013358  0.0  -0.099722  4e-06  4.035075  0.0  -0.096887  -0.095691  -1.2e-05  3.998371  0.0
C  C79  1  0.09189911  0.87400645  0.24233956  1  -0.083796  -6.1e-05  3.777051  0.0  -0.10034  -4.2e-05  4.02625  0.0  -0.102658  -3.6e-05  4.046589  0.0  -0.096771  -0.098658  4.5e-05  4.012291  0.0
C  C80  1  0.90808943  0.12599362  0.75764630  1  -0.083612  -3.2e-05  3.776691  0.0  -0.100173  -4.2e-05  4.025849  0.0  -0.102489  -3.6e-05  4.046177  0.0  -0.096685  -0.098483  4.5e-05  4.01188  0.0
C  C81  1  0.45037503  0.30677963  0.58795726  1  -0.078283  2.2e-05  3.802631  0.0  -0.090165  1.6e-05  4.052495  0.0  -0.092035  1.1e-05  4.074179  0.0  -0.096553  -0.08874  -1.8e-05  4.037599  0.0
C  C82  1  0.54961864  0.69321356  0.41204130  1  -0.078228  3.7e-05  3.803007  0.0  -0.090183  1.6e-05  4.052847  0.0  -0.092063  1.1e-05  4.074537  0.0  -0.096504  -0.088758  -1.8e-05  4.037955  0.0
C  C83  1  0.08968236  0.94985478  0.33381746  1  -0.087359  7.7e-05  3.804458  0.0  -0.094815  4.6e-05  4.047684  0.0  -0.096295  3.8e-05  4.069078  0.0  -0.099382  -0.093591  -5e-05  4.032908  0.0
C  C84  1  0.91031370  0.05014530  0.66617394  1  -0.087483  4.6e-05  3.804826  0.0  -0.094953  4.6e-05  4.048088  0.0  -0.0964  3.8e-05  4.069489  0.0  -0.099449  -0.093728  -5e-05  4.033303  0.0
C  C85  1  0.96822580  0.92597607  0.15767490  1  -0.055421  5.4e-05  3.764618  0.0  -0.067465  2.5e-05  4.013966  0.0  -0.068446  2.1e-05  4.035603  0.0  -0.090719  -0.066473  -3.2e-05  3.998873  0.0
C  C86  1  0.03176122  0.07402403  0.84231722  1  -0.055788  2.9e-05  3.764483  0.0  -0.067843  2.5e-05  4.01389  0.0  -0.068832  2.1e-05  4.035538  0.0  -0.090869  -0.066855  -3.1e-05  3.998807  0.0
C  C87  1  0.84494658  0.45785085  0.61042095  1  -0.345819  0.000291  3.737177  0.0  -0.421972  0.000218  3.978695  0.0  -0.425208  0.000138  3.988924  0.0  -0.25967  -0.419372  -0.000306  3.971492  0.0
C  C88  1  0.15505540  0.54218190  0.38957927  1  -0.345996  0.000307  3.737342  0.0  -0.42208  0.000218  3.978842  0.0  -0.425346  0.000139  3.989026  0.0  -0.259782  -0.419483  -0.000305  3.971633  0.0
C  C89  1  0.91105812  0.51309246  0.70469831  1  0.200332  -9.9e-05  3.686245  0.0  0.151105  2.1e-05  3.95796  0.0  0.159447  4e-06  3.964181  0.0  -0.084067  0.145482  -4.1e-05  3.953747  0.0
C  C90  1  0.08895831  0.48692149  0.29530739  1  0.200308  -0.00011  3.686287  0.0  0.151106  2.1e-05  3.957922  0.0  0.159449  4e-06  3.964138  0.0  -0.084016  0.145469  -4.1e-05  3.95372  0.0
N  N91  1  0.81222012  0.67281302  0.99228621  1  -0.242181  0.025402  3.317307  0.024  -0.195517  0.02022  3.604849  0.018  -0.231942  0.019009  3.624786  0.016  -0.327221  -0.173222  -0.019775  3.593489  -0.018
N  N92  1  0.18779260  0.32717424  0.00771944  1  -0.242095  0.025384  3.317291  0.024  -0.195488  0.020217  3.604819  0.018  -0.231905  0.019006  3.624759  0.016  -0.327263  -0.173202  -0.019773  3.593476  -0.018
O  O93  1  0.82960555  0.42312413  0.09648724  1  -0.582141  -0.032164  2.144618  -0.034  -0.552342  -0.0214  2.436698  -0.023  -0.606263  -0.019416  2.431411  -0.021  -0.303031  -0.51345  0.021553  2.437802  0.023
O  O94  1  0.17040434  0.57686909  0.90352408  1  -0.58205  -0.032158  2.144835  -0.034  -0.552223  -0.021396  2.4369  -0.023  -0.606152  -0.019413  2.431642  -0.021  -0.302977  -0.513328  0.021549  2.437997  0.023
O  O95  1  0.69877534  0.36533022  0.95495601  1  -0.60325  0.000574  1.934943  0.001  -0.556728  0.000313  2.155941  0.0  -0.583281  0.000357  2.148377  0.0  -0.311552  -0.537659  -0.000277  2.160456  0.0
O  O96  1  0.30123331  0.63466987  0.04504229  1  -0.603332  0.000571  1.934984  0.001  -0.556789  0.000312  2.156019  0.0  -0.583343  0.000358  2.148457  0.0  -0.311647  -0.537718  -0.000277  2.160535  0.0
O  O97  1  0.96561067  0.41816312  0.80317513  1  -0.57627  0.003912  2.109196  0.004  -0.531232  0.0036  2.358253  0.004  -0.550617  0.002918  2.343102  0.003  -0.415331  -0.518093  -0.004148  2.369272  -0.004
O  O98  1  0.03438884  0.58184589  0.19682548  1  -0.576192  0.003912  2.10869  0.004  -0.531214  0.003598  2.357741  0.004  -0.550616  0.002916  2.342619  0.003  -0.415351  -0.518083  -0.004145  2.368759  -0.004
