# generated using pymatgen
data_ZnH7C9N3O7
_symmetry_space_group_name_H-M   'P 1'
_cell_length_a   10.11303221
_cell_length_b   15.76806720
_cell_length_c   15.77530349
_cell_angle_alpha   115.55821614
_cell_angle_beta   102.34555176
_cell_angle_gamma   102.36085138
_symmetry_Int_Tables_number   1
_chemical_formula_structural   ZnH7C9N3O7
_chemical_formula_sum   'Zn6 H42 C54 N18 O42'
_cell_volume   2078.72368400
_cell_formula_units_Z   6
loop_
 _symmetry_equiv_pos_site_id
 _symmetry_equiv_pos_as_xyz
  1  'x, y, z'
loop_
 _atom_site_type_symbol
 _atom_site_label
 _atom_site_symmetry_multiplicity
 _atom_site_fract_x
 _atom_site_fract_y
 _atom_site_fract_z
 _atom_site_occupancy
 _atom_site_pbe_bader_charge
 _atom_site_pbe_bader_spin_density
 _atom_site_pbe_cm5_charge
 _atom_site_pbe_ddec_charge
 _atom_site_pbe_ddec_spin_density
 _atom_site_pbe_ddec_sum_bond_order
 _atom_site_pbe_magmom
Zn  Zn0  1  0.47754512  0.37693436  0.67957782  1  1.258776  0  0.722838  0.756444  0  2.464429  0
Zn  Zn1  1  0.79803960  0.32039545  0.69709742  1  1.258897  0  0.722571  0.755562  0  2.463892  0
Zn  Zn2  1  0.10070662  0.30269548  0.62316641  1  1.260731  0  0.721745  0.754728  0  2.464628  0
Zn  Zn3  1  0.30645738  0.69617563  0.31566781  1  1.256636  0  0.72288  0.753032  0  2.475302  0
Zn  Zn4  1  0.99078630  0.68430491  0.38054144  1  1.257772  0  0.723308  0.754315  0  2.47406  0
Zn  Zn5  1  0.61005511  0.61931384  0.30360696  1  1.260353  0  0.723429  0.752974  0  2.476246  0
H  H6  1  0.11821359  0.18153872  0.33356462  1  0.089266  0  0.117548  0.081054  0  0.989882  0
H  H7  1  0.78499877  0.66660385  0.84840842  1  0.092998  0  0.116754  0.080671  0  0.988629  0
H  H8  1  0.93681278  0.15175552  0.81824671  1  0.109792  0  0.115958  0.079553  0  0.990934  0
H  H9  1  0.39138464  0.30779216  0.34274315  1  0.500452  0  0.306769  0.278767  0  0.982754  0
H  H10  1  0.04866585  0.65708034  0.96528888  1  0.490972  0  0.308387  0.280024  0  0.9809  0
H  H11  1  0.08354258  0.03465869  0.69200088  1  0.493938  0  0.307662  0.27934  0  0.981717  0
H  H12  1  0.26383923  0.08707165  0.25336209  1  0.012105  0  0.092548  0.133949  0  1.001781  0
H  H13  1  0.01093177  0.74713008  0.83448853  1  0.074746  0  0.092257  0.13354  0  1.001481  0
H  H14  1  0.17695809  0.16588912  0.91253566  1  0.04905  0  0.092587  0.13409  0  1.001593  0
H  H15  1  0.26938308  0.08270061  0.36433464  1  0.038905  0  0.091949  0.130986  0  1.025737  0
H  H16  1  0.90561525  0.63618663  0.71901482  1  0.053151  0  0.09211  0.130979  0  1.026522  0
H  H17  1  0.18685795  0.28131485  0.91699034  1  0.052569  0  0.092104  0.131185  0  1.026288  0
H  H18  1  0.42106120  0.16458292  0.36364726  1  0.035269  0  0.092095  0.12867  0  1.014932  0
H  H19  1  0.05795851  0.63684181  0.80149985  1  0.034881  0  0.092188  0.129388  0  1.015241  0
H  H20  1  0.25661215  0.19880693  0.83510485  1  0.030431  0  0.091654  0.128953  0  1.015561  0
H  H21  1  0.49567921  0.42569600  0.31382869  1  0.216815  0  0.121612  0.120549  0  1.072677  0
H  H22  1  0.18174382  0.68578378  0.11181490  1  0.211467  0  0.120105  0.118855  0  1.073252  0
H  H23  1  0.06979711  0.88802213  0.57391129  1  0.216382  0  0.121137  0.120073  0  1.073499  0
H  H24  1  0.11100928  0.50594682  0.31674412  1  0.144875  0  0.117044  0.110672  0  1.044389  0
H  H25  1  0.79447210  0.68351139  0.18942461  1  0.157312  0  0.118196  0.11291  0  1.04295  0
H  H26  1  0.60480264  0.81036052  0.49396592  1  0.152385  0  0.117252  0.111506  0  1.044577  0
H  H27  1  0.67224856  0.81259392  0.17973548  1  0.058483  0  0.124212  0.091706  0  0.944959  0
H  H28  1  0.49274759  0.82027939  0.63271713  1  0.082832  0  0.125404  0.092322  0  0.944562  0
H  H29  1  0.85945814  0.36718096  0.18734387  1  0.099188  0  0.124623  0.092343  0  0.946354  0
H  H30  1  0.58564458  0.68528628  0.02812451  1  0.505557  0  0.305039  0.278399  0  1.009857  0
H  H31  1  0.55781097  0.97197426  0.65710858  1  0.515076  0  0.303477  0.276729  0  1.012333  0
H  H32  1  0.90048715  0.34294856  0.31473975  1  0.527503  0  0.302475  0.274869  0  1.013558  0
H  H33  1  0.53328419  0.90858596  0.13408072  1  0.049562  0  0.085766  0.124512  0  1.031456  0
H  H34  1  0.40004367  0.86605365  0.77460679  1  0.029029  0  0.085768  0.125031  0  1.031665  0
H  H35  1  0.62445900  0.22521138  0.09157614  1  0.057967  0  0.085208  0.123666  0  1.033979  0
H  H36  1  0.56413781  0.93316896  0.25847993  1  0.071238  0  0.091278  0.134732  0  1.007759  0
H  H37  1  0.30626334  0.74153025  0.67481200  1  0.06218  0  0.091985  0.135425  0  1.006551  0
H  H38  1  0.63040224  0.32487152  0.06669678  1  0.068657  0  0.091377  0.134768  0  1.007837  0
H  H39  1  0.38934890  0.85559932  0.16575836  1  0.083642  0  0.08618  0.124342  0  1.043528  0
H  H40  1  0.22420623  0.83426600  0.69020156  1  0.069813  0  0.085023  0.122785  0  1.045928  0
H  H41  1  0.53348319  0.30983810  0.14441412  1  0.079206  0  0.086298  0.124726  0  1.044174  0
H  H42  1  0.56516046  0.57832588  0.87765900  1  0.181601  0  0.119618  0.112488  0  1.06546  0
H  H43  1  0.68740109  0.12237851  0.70037251  1  0.173262  0  0.119956  0.113301  0  1.064525  0
H  H44  1  0.98697510  0.29926308  0.42175430  1  0.173824  0  0.12029  0.113224  0  1.065495  0
H  H45  1  0.10470789  0.49242659  0.82275537  1  0.151616  0  0.117196  0.111326  0  1.047984  0
H  H46  1  0.28203487  0.17747710  0.66979960  1  0.138826  0  0.11769  0.112897  0  1.046015  0
H  H47  1  0.61238456  0.33026773  0.50750381  1  0.148855  0  0.117839  0.111954  0  1.046493  0
C  C48  1  0.27348978  0.26769518  0.48174751  1  1.567189  0  0.233687  0.598786  0  4.078301  0
C  C49  1  0.79195846  0.51837351  0.78607872  1  1.588097  0  0.2328  0.595685  0  4.085022  0
C  C50  1  0.00576143  0.21372365  0.73202029  1  1.586053  0  0.231815  0.595582  0  4.088866  0
C  C51  1  0.23616648  0.21462310  0.36740004  1  0.383766  0  0.011632  0.068859  0  3.885946  0
C  C52  1  0.86908809  0.63277950  0.84759637  1  0.360994  0  0.012663  0.068881  0  3.884074  0
C  C53  1  0.02161292  0.15247013  0.78513577  1  0.34087  0  0.014502  0.072529  0  3.88406  0
C  C54  1  0.30261578  0.13253214  0.33537379  1  -0.003009  0  -0.239058  -0.401533  0  3.895926  0
C  C55  1  0.96774326  0.66505877  0.79777198  1  -0.077547  0  -0.23951  -0.401774  0  3.895237  0
C  C56  1  0.17023131  0.20252018  0.86713894  1  -0.05568  0  -0.239709  -0.403148  0  3.895713  0
C  C57  1  0.20367546  0.34152610  0.32419605  1  1.397222  0  0.238166  0.502764  0  4.161442  0
C  C58  1  0.87959934  0.67584252  0.01759125  1  1.365301  0  0.236193  0.500659  0  4.16461  0
C  C59  1  0.86203108  0.98238292  0.65821521  1  1.384999  0  0.239294  0.503353  0  4.159795  0
C  C60  1  0.27332700  0.42756324  0.31577913  1  0.012807  0  -0.041215  -0.144837  0  4.063132  0
C  C61  1  0.95768793  0.68426008  0.11199025  1  -0.002943  0  -0.042049  -0.145473  0  4.063696  0
C  C62  1  0.84557047  0.88794333  0.57218330  1  -0.024245  0  -0.042236  -0.145504  0  4.063404  0
C  C63  1  0.41319180  0.46014706  0.31474590  1  0.37433  0  0.014916  -0.021189  0  3.958432  0
C  C64  1  0.09845604  0.68505624  0.14545827  1  0.370269  0  0.017  -0.017346  0  3.955291  0
C  C65  1  0.95283441  0.85445804  0.53950246  1  0.383016  0  0.01698  -0.017649  0  3.957373  0
C  C66  1  0.21554487  0.50050444  0.31414176  1  0.385192  0  0.022607  0.004379  0  3.933599  0
C  C67  1  0.90158387  0.68599525  0.18658241  1  0.436703  0  0.021051  0.001365  0  3.936408  0
C  C68  1  0.71479013  0.81330254  0.49928746  1  0.467543  0  0.020509  0.001359  0  3.938109  0
C  C69  1  0.51850126  0.73227093  0.21444960  1  1.572754  0  0.234261  0.592955  0  4.067796  0
C  C70  1  0.30397180  0.78549685  0.51792140  1  1.577825  0  0.235162  0.593288  0  4.067285  0
C  C71  1  0.78593366  0.48205979  0.26764620  1  1.572679  0  0.237351  0.597377  0  4.063425  0
C  C72  1  0.55355846  0.78577051  0.15565245  1  0.380315  0  0.020348  0.083883  0  3.852948  0
C  C73  1  0.39818429  0.84437764  0.63014980  1  0.353877  0  0.017507  0.082251  0  3.854305  0
C  C74  1  0.76759923  0.36976058  0.21415734  1  0.339543  0  0.018688  0.082772  0  3.854903  0
C  C75  1  0.50533209  0.87592844  0.17951754  1  -0.101192  0  -0.256545  -0.425755  0  3.942475  0
C  C76  1  0.32642439  0.82053187  0.69657767  1  -0.065536  0  -0.255733  -0.425529  0  3.945268  0
C  C77  1  0.62911509  0.30330898  0.12406599  1  -0.111298  0  -0.255943  -0.425961  0  3.946119  0
C  C78  1  0.36737044  0.65953972  0.98631104  1  1.389387  0  0.236569  0.50352  0  4.159662  0
C  C79  1  0.38123229  0.01368382  0.67330461  1  1.383397  0  0.233472  0.499279  0  4.163823  0
C  C80  1  0.70789705  0.32666840  0.34039521  1  1.37248  0  0.235548  0.500581  0  4.163881  0
C  C81  1  0.34526906  0.57376389  0.88936370  1  0.03825  0  -0.045519  -0.158259  0  4.063148  0
C  C82  1  0.45584915  0.11067603  0.68433665  1  0.002984  0  -0.044772  -0.155365  0  4.06469  0
C  C83  1  0.77165162  0.31561282  0.42623565  1  0.010549  0  -0.044475  -0.155716  0  4.062542  0
C  C84  1  0.44842368  0.54308220  0.84854328  1  0.377212  0  0.020257  -0.001258  0  3.952816  0
C  C85  1  0.59979656  0.15148425  0.69431780  1  0.395774  0  0.018362  -0.004696  0  3.957087  0
C  C86  1  0.90548526  0.30545233  0.45695584  1  0.422512  0  0.01917  -0.00175  0  3.953305  0
C  C87  1  0.21245683  0.49921976  0.81953162  1  0.405391  0  0.021819  0.006219  0  3.939985  0
C  C88  1  0.39293163  0.18054935  0.67969952  1  0.456592  0  0.020715  0.004522  0  3.938796  0
C  C89  1  0.71335453  0.32030594  0.50071443  1  0.410223  0  0.021192  0.004579  0  3.93777  0
C  C90  1  0.27336178  0.00658996  0.87388080  1  2.13411  0  0.359193  0.702825  0  4.174906  0
C  C91  1  0.39880793  0.12564601  0.13244675  1  2.127587  0  0.360903  0.704706  0  4.173016  0
C  C92  1  0.26747038  0.86704047  0.99299037  1  2.111267  0  0.354562  0.696397  0  4.179317  0
C  C93  1  0.44834577  0.43679260  0.03849747  1  2.121113  0  0.364068  0.724221  0  4.128818  0
C  C94  1  0.41084563  0.96163550  0.39893144  1  2.14967  0  0.364302  0.719907  0  4.126997  0
C  C95  1  0.01019047  0.60206579  0.56323029  1  2.089074  0  0.36591  0.725183  0  4.123943  0
C  C96  1  0.71682529  0.06136422  0.88637104  1  2.122262  0  0.365115  0.7268  0  4.132355  0
C  C97  1  0.82952359  0.11449087  0.17406403  1  2.135159  0  0.363121  0.723709  0  4.137391  0
C  C98  1  0.65490479  0.82644493  0.93957817  1  2.158327  0  0.363321  0.723628  0  4.133611  0
C  C99  1  0.55590850  0.58178779  0.56313202  1  2.120465  0  0.366413  0.713871  0  4.11733  0
C  C100  1  0.99293720  0.43658636  0.01900139  1  2.113051  0  0.367694  0.714535  0  4.117007  0
C  C101  1  0.97373171  0.98133796  0.41809770  1  2.125258  0  0.367436  0.714561  0  4.116124  0
N  N102  1  0.28517491  0.28690689  0.33706151  1  -1.225524  0  -0.418116  -0.379442  0  3.521155  0
N  N103  1  0.94826122  0.66293594  0.95014431  1  -1.212094  0  -0.419582  -0.379969  0  3.521131  0
N  N104  1  0.99823004  0.04981497  0.71289741  1  -1.205937  0  -0.419682  -0.381331  0  3.520461  0
N  N105  1  0.43614490  0.54601487  0.31299300  1  -0.792782  0  -0.284306  -0.193677  0  3.653224  0
N  N106  1  0.12314579  0.68678120  0.23302599  1  -0.793161  0  -0.283856  -0.195615  0  3.653769  0
N  N107  1  0.88988605  0.76687744  0.45361664  1  -0.828842  0  -0.286021  -0.198215  0  3.653882  0
N  N108  1  0.31466377  0.57113883  0.31232863  1  -0.799294  0  -0.280644  -0.205981  0  3.629063  0
N  N109  1  0.00241959  0.68765046  0.25891583  1  -0.81045  0  -0.279733  -0.204042  0  3.628553  0
N  N110  1  0.74325216  0.74097009  0.42859435  1  -0.814948  0  -0.278019  -0.20221  0  3.627108  0
N  N111  1  0.50640172  0.71075856  0.04938944  1  -1.218667  0  -0.41977  -0.392451  0  3.510735  0
N  N112  1  0.45730386  0.95068389  0.66136476  1  -1.222855  0  -0.417393  -0.389752  0  3.511097  0
N  N113  1  0.79565855  0.33851662  0.28916271  1  -1.222067  0  -0.416293  -0.388531  0  3.512456  0
N  N114  1  0.38156976  0.45709177  0.76128394  1  -0.807242  0  -0.281959  -0.191772  0  3.625346  0
N  N115  1  0.62025724  0.23874352  0.69557093  1  -0.8183  0  -0.280279  -0.188533  0  3.624466  0
N  N116  1  0.92459113  0.30417056  0.54290406  1  -0.805828  0  -0.283129  -0.193955  0  3.62729  0
N  N117  1  0.23582547  0.42941413  0.74305550  1  -0.801235  0  -0.279006  -0.203768  0  3.61118  0
N  N118  1  0.49280673  0.25700539  0.68626838  1  -0.798519  0  -0.278636  -0.205973  0  3.612188  0
N  N119  1  0.80651860  0.31361887  0.57051000  1  -0.80729  0  -0.277541  -0.201659  0  3.611158  0
O  O120  1  0.39837950  0.33457184  0.53502568  1  -1.182052  0  -0.311973  -0.519917  0  2.352519  0
O  O121  1  0.86353517  0.46499846  0.79938608  1  -1.180045  0  -0.312317  -0.519232  0  2.354893  0
O  O122  1  0.06393927  0.20025194  0.66528813  1  -1.179699  0  -0.311084  -0.518619  0  2.355604  0
O  O123  1  0.17926438  0.23933119  0.51487541  1  -1.199439  0  -0.317661  -0.537978  0  2.370119  0
O  O124  1  0.66451762  0.48532393  0.72471747  1  -1.202622  0  -0.317009  -0.536562  0  2.374038  0
O  O125  1  0.93965798  0.27507498  0.76019617  1  -1.203957  0  -0.317288  -0.537381  0  2.3764  0
O  O126  1  0.07550226  0.32034496  0.32189894  1  -1.185314  0  -0.306979  -0.528369  0  2.207374  0
O  O127  1  0.75376317  0.67819260  0.99875389  1  -1.18609  0  -0.306055  -0.52743  0  2.206391  0
O  O128  1  0.75506306  0.00132233  0.67934938  1  -1.185565  0  -0.308995  -0.530085  0  2.205995  0
O  O129  1  0.44675291  0.76171606  0.27140438  1  -1.187781  0  -0.306345  -0.513601  0  2.376585  0
O  O130  1  0.17511584  0.72875516  0.49060232  1  -1.190163  0  -0.306324  -0.513319  0  2.37474  0
O  O131  1  0.68464459  0.50948903  0.23816935  1  -1.187608  0  -0.308044  -0.515657  0  2.374266  0
O  O132  1  0.56856124  0.66163481  0.20185300  1  -1.187124  0  -0.316287  -0.540193  0  2.393303  0
O  O133  1  0.36652852  0.79787062  0.45976597  1  -1.182739  0  -0.316266  -0.54013  0  2.393931  0
O  O134  1  0.90662441  0.54016938  0.33829766  1  -1.184605  0  -0.317327  -0.542006  0  2.391117  0
O  O135  1  0.26288810  0.68209537  0.00861330  1  -1.18509  0  -0.309744  -0.525805  0  2.196663  0
O  O136  1  0.25452778  0.99122100  0.67371432  1  -1.183903  0  -0.307637  -0.523119  0  2.196884  0
O  O137  1  0.58079730  0.32631440  0.31777613  1  -1.185148  0  -0.309733  -0.524565  0  2.197662  0
O  O138  1  0.39472392  0.05821564  0.90389787  1  -1.083771  0  -0.17519  -0.353982  0  2.200289  0
O  O139  1  0.49029679  0.09574775  0.15399576  1  -1.078174  0  -0.176587  -0.355099  0  2.199348  0
O  O140  1  0.33740892  0.84558143  0.94154424  1  -1.066293  0  -0.172634  -0.351108  0  2.201647  0
O  O141  1  0.15252237  0.95556580  0.84681433  1  -1.071104  0  -0.176038  -0.34943  0  2.172628  0
O  O142  1  0.30493135  0.15263129  0.10857640  1  -1.069685  0  -0.176113  -0.349926  0  2.172883  0
O  O143  1  0.19744105  0.89083408  0.04382677  1  -1.064905  0  -0.173695  -0.345933  0  2.17608  0
O  O144  1  0.52544560  0.44216470  0.99340860  1  -1.062735  0  -0.178053  -0.34953  0  2.155957  0
O  O145  1  0.53308625  0.00675144  0.44936212  1  -1.079243  0  -0.177704  -0.347241  0  2.155507  0
O  O146  1  0.08149869  0.55133552  0.55790100  1  -1.051537  0  -0.177299  -0.348828  0  2.155556  0
O  O147  1  0.36938036  0.42986090  0.08204871  1  -1.07688  0  -0.176484  -0.355768  0  2.217094  0
O  O148  1  0.28827354  0.91804564  0.34847626  1  -1.089426  0  -0.176934  -0.353651  0  2.215867  0
O  O149  1  0.93857345  0.65281992  0.57011330  1  -1.055708  0  -0.179086  -0.357561  0  2.213479  0
O  O150  1  0.74613708  0.14537597  0.90555493  1  -1.06475  0  -0.174937  -0.348378  0  2.170012  0
O  O151  1  0.83889787  0.09499097  0.23861104  1  -1.07333  0  -0.17407  -0.346254  0  2.170568  0
O  O152  1  0.60074099  0.76150045  0.85563782  1  -1.080515  0  -0.174231  -0.346587  0  2.168423  0
O  O153  1  0.68801166  0.97750783  0.86777609  1  -1.070149  0  -0.182104  -0.366447  0  2.201128  0
O  O154  1  0.82002184  0.13336665  0.10904654  1  -1.075172  0  -0.181297  -0.365909  0  2.205433  0
O  O155  1  0.70941138  0.89181346  0.02337387  1  -1.090443  0  -0.180903  -0.36516  0  2.203179  0
O  O156  1  0.63494923  0.53670924  0.54771239  1  -1.054809  0  -0.170946  -0.344328  0  2.219191  0
O  O157  1  0.08675844  0.45178342  0.98873831  1  -1.059597  0  -0.172131  -0.343589  0  2.216224  0
O  O158  1  0.09779186  0.01066441  0.46326484  1  -1.081532  0  -0.170764  -0.343727  0  2.216153  0
O  O159  1  0.47729459  0.62740894  0.57860725  1  -1.080383  0  -0.173873  -0.345192  0  2.162033  0
O  O160  1  0.89948718  0.42133697  0.04974337  1  -1.067932  0  -0.173697  -0.346446  0  2.165716  0
O  O161  1  0.84956225  0.95151472  0.37237566  1  -1.058779  0  -0.175096  -0.346427  0  2.163497  0
