# generated using pymatgen
data_Zn3H26C24(NO4)4
_symmetry_space_group_name_H-M   'P 1'
_cell_length_a   14.14126670
_cell_length_b   14.69634738
_cell_length_c   14.69515253
_cell_angle_alpha   110.21103517
_cell_angle_beta   108.72075903
_cell_angle_gamma   108.70638653
_symmetry_Int_Tables_number   1
_chemical_formula_structural   Zn3H26C24(NO4)4
_chemical_formula_sum   'Zn9 H78 C72 N12 O48'
_cell_volume   2372.81047358
_cell_formula_units_Z   3
loop_
 _symmetry_equiv_pos_site_id
 _symmetry_equiv_pos_as_xyz
  1  'x, y, z'
loop_
 _atom_site_type_symbol
 _atom_site_label
 _atom_site_symmetry_multiplicity
 _atom_site_fract_x
 _atom_site_fract_y
 _atom_site_fract_z
 _atom_site_occupancy
 _atom_site_pbe_bader_charge
 _atom_site_pbe_bader_spin_density
 _atom_site_pbe_cm5_charge
 _atom_site_pbe_ddec_charge
 _atom_site_pbe_ddec_spin_density
 _atom_site_pbe_ddec_sum_bond_order
 _atom_site_pbe_magmom
Zn  Zn0  1  0.25998544  0.74902054  0.46818223  1  1.319475  0  0.677802  0.859976  0  2.299256  0
Zn  Zn1  1  0.79189337  0.53190147  0.28079899  1  1.320088  0  0.677959  0.859878  0  2.299015  0
Zn  Zn2  1  0.51102035  0.71919839  0.25111892  1  1.32105  0  0.677797  0.86032  0  2.298749  0
Zn  Zn3  1  0.74001223  0.25097883  0.53181502  1  1.319486  0  0.677809  0.860044  0  2.299222  0
Zn  Zn4  1  0.20810580  0.46809790  0.71919940  1  1.320082  0  0.67795  0.859886  0  2.299036  0
Zn  Zn5  1  0.48897683  0.28079849  0.74887868  1  1.321153  0  0.677779  0.860272  0  2.298734  0
Zn  Zn6  1  0.99999823  0.00000011  0.50000026  1  1.412997  0  0.690966  1.030869  0  2.258399  0
Zn  Zn7  1  0.50000182  0.50000342  0.50000117  1  1.41381  0  0.691003  1.031606  0  2.257012  0
Zn  Zn8  1  0.00000106  0.50000080  0.00000028  1  1.41315  0  0.690836  1.031249  0  2.258408  0
H  H9  1  0.60635075  0.13930649  0.85382550  1  0.083009  0  0.105493  0.123633  0  1.020875  0
H  H10  1  0.75250188  0.14615465  0.28545357  1  0.095436  0  0.105556  0.123331  0  1.021885  0
H  H11  1  0.46707799  0.71445462  0.86062838  1  0.075895  0  0.10559  0.123559  0  1.021498  0
H  H12  1  0.39364644  0.86069040  0.14617415  1  0.083042  0  0.105515  0.123666  0  1.020843  0
H  H13  1  0.24749563  0.85384887  0.71454576  1  0.095423  0  0.10556  0.123307  0  1.021819  0
H  H14  1  0.53292019  0.28553977  0.13936866  1  0.075889  0  0.105586  0.123556  0  1.021519  0
H  H15  1  0.84744004  0.05038308  0.78221158  1  0.076269  0  0.114322  0.133427  0  0.974393  0
H  H16  1  0.06530572  0.21768258  0.26828310  1  0.071755  0  0.114352  0.133254  0  0.974646  0
H  H17  1  0.79716051  0.73171205  0.94980256  1  0.095234  0  0.114383  0.133534  0  0.973985  0
H  H18  1  0.15256038  0.94961878  0.21778873  1  0.076262  0  0.114322  0.133445  0  0.974385  0
H  H19  1  0.93468983  0.78231845  0.73171953  1  0.07165  0  0.114295  0.133169  0  0.974646  0
H  H20  1  0.20284125  0.26828650  0.05020042  1  0.095244  0  0.114385  0.133548  0  0.973987  0
H  H21  1  0.69963452  0.92879233  0.58090493  1  0.127449  0  0.106031  0.118754  0  1.008773  0
H  H22  1  0.11892956  0.41898636  0.34807354  1  0.14438  0  0.106135  0.119091  0  1.009408  0
H  H23  1  0.77090639  0.65214902  0.07149745  1  0.117235  0  0.106173  0.119386  0  1.008597  0
H  H24  1  0.30036664  0.07120953  0.41909561  1  0.127456  0  0.106003  0.118719  0  1.008771  0
H  H25  1  0.88106739  0.58101301  0.65192758  1  0.144543  0  0.106152  0.119131  0  1.00935  0
H  H26  1  0.22909579  0.34785035  0.92850594  1  0.117481  0  0.10619  0.11938  0  1.008669  0
H  H27  1  0.50851153  0.91604490  0.51816351  1  0.097864  0  0.104808  0.115589  0  1.018031  0
H  H28  1  0.99055612  0.48176496  0.39794471  1  0.104663  0  0.104856  0.115668  0  1.01815  0
H  H29  1  0.59250265  0.60226227  0.08417637  1  0.095942  0  0.104747  0.115248  0  1.01827  0
H  H30  1  0.49148912  0.08395448  0.48183465  1  0.097882  0  0.104796  0.115583  0  1.018064  0
H  H31  1  0.00944199  0.51823524  0.60205773  1  0.104698  0  0.104875  0.115699  0  1.018124  0
H  H32  1  0.40749627  0.39773213  0.91581953  1  0.096008  0  0.104707  0.115233  0  1.018259  0
H  H33  1  0.87381585  0.24640040  0.10219485  1  0.104137  0  0.106488  0.123503  0  1.000303  0
H  H34  1  0.77159151  0.89780533  0.14414005  1  0.085747  0  0.106673  0.124049  0  0.999825  0
H  H35  1  0.62769401  0.85571347  0.75364610  1  0.104873  0  0.106586  0.123853  0  1.000238  0
H  H36  1  0.12618490  0.75360064  0.89780460  1  0.104128  0  0.106482  0.123486  0  1.000326  0
H  H37  1  0.22840213  0.10219487  0.85586103  1  0.085721  0  0.106692  0.124055  0  0.999783  0
H  H38  1  0.37230393  0.14428342  0.24635378  1  0.104614  0  0.106586  0.123838  0  1.000222  0
H  H39  1  0.73787378  0.12152147  0.02006630  1  0.024259  0  0.091871  0.086264  0  1.006935  0
H  H40  1  0.71789585  0.98000338  0.10138849  1  0.061267  0  0.092002  0.086448  0  1.007305  0
H  H41  1  0.61669025  0.89850067  0.87854575  1  0.029403  0  0.091954  0.086304  0  1.007886  0
H  H42  1  0.26212664  0.87848040  0.97993470  1  0.024273  0  0.091891  0.086315  0  1.006958  0
H  H43  1  0.28210013  0.01999848  0.89861660  1  0.061225  0  0.092004  0.086451  0  1.007218  0
H  H44  1  0.38330985  0.10149456  0.12145420  1  0.029271  0  0.091926  0.086266  0  1.007909  0
H  H45  1  0.75019923  0.24646601  0.01822974  1  0.041312  0  0.093668  0.09371  0  1.039727  0
H  H46  1  0.73183354  0.98165675  0.22810443  1  0.040811  0  0.093772  0.093831  0  1.039479  0
H  H47  1  0.50391274  0.77182020  0.75352180  1  0.076446  0  0.093556  0.093566  0  1.039517  0
H  H48  1  0.24980078  0.75353502  0.98177016  1  0.041324  0  0.09367  0.093678  0  1.039754  0
H  H49  1  0.26816135  0.01834594  0.77189926  1  0.040922  0  0.093773  0.093839  0  1.039593  0
H  H50  1  0.49608571  0.22817918  0.24648045  1  0.076499  0  0.093538  0.093493  0  1.039528  0
H  H51  1  0.29150905  0.85816488  0.35192527  1  0.625939  0  0.289924  0.358849  0  0.977196  0
H  H52  1  0.93951446  0.64811444  0.50621257  1  0.588559  0  0.289937  0.35863  0  0.977699  0
H  H53  1  0.43323116  0.49382821  0.14186650  1  0.5703  0  0.289888  0.35887  0  0.976949  0
H  H54  1  0.70848821  0.14183366  0.64807225  1  0.625937  0  0.28989  0.358809  0  0.977195  0
H  H55  1  0.06048397  0.35188493  0.49378695  1  0.588555  0  0.289911  0.358562  0  0.977684  0
H  H56  1  0.56676793  0.50616950  0.85813265  1  0.570317  0  0.289811  0.35877  0  0.977029  0
H  H57  1  0.29477430  0.74565903  0.29903602  1  0.6499  0  0.291682  0.378567  0  0.972008  0
H  H58  1  0.99571498  0.70102702  0.44661687  1  0.642085  0  0.291039  0.376527  0  0.974666  0
H  H59  1  0.54902168  0.55336443  0.25434303  1  0.653507  0  0.291605  0.377955  0  0.972901  0
H  H60  1  0.70522529  0.25434117  0.70096347  1  0.649823  0  0.291637  0.378504  0  0.972086  0
H  H61  1  0.00428420  0.29897235  0.55338357  1  0.642082  0  0.29101  0.376473  0  0.974744  0
H  H62  1  0.45097757  0.44663660  0.74565665  1  0.653505  0  0.291593  0.377916  0  0.972954  0
H  H63  1  0.15979516  0.56826195  0.26178761  1  0.634055  0  0.301547  0.392497  0  0.920092  0
H  H64  1  0.89807843  0.73834668  0.30656954  1  0.624529  0  0.301639  0.392924  0  0.920066  0
H  H65  1  0.59155640  0.69327831  0.43174645  1  0.631099  0  0.301633  0.393122  0  0.919943  0
H  H66  1  0.84020707  0.43173908  0.73821161  1  0.634086  0  0.301545  0.392497  0  0.920092  0
H  H67  1  0.10192149  0.26165269  0.69343044  1  0.624524  0  0.30165  0.39294  0  0.920023  0
H  H68  1  0.40844460  0.30672024  0.56825289  1  0.631116  0  0.301603  0.393105  0  0.91998  0
H  H69  1  0.06835275  0.56200527  0.30027199  1  0.63058  0  0.293315  0.381694  0  0.957798  0
H  H70  1  0.76811287  0.69976830  0.26172600  1  0.647157  0  0.292829  0.380704  0  0.959303  0
H  H71  1  0.50653556  0.73823148  0.43814885  1  0.651364  0  0.292775  0.381047  0  0.958902  0
H  H72  1  0.93164708  0.43799244  0.69972602  1  0.630353  0  0.293317  0.38168  0  0.957812  0
H  H73  1  0.23188729  0.30022858  0.73827183  1  0.647126  0  0.292792  0.380624  0  0.959416  0
H  H74  1  0.49346585  0.26176789  0.56185022  1  0.651377  0  0.292742  0.381001  0  0.958973  0
H  H75  1  0.92163755  0.81978034  0.52366099  1  0.633496  0  0.299669  0.394436  0  0.922473  0
H  H76  1  0.39790557  0.47629569  0.29606450  1  0.6259  0  0.299531  0.394178  0  0.923027  0
H  H77  1  0.10217521  0.70407504  0.18034694  1  0.644492  0  0.299327  0.394276  0  0.922903  0
H  H78  1  0.07836238  0.18021904  0.47633899  1  0.633511  0  0.299678  0.394472  0  0.922404  0
H  H79  1  0.60209582  0.52370368  0.70393321  1  0.625988  0  0.299513  0.394182  0  0.923061  0
H  H80  1  0.89782886  0.29592516  0.81965390  1  0.644512  0  0.299319  0.3943  0  0.922939  0
H  H81  1  0.99656096  0.92452094  0.64188286  1  0.638561  0  0.301477  0.377866  0  0.949501  0
H  H82  1  0.35469066  0.35808211  0.28256091  1  0.629312  0  0.301387  0.377701  0  0.94977  0
H  H83  1  0.07228929  0.71751578  0.07555333  1  0.62752  0  0.301312  0.377618  0  0.950101  0
H  H84  1  0.00343904  0.07548010  0.35811636  1  0.638546  0  0.301498  0.377917  0  0.949425  0
H  H85  1  0.64531085  0.64191892  0.71744286  1  0.629305  0  0.301411  0.377734  0  0.949724  0
H  H86  1  0.92771436  0.28248360  0.92444779  1  0.62754  0  0.301302  0.377599  0  0.950135  0
C  C87  1  0.12826664  0.86261685  0.47271897  1  1.558053  0  0.2167  0.578716  0  4.190392  0
C  C88  1  0.65559583  0.52723728  0.38978961  1  1.557106  0  0.217614  0.579614  0  4.187128  0
C  C89  1  0.26568326  0.61002091  0.13736212  1  1.577128  0  0.217098  0.578996  0  4.187541  0
C  C90  1  0.87173538  0.13737921  0.52728390  1  1.562334  0  0.2168  0.578845  0  4.190312  0
C  C91  1  0.34440731  0.47276707  0.61021104  1  1.556717  0  0.217635  0.579614  0  4.187168  0
C  C92  1  0.73431543  0.38997597  0.86263798  1  1.576865  0  0.217074  0.578961  0  4.187289  0
C  C93  1  0.24696688  0.95115409  0.55397037  1  0.38791  0  0.067707  -0.01575  0  4.023894  0
C  C94  1  0.69307872  0.44597326  0.39705311  1  0.419892  0  0.067347  -0.016373  0  4.024691  0
C  C95  1  0.29588986  0.60277830  0.04886598  1  0.375895  0  0.067109  -0.015997  0  4.024814  0
C  C96  1  0.75302964  0.04884445  0.44602760  1  0.383974  0  0.067697  -0.015735  0  4.023696  0
C  C97  1  0.30692071  0.55403108  0.60294845  1  0.419764  0  0.067312  -0.016447  0  4.024804  0
C  C98  1  0.70411032  0.39721858  0.95113457  1  0.376379  0  0.067128  -0.016001  0  4.024927  0
C  C99  1  0.29745365  0.06444151  0.62774395  1  0.436433  0  0.070292  -0.010613  0  4.039457  0
C  C100  1  0.66978360  0.37220352  0.43658102  1  0.408481  0  0.069983  -0.012098  0  4.042062  0
C  C101  1  0.23305422  0.56324833  0.93556115  1  0.455411  0  0.070436  -0.011915  0  4.041693  0
C  C102  1  0.70254396  0.93555621  0.37225611  1  0.436463  0  0.070238  -0.010678  0  4.039362  0
C  C103  1  0.33021625  0.62780166  0.56342300  1  0.40824  0  0.070003  -0.012075  0  4.042106  0
C  C104  1  0.76694505  0.43674524  0.06443797  1  0.454968  0  0.070417  -0.011948  0  4.041888  0
C  C105  1  0.25134760  0.13882430  0.66310963  1  1.590367  0  0.221791  0.583936  0  4.194516  0
C  C106  1  0.58832083  0.33688995  0.47564492  1  1.578077  0  0.221295  0.585141  0  4.193055  0
C  C107  1  0.11252157  0.52419249  0.86118654  1  1.569275  0  0.221821  0.585446  0  4.193435  0
C  C108  1  0.74864653  0.86117092  0.33688919  1  1.590349  0  0.221781  0.5839  0  4.194591  0
C  C109  1  0.41167345  0.66312353  0.52435690  1  1.578508  0  0.221269  0.585088  0  4.193031  0
C  C110  1  0.88747786  0.47580440  0.13881310  1  1.568835  0  0.221717  0.585237  0  4.193653  0
C  C111  1  0.43177183  0.01875742  0.64401934  1  0.980979  0  0.209337  0.310486  0  3.995106  0
C  C112  1  0.78780869  0.35593151  0.37462422  1  0.971892  0  0.208336  0.309415  0  3.994361  0
C  C113  1  0.41306086  0.62532606  0.98130604  1  0.996328  0  0.208412  0.308872  0  3.995096  0
C  C114  1  0.56822577  0.98124030  0.35597936  1  0.981217  0  0.209288  0.310481  0  3.995117  0
C  C115  1  0.21219157  0.64407450  0.62537885  1  0.971612  0  0.208298  0.309242  0  3.99465  0
C  C116  1  0.58693923  0.37466917  0.01869254  1  0.996157  0  0.208365  0.308746  0  3.995186  0
C  C117  1  0.54509170  0.02626893  0.68203202  1  -0.049142  0  -0.007365  0.041175  0  4.021667  0
C  C118  1  0.86313376  0.31792734  0.34421348  1  0.009206  0  -0.007021  0.042183  0  4.021208  0
C  C119  1  0.51886410  0.65580448  0.97379508  1  -0.035758  0  -0.007176  0.041866  0  4.020553  0
C  C120  1  0.45490639  0.97373128  0.31796565  1  -0.049122  0  -0.007337  0.041244  0  4.021712  0
C  C121  1  0.13686608  0.68207784  0.65578850  1  0.00912  0  -0.00701  0.042229  0  4.021128  0
C  C122  1  0.48113216  0.34418909  0.02619973  1  -0.035543  0  -0.007159  0.04192  0  4.020428  0
C  C123  1  0.62770950  0.09339699  0.79520137  1  -0.018701  0  -0.106939  -0.254146  0  3.955537  0
C  C124  1  0.83255300  0.20477320  0.29824786  1  -0.064027  0  -0.107215  -0.254135  0  3.956051  0
C  C125  1  0.53435865  0.70175534  0.90661524  1  -0.004374  0  -0.107114  -0.254001  0  3.954791  0
C  C126  1  0.37228859  0.90660321  0.20479698  1  -0.018569  0  -0.107001  -0.254251  0  3.955554  0
C  C127  1  0.16744303  0.79523032  0.70175443  1  -0.063997  0  -0.107184  -0.254009  0  3.95606  0
C  C128  1  0.46564071  0.29823989  0.09338449  1  -0.004593  0  -0.107042  -0.253974  0  3.954714  0
C  C129  1  0.73569079  0.10096064  0.82975834  1  0.377579  0  0.075812  0.235716  0  4.091413  0
C  C130  1  0.90597227  0.17019440  0.27127838  1  0.403391  0  0.075541  0.23558  0  4.092617  0
C  C131  1  0.63479514  0.72868673  0.89907539  1  0.374815  0  0.075314  0.233989  0  4.091487  0
C  C132  1  0.26430689  0.89903873  0.17024028  1  0.377507  0  0.075855  0.23576  0  4.091282  0
C  C133  1  0.09402328  0.82980664  0.72872357  1  0.400256  0  0.075391  0.235238  0  4.092836  0
C  C134  1  0.36520305  0.27130766  0.10092302  1  0.374875  0  0.075326  0.234017  0  4.091571  0
C  C135  1  0.76241918  0.04245459  0.75299851  1  0.062734  0  -0.099376  -0.206222  0  3.993026  0
C  C136  1  0.00951080  0.24691346  0.28955684  1  -0.021279  0  -0.099701  -0.205979  0  3.993713  0
C  C137  1  0.72005002  0.71048436  0.95770255  1  0.029755  0  -0.099504  -0.205191  0  3.993342  0
C  C138  1  0.23758123  0.95754727  0.24700113  1  0.06272  0  -0.099398  -0.206281  0  3.993069  0
C  C139  1  0.99048276  0.75308508  0.71044432  1  -0.018245  0  -0.099662  -0.205821  0  3.993467  0
C  C140  1  0.27995175  0.28951419  0.04230110  1  0.029833  0  -0.099553  -0.205282  0  3.993473  0
C  C141  1  0.68041597  0.97580669  0.64119823  1  -0.14917  0  -0.088764  -0.060153  0  4.009286  0
C  C142  1  0.03936506  0.35871310  0.33472551  1  -0.060759  0  -0.088388  -0.060643  0  4.01033  0
C  C143  1  0.70466506  0.66538010  0.02438138  1  -0.092872  0  -0.088946  -0.062407  0  4.008122  0
C  C144  1  0.31958395  0.02419268  0.35880038  1  -0.149182  0  -0.088739  -0.060111  0  4.009247  0
C  C145  1  0.96063264  0.64128628  0.66527720  1  -0.060823  0  -0.088381  -0.06064  0  4.010225  0
C  C146  1  0.29533246  0.33461596  0.97561740  1  -0.093064  0  -0.088953  -0.062389  0  4.008055  0
C  C147  1  0.57210672  0.96767573  0.60549966  1  -0.007433  0  -0.099023  -0.150324  0  3.979416  0
C  C148  1  0.96674180  0.39442325  0.36220324  1  -0.078028  0  -0.099356  -0.151021  0  3.978986  0
C  C149  1  0.60448091  0.63787387  0.03248223  1  -0.065997  0  -0.098843  -0.149091  0  3.974172  0
C  C150  1  0.42789477  0.03232530  0.39450001  1  -0.00766  0  -0.099045  -0.150361  0  3.979537  0
C  C151  1  0.03325557  0.60557695  0.63779898  1  -0.078022  0  -0.099393  -0.151125  0  3.978942  0
C  C152  1  0.39551893  0.36212384  0.96751783  1  -0.066218  0  -0.098784  -0.149042  0  3.974061  0
C  C153  1  0.79327293  0.19688663  0.02412265  1  0.391689  0  -0.141244  -0.162869  0  3.878365  0
C  C154  1  0.76909952  0.97585779  0.17270820  1  0.373633  0  -0.141809  -0.163684  0  3.879343  0
C  C155  1  0.59659367  0.82718615  0.80313431  1  0.351905  0  -0.141898  -0.164019  0  3.881295  0
C  C156  1  0.20672665  0.80311357  0.97587616  1  0.391656  0  -0.141257  -0.162875  0  3.878425  0
C  C157  1  0.23089603  0.02414324  0.82729376  1  0.373661  0  -0.141848  -0.16373  0  3.879391  0
C  C158  1  0.40340427  0.17281074  0.19686556  1  0.352189  0  -0.141828  -0.163872  0  3.881197  0
N  N159  1  0.33260048  0.92332077  0.56600079  1  -1.200598  0  -0.349099  -0.393236  0  3.47302  0
N  N160  1  0.76667282  0.43396203  0.35719360  1  -1.2091  0  -0.3484  -0.391947  0  3.473549  0
N  N161  1  0.40936544  0.64274266  0.07675487  1  -1.220419  0  -0.348526  -0.392323  0  3.47356  0
N  N162  1  0.66739489  0.07667694  0.43399859  1  -1.200602  0  -0.349101  -0.393303  0  3.472993  0
N  N163  1  0.23332884  0.56604232  0.64280864  1  -1.208926  0  -0.348339  -0.391829  0  3.473574  0
N  N164  1  0.59063473  0.35725422  0.92324500  1  -1.220234  0  -0.348517  -0.392276  0  3.473542  0
N  N165  1  0.41351863  0.10605277  0.68307606  1  -1.214931  0  -0.350652  -0.385626  0  3.443487  0
N  N166  1  0.73046969  0.31684393  0.42283965  1  -1.210243  0  -0.349482  -0.384138  0  3.442032  0
N  N167  1  0.30750015  0.57706970  0.89397037  1  -1.218831  0  -0.349928  -0.383916  0  3.442434  0
N  N168  1  0.58647746  0.89394494  0.31691946  1  -1.215256  0  -0.350589  -0.385598  0  3.443394  0
N  N169  1  0.26952941  0.68316125  0.57716347  1  -1.209861  0  -0.34943  -0.384023  0  3.442068  0
N  N170  1  0.69249936  0.42292884  0.10602919  1  -1.218373  0  -0.3499  -0.383788  0  3.442364  0
O  O171  1  0.11111995  0.76276209  0.44262460  1  -1.165483  0  -0.312518  -0.533898  0  2.33531  0
O  O172  1  0.66844225  0.55728751  0.31995129  1  -1.171354  0  -0.313119  -0.535064  0  2.333433  0
O  O173  1  0.34836227  0.67987024  0.23725939  1  -1.176105  0  -0.31263  -0.535414  0  2.333661  0
O  O174  1  0.88887815  0.23723811  0.55737580  1  -1.16539  0  -0.312607  -0.534037  0  2.334996  0
O  O175  1  0.33155899  0.44271601  0.68004781  1  -1.171248  0  -0.313089  -0.534986  0  2.333448  0
O  O176  1  0.65163955  0.32012996  0.76273942  1  -1.176155  0  -0.312618  -0.535397  0  2.333632  0
O  O177  1  0.04761538  0.88159239  0.43351942  1  -1.18742  0  -0.306157  -0.551966  0  2.337867  0
O  O178  1  0.61423389  0.56645205  0.44802823  1  -1.179773  0  -0.306531  -0.552455  0  2.335619  0
O  O179  1  0.16607639  0.55178318  0.11833828  1  -1.186661  0  -0.306648  -0.551808  0  2.33552  0
O  O180  1  0.95237817  0.11840615  0.56648038  1  -1.187701  0  -0.306165  -0.551913  0  2.338197  0
O  O181  1  0.38576933  0.43355396  0.55197234  1  -1.179434  0  -0.306571  -0.552476  0  2.335697  0
O  O182  1  0.83392586  0.44821785  0.88166435  1  -1.186816  0  -0.306659  -0.551799  0  2.33521  0
O  O183  1  0.14829505  0.10022954  0.64286295  1  -1.188674  0  -0.324959  -0.566491  0  2.369315  0
O  O184  1  0.50560163  0.35727606  0.45749526  1  -1.191809  0  -0.324609  -0.566926  0  2.368749  0
O  O185  1  0.04802979  0.54252056  0.89974066  1  -1.188663  0  -0.324732  -0.567326  0  2.371181  0
O  O186  1  0.85170338  0.89976983  0.35713658  1  -1.188566  0  -0.32493  -0.566453  0  2.369206  0
O  O187  1  0.49440548  0.64273326  0.54250628  1  -1.191715  0  -0.324713  -0.567093  0  2.368123  0
O  O188  1  0.95196964  0.45747633  0.10025830  1  -1.188311  0  -0.324698  -0.567251  0  2.371216  0
O  O189  1  0.32204908  0.24315040  0.72200756  1  -1.173382  0  -0.298915  -0.523252  0  2.322683  0
O  O190  1  0.60000192  0.27786280  0.52096679  1  -1.155551  0  -0.298858  -0.524132  0  2.322558  0
O  O191  1  0.07888515  0.47879411  0.75684500  1  -1.150726  0  -0.298969  -0.523335  0  2.321621  0
O  O192  1  0.67794751  0.75684981  0.27798898  1  -1.173459  0  -0.298927  -0.523257  0  2.322859  0
O  O193  1  0.39999728  0.72213657  0.47903569  1  -1.155809  0  -0.298814  -0.524036  0  2.32311  0
O  O194  1  0.92111393  0.52120361  0.24315278  1  -1.150716  0  -0.298919  -0.523222  0  2.321627  0
O  O195  1  0.82340990  0.16690974  0.93782708  1  -1.078659  0  -0.191759  -0.181976  0  2.564539  0
O  O196  1  0.88556845  0.06213843  0.22914699  1  -1.078102  0  -0.191371  -0.182025  0  2.565845  0
O  O197  1  0.65659066  0.77074275  0.83308435  1  -1.079209  0  -0.191229  -0.180825  0  2.566204  0
O  O198  1  0.17658703  0.83308963  0.06217132  1  -1.078629  0  -0.191754  -0.181961  0  2.564407  0
O  O199  1  0.11442561  0.93786260  0.77085519  1  -1.078158  0  -0.191294  -0.181844  0  2.565928  0
O  O200  1  0.34340720  0.22925247  0.16691492  1  -1.079194  0  -0.1913  -0.180881  0  2.566191  0
O  O201  1  0.25035558  0.77888653  0.32619241  1  -1.273166  0  -0.567262  -0.746577  0  2.17758  0
O  O202  1  0.92410790  0.67384839  0.45264554  1  -1.228143  0  -0.566856  -0.744918  0  2.178385  0
O  O203  1  0.47138259  0.54734012  0.22116150  1  -1.222354  0  -0.567219  -0.746355  0  2.178192  0
O  O204  1  0.74964166  0.22111202  0.67380238  1  -1.273118  0  -0.567191  -0.746502  0  2.177665  0
O  O205  1  0.07588979  0.32615098  0.54735513  1  -1.228166  0  -0.566808  -0.744811  0  2.178387  0
O  O206  1  0.52861542  0.45265842  0.77883625  1  -1.222413  0  -0.567136  -0.746234  0  2.178246  0
O  O207  1  0.15038855  0.58204368  0.32806529  1  -1.234173  0  -0.571375  -0.724489  0  2.136451  0
O  O208  1  0.82241304  0.67204876  0.25400580  1  -1.240144  0  -0.570934  -0.724057  0  2.137645  0
O  O209  1  0.56850814  0.74590820  0.41809481  1  -1.250408  0  -0.571001  -0.724346  0  2.137236  0
O  O210  1  0.84961137  0.41795569  0.67193332  1  -1.23398  0  -0.571378  -0.724472  0  2.136461  0
O  O211  1  0.17758838  0.32795061  0.74599463  1  -1.240074  0  -0.570892  -0.723994  0  2.137651  0
O  O212  1  0.43149393  0.25408951  0.58190389  1  -1.250429  0  -0.570961  -0.724328  0  2.137288  0
O  O213  1  0.93533937  0.89549883  0.56717140  1  -1.238704  0  -0.569437  -0.735536  0  2.056799  0
O  O214  1  0.36813601  0.43274874  0.32827096  1  -1.22145  0  -0.569208  -0.735076  0  2.057484  0
O  O215  1  0.04014246  0.67184960  0.10460317  1  -1.238551  0  -0.569283  -0.735468  0  2.056748  0
O  O216  1  0.06465707  0.10449805  0.43282734  1  -1.238691  0  -0.569448  -0.735607  0  2.056685  0
O  O217  1  0.63186748  0.56725478  0.67173086  1  -1.221539  0  -0.569211  -0.735118  0  2.057518  0
O  O218  1  0.95986078  0.32814895  0.89539684  1  -1.238585  0  -0.569262  -0.735497  0  2.05672  0
