# generated using pymatgen
data_ZnH8C14SO10
_symmetry_space_group_name_H-M   'P 1'
_cell_length_a   8.16696333
_cell_length_b   13.12409478
_cell_length_c   35.17938973
_cell_angle_alpha   89.09839605
_cell_angle_beta   89.75051924
_cell_angle_gamma   90.43682827
_symmetry_Int_Tables_number   1
_chemical_formula_structural   ZnH8C14SO10
_chemical_formula_sum   'Zn4 H32 C56 S4 O40'
_cell_volume   3770.05357544
_cell_formula_units_Z   4
loop_
 _symmetry_equiv_pos_site_id
 _symmetry_equiv_pos_as_xyz
  1  'x, y, z'
loop_
 _atom_site_type_symbol
 _atom_site_label
 _atom_site_symmetry_multiplicity
 _atom_site_fract_x
 _atom_site_fract_y
 _atom_site_fract_z
 _atom_site_occupancy
 _atom_site_pbe_bader_charge
 _atom_site_pbe_bader_spin_density
 _atom_site_pbe_cm5_charge
 _atom_site_pbe_ddec_charge
 _atom_site_pbe_ddec_spin_density
 _atom_site_pbe_ddec_sum_bond_order
 _atom_site_pbe_magmom
Zn  Zn0  1  0.66863610  0.98896892  0.49932001  1  1.323225  0  0.749793  0.982498  0  2.070354  0
Zn  Zn1  1  0.34939766  0.01086885  0.50018565  1  1.32067  0  0.764298  1.010408  0  2.010046  0
Zn  Zn2  1  0.23750795  0.98400892  0.00086072  1  1.316182  0  0.747325  0.977327  0  2.076613  0
Zn  Zn3  1  0.55893924  0.00797082  0.99971613  1  1.341316  0  0.761294  1.006476  0  2.016731  0
H  H4  1  0.68151675  0.01000248  0.87776823  1  0.158095  0  0.111061  0.124719  0  1.01872  0
H  H5  1  0.67995082  0.00360116  0.80862165  1  0.088629  0  0.111201  0.116604  0  0.992913  0
H  H6  1  0.15102270  0.98420912  0.81139889  1  0.113098  0  0.111595  0.12179  0  1.010559  0
H  H7  1  0.76995097  0.98472044  0.68910712  1  0.118066  0  0.112133  0.122241  0  1.009502  0
H  H8  1  0.24138952  0.00384395  0.69155818  1  0.083665  0  0.111114  0.116407  0  0.992609  0
H  H9  1  0.24032227  0.01120857  0.62236380  1  0.160849  0  0.111049  0.124557  0  1.018916  0
H  H10  1  0.27221336  0.99294746  0.75250839  1  0.064555  0  0.107384  0.104415  0  0.996098  0
H  H11  1  0.64865196  0.99213284  0.74788026  1  0.072754  0  0.107529  0.104504  0  0.995606  0
H  H12  1  0.66393374  0.99658363  0.12077338  1  0.165458  0  0.110868  0.122706  0  1.016663  0
H  H13  1  0.66950318  0.00810377  0.18967280  1  0.103912  0  0.110733  0.118054  0  0.997436  0
H  H14  1  0.13957403  0.01132495  0.19116695  1  0.124242  0  0.112067  0.121385  0  1.008243  0
H  H15  1  0.77296466  0.01395298  0.30823501  1  0.107142  0  0.111903  0.12104  0  1.008695  0
H  H16  1  0.24294896  0.00946455  0.31023481  1  0.095851  0  0.110921  0.119192  0  0.99761  0
H  H17  1  0.24948447  0.99996817  0.37930287  1  0.11699  0  0.110584  0.122269  0  1.01565  0
H  H18  1  0.26754019  0.01254140  0.24905702  1  0.072575  0  0.107965  0.105113  0  0.994394  0
H  H19  1  0.64432448  0.01259600  0.25053640  1  0.054613  0  0.107983  0.105267  0  0.994375  0
H  H20  1  0.14013623  0.08198788  0.92732476  1  0.646658  0  0.313153  0.380656  0  0.940775  0
H  H21  1  0.78267022  0.08462503  0.57218410  1  0.648284  0  0.312876  0.380255  0  0.943076  0
H  H22  1  0.12992621  0.89855406  0.07824506  1  0.650781  0  0.309631  0.376706  0  0.952222  0
H  H23  1  0.78180907  0.90386728  0.42291590  1  0.657736  0  0.309379  0.375818  0  0.95326  0
H  H24  1  0.93179244  0.32046101  0.52580938  1  0.639651  0  0.328219  0.365614  0  0.900265  0
H  H25  1  0.90820234  0.54544751  0.52522377  1  0.677071  0  0.321064  0.379024  0  0.927614  0
H  H26  1  0.79696009  0.73433488  0.51553097  1  0.677805  0  0.315227  0.377656  0  0.940514  0
H  H27  1  0.13189117  0.67564706  0.48403244  1  0.614242  0  0.32636  0.363109  0  0.907073  0
H  H28  1  0.15594650  0.45345337  0.48463298  1  0.662376  0  0.321133  0.379746  0  0.927098  0
H  H29  1  0.27075176  0.26521992  0.49392510  1  0.668557  0  0.314934  0.374957  0  0.945351  0
H  H30  1  0.96312182  0.31882722  0.97346405  1  0.631864  0  0.328035  0.364668  0  0.901871  0
H  H31  1  0.99121961  0.54344832  0.97475710  1  0.644676  0  0.320929  0.378688  0  0.928368  0
H  H32  1  0.10578089  0.73132610  0.98496285  1  0.654385  0  0.315476  0.37723  0  0.940433  0
H  H33  1  0.77051677  0.67065794  0.01578111  1  0.6183  0  0.326033  0.363476  0  0.906685  0
H  H34  1  0.74233624  0.44854742  0.01453253  1  0.665002  0  0.32089  0.379193  0  0.928246  0
H  H35  1  0.62280898  0.26090936  0.00530277  1  0.63247  0  0.31441  0.37472  0  0.946182  0
C  C36  1  0.54651861  0.80447388  0.50588231  1  1.484841  0  0.21776  0.630103  0  4.10502  0
C  C37  1  0.48495989  0.01224224  0.57336222  1  1.519398  0  0.229289  0.610488  0  4.115911  0
C  C38  1  0.52667570  0.19548247  0.49584507  1  1.4839  0  0.222199  0.631781  0  4.11267  0
C  C39  1  0.50009732  0.98746505  0.42610092  1  1.548775  0  0.232487  0.616443  0  4.10575  0
C  C40  1  0.35796931  0.80102461  0.99486734  1  1.452132  0  0.217347  0.628385  0  4.101305  0
C  C41  1  0.43648334  0.01034272  0.92680170  1  1.515619  0  0.228327  0.611408  0  4.11133  0
C  C42  1  0.36571607  0.19074563  0.00278736  1  1.49674  0  0.223751  0.634297  0  4.106308  0
C  C43  1  0.41360524  0.98260696  0.07395034  1  1.547397  0  0.232075  0.615786  0  4.106309  0
C  C44  1  0.42036995  0.00164115  0.88487475  1  -0.026901  0  -0.010462  -0.053876  0  3.930581  0
C  C45  1  0.56497711  0.00439480  0.86307580  1  0.001043  0  -0.067268  -0.057634  0  3.927664  0
C  C46  1  0.56319996  0.00073479  0.82371006  1  -0.042779  0  -0.070878  -0.104529  0  3.901821  0
C  C47  1  0.41378923  0.99453153  0.80404638  1  0.032545  0  0.003578  0.13054  0  4.026885  0
C  C48  1  0.26855193  0.99017720  0.82574137  1  -0.037755  0  -0.076916  -0.14051  0  3.943088  0
C  C49  1  0.26953744  0.99319251  0.86517819  1  -0.088078  0  -0.008398  -0.09168  0  3.921348  0
C  C50  1  0.39820344  0.99340038  0.76290477  1  -0.034859  0  -0.077765  -0.115817  0  3.973087  0
C  C51  1  0.52273501  0.99319325  0.73744871  1  -0.062374  0  -0.078187  -0.116357  0  3.972955  0
C  C52  1  0.65265342  0.99087038  0.67466336  1  0.021905  0  -0.077284  -0.140958  0  3.940843  0
C  C53  1  0.50738302  0.99482297  0.69628621  1  0.01712  0  0.002867  0.130651  0  4.026856  0
C  C54  1  0.35818004  0.00125278  0.67652659  1  -0.040595  0  -0.07038  -0.103797  0  3.901113  0
C  C55  1  0.35668300  0.00549432  0.63713137  1  0.008767  0  -0.067324  -0.057566  0  3.92791  0
C  C56  1  0.50132376  0.00319435  0.61538527  1  -0.005523  0  -0.010951  -0.053996  0  3.931219  0
C  C57  1  0.65183155  0.99452523  0.63518128  1  -0.22728  0  -0.008226  -0.092715  0  3.921364  0
C  C58  1  0.40172641  0.99526782  0.11580962  1  0.005108  0  -0.011152  -0.054596  0  3.931946  0
C  C59  1  0.54874554  0.99970155  0.13632668  1  -0.034804  0  -0.067594  -0.058174  0  3.93069  0
C  C60  1  0.55097636  0.00620653  0.17562104  1  0.00303  0  -0.070645  -0.10328  0  3.897475  0
C  C61  1  0.40347892  0.00917091  0.19643944  1  -0.007926  0  0.00444  0.131051  0  4.025795  0
C  C62  1  0.25578679  0.00743610  0.17596635  1  -0.057517  0  -0.077463  -0.138978  0  3.941692  0
C  C63  1  0.25293774  0.00054264  0.13664680  1  -0.172092  0  -0.0087  -0.095076  0  3.93139  0
C  C64  1  0.39226304  0.01223058  0.23763696  1  0.023072  0  -0.077947  -0.115471  0  3.972508  0
C  C65  1  0.51970424  0.01271701  0.26201987  1  -0.076186  0  -0.078309  -0.116229  0  3.973165  0
C  C66  1  0.65695979  0.01036636  0.32361474  1  0.063723  0  -0.077165  -0.138685  0  3.941663  0
C  C67  1  0.50894793  0.01108857  0.30325499  1  -0.017355  0  0.003901  0.131319  0  4.025272  0
C  C68  1  0.36167180  0.00834124  0.32422475  1  0.011789  0  -0.07017  -0.104052  0  3.89625  0
C  C69  1  0.36448305  0.00295247  0.36360563  1  0.000173  0  -0.067819  -0.058483  0  3.928113  0
C  C70  1  0.51180831  0.99935990  0.38406261  1  -0.05028  0  -0.010665  -0.053324  0  3.929602  0
C  C71  1  0.66034187  0.00444422  0.36302860  1  -0.189457  0  -0.008241  -0.094397  0  3.93211  0
C  C72  1  0.64258789  0.62481141  0.50918579  1  0.526135  0  0.090971  0.277383  0  4.018147  0
C  C73  1  0.35388549  0.65708185  0.49601606  1  0.55997  0  0.068437  0.200143  0  4.067464  0
C  C74  1  0.32618649  0.55300399  0.49299874  1  0.559571  0  0.054289  0.131515  0  4.100826  0
C  C75  1  0.45279953  0.48125233  0.49930885  1  0.075656  0  -0.026337  -0.112196  0  4.052328  0
C  C76  1  0.42571494  0.37439235  0.49762600  1  0.514158  0  0.089566  0.275566  0  4.01508  0
C  C77  1  0.71391409  0.34221743  0.51066558  1  0.549219  0  0.06712  0.19712  0  4.081754  0
C  C78  1  0.74102049  0.44594262  0.51474829  1  0.556727  0  0.054973  0.133279  0  4.103225  0
C  C79  1  0.61507821  0.51795289  0.50780315  1  -0.007388  0  -0.02755  -0.115109  0  4.048527  0
C  C80  1  0.51429863  0.69505639  0.50398912  1  0.012804  0  -0.044719  -0.27413  0  3.988209  0
C  C81  1  0.55550027  0.30466566  0.50124491  1  -0.007874  0  -0.044245  -0.271225  0  3.989938  0
C  C82  1  0.25842918  0.62156318  0.99092843  1  0.553513  0  0.090644  0.276868  0  4.01858  0
C  C83  1  0.54781305  0.65289999  0.00407393  1  0.51279  0  0.068388  0.200588  0  4.067333  0
C  C84  1  0.57362845  0.54854623  0.00668158  1  0.554949  0  0.053924  0.129748  0  4.10238  0
C  C85  1  0.44550866  0.47721253  0.00025130  1  0.019931  0  -0.02652  -0.112327  0  4.051202  0
C  C86  1  0.47037950  0.37021222  0.00162439  1  0.501574  0  0.089094  0.27532  0  4.012752  0
C  C87  1  0.18160880  0.33905389  0.98850993  1  0.556875  0  0.06714  0.197968  0  4.082911  0
C  C88  1  0.15662145  0.44318260  0.98478755  1  0.494883  0  0.054665  0.131808  0  4.10367  0
C  C89  1  0.28394272  0.51464105  0.99191957  1  0.033973  0  -0.027242  -0.113374  0  4.048727  0
C  C90  1  0.38798974  0.69147514  0.99639495  1  0.069217  0  -0.04479  -0.274081  0  3.989043  0
C  C91  1  0.33920984  0.30057647  0.99774378  1  0.052044  0  -0.043659  -0.271258  0  3.985279  0
S  S92  1  0.06821557  0.98011581  0.88603952  1  3.080132  0  0.531983  1.151534  0  6.021908  0
S  S93  1  0.85260456  0.98187721  0.61436145  1  3.089823  0  0.533324  1.154886  0  6.015806  0
S  S94  1  0.05042642  0.00444960  0.11677571  1  3.069103  0  0.530419  1.151005  0  6.034409  0
S  S95  1  0.86327486  0.00860406  0.38267340  1  3.070594  0  0.5305  1.150752  0  6.035511  0
O  O96  1  0.69773437  0.83778994  0.50877491  1  -1.134026  0  -0.311303  -0.546027  0  2.247079  0
O  O97  1  0.42819375  0.86665013  0.50442526  1  -1.178138  0  -0.308  -0.555937  0  2.426517  0
O  O98  1  0.34387392  0.00485867  0.55834861  1  -1.109521  0  -0.294239  -0.508215  0  2.230899  0
O  O99  1  0.61690750  0.02931121  0.55377714  1  -1.190949  0  -0.313692  -0.601825  0  2.454032  0
O  O100  1  0.37550847  0.16302832  0.49922284  1  -1.141808  0  -0.313164  -0.570132  0  2.317146  0
O  O101  1  0.64528558  0.13730313  0.48772393  1  -1.143186  0  -0.303368  -0.522436  0  2.339885  0
O  O102  1  0.62688747  0.95383958  0.44401290  1  -1.182369  0  -0.310727  -0.584668  0  2.443721  0
O  O103  1  0.36582802  0.00920458  0.44258414  1  -1.132881  0  -0.295782  -0.522222  0  2.256501  0
O  O104  1  0.20699187  0.83433670  0.99240968  1  -1.132652  0  -0.311132  -0.542978  0  2.253175  0
O  O105  1  0.47741694  0.86322233  0.99611356  1  -1.161737  0  -0.306499  -0.553274  0  2.424662  0
O  O106  1  0.57743116  0.00364004  0.94210729  1  -1.116858  0  -0.294779  -0.50494  0  2.216753  0
O  O107  1  0.30492744  0.02637172  0.94618039  1  -1.194903  0  -0.314152  -0.609529  0  2.460539  0
O  O108  1  0.51627193  0.15907955  0.99998644  1  -1.149974  0  -0.313642  -0.576466  0  2.335482  0
O  O109  1  0.24460111  0.13175499  0.01012194  1  -1.133606  0  -0.301605  -0.511708  0  2.337793  0
O  O110  1  0.28687537  0.94788290  0.05649183  1  -1.183558  0  -0.310531  -0.586859  0  2.443905  0
O  O111  1  0.54823461  0.00508643  0.05714493  1  -1.147194  0  -0.296057  -0.519674  0  2.251099  0
O  O112  1  0.04755581  0.08354937  0.90852196  1  -1.22167  0  -0.368517  -0.530078  0  2.160605  0
O  O113  1  0.95035787  0.98550777  0.85576277  1  -1.292168  0  -0.308278  -0.528389  0  2.171725  0
O  O114  1  0.06594332  0.89377356  0.91180550  1  -1.290091  0  -0.325039  -0.539082  0  2.134581  0
O  O115  1  0.87542341  0.08583688  0.59094071  1  -1.220784  0  -0.370283  -0.53297  0  2.160922  0
O  O116  1  0.97073749  0.98674061  0.64455956  1  -1.294496  0  -0.308776  -0.529229  0  2.1703  0
O  O117  1  0.85260224  0.89610519  0.58934036  1  -1.297442  0  -0.326024  -0.539412  0  2.126603  0
O  O118  1  0.03563738  0.89654739  0.09711606  1  -1.231487  0  -0.372536  -0.533449  0  2.146704  0
O  O119  1  0.93427422  0.00183293  0.14769765  1  -1.297407  0  -0.308735  -0.530819  0  2.173597  0
O  O120  1  0.04321818  0.08526404  0.08868505  1  -1.273638  0  -0.324744  -0.535962  0  2.121918  0
O  O121  1  0.87534216  0.90113132  0.40389373  1  -1.236202  0  -0.372788  -0.532777  0  2.146917  0
O  O122  1  0.97888646  0.00510744  0.35170579  1  -1.29673  0  -0.308753  -0.530955  0  2.173607  0
O  O123  1  0.87321784  0.08995853  0.40958136  1  -1.280213  0  -0.326014  -0.536704  0  2.11609  0
O  O124  1  0.83972599  0.27708061  0.51811188  1  -1.129912  0  -0.351757  -0.415874  0  2.278017  0
O  O125  1  0.89538274  0.47071178  0.52663653  1  -1.176637  0  -0.364084  -0.469131  0  2.350795  0
O  O126  1  0.79894078  0.65746427  0.51569860  1  -1.190725  0  -0.340488  -0.456732  0  2.322884  0
O  O127  1  0.22488041  0.72054086  0.48994249  1  -1.10209  0  -0.351119  -0.411835  0  2.281961  0
O  O128  1  0.16940733  0.52808837  0.48291820  1  -1.168445  0  -0.362765  -0.468005  0  2.355101  0
O  O129  1  0.26860198  0.34176478  0.49184366  1  -1.174265  0  -0.343668  -0.457803  0  2.321703  0
O  O130  1  0.05422647  0.27469454  0.98099304  1  -1.121642  0  -0.351399  -0.414428  0  2.280395  0
O  O131  1  0.00256477  0.46890133  0.97310223  1  -1.14809  0  -0.364045  -0.468861  0  2.351398  0
O  O132  1  0.10264797  0.65454044  0.98453085  1  -1.162259  0  -0.33972  -0.455349  0  2.323794  0
O  O133  1  0.67814873  0.71597473  0.01021609  1  -1.102543  0  -0.350528  -0.412064  0  2.280981  0
O  O134  1  0.73026418  0.52296048  0.01643519  1  -1.162364  0  -0.36261  -0.467503  0  2.358667  0
O  O135  1  0.62681325  0.33730042  0.00736091  1  -1.15078  0  -0.343693  -0.458045  0  2.321215  0
