# generated using pymatgen
data_CuPH13C17N2O5
_symmetry_space_group_name_H-M   'P 1'
_cell_length_a   11.06411557
_cell_length_b   11.06408082
_cell_length_c   19.15670906
_cell_angle_alpha   104.80305056
_cell_angle_beta   104.80243662
_cell_angle_gamma   95.06630443
_symmetry_Int_Tables_number   1
_chemical_formula_structural   CuPH13C17N2O5
_chemical_formula_sum   'Cu4 P4 H52 C68 N8 O20'
_cell_volume   2162.18649610
_cell_formula_units_Z   4
loop_
 _symmetry_equiv_pos_site_id
 _symmetry_equiv_pos_as_xyz
  1  'x, y, z'
loop_
 _atom_site_type_symbol
 _atom_site_label
 _atom_site_symmetry_multiplicity
 _atom_site_fract_x
 _atom_site_fract_y
 _atom_site_fract_z
 _atom_site_occupancy
 _atom_site_pbe_bader_charge
 _atom_site_pbe_bader_spin_density
 _atom_site_pbe_cm5_charge
 _atom_site_pbe_ddec_charge
 _atom_site_pbe_ddec_spin_density
 _atom_site_pbe_ddec_sum_bond_order
 _atom_site_pbe_magmom
Cu  Cu0  1  0.08212981  0.45073430  0.62064687  1  1.110298  0.589543  0.756225  0.858827  0.745927  2.203773  0.587
Cu  Cu1  1  0.54927463  0.91786971  0.87935612  1  1.110379  0.589547  0.756221  0.858954  0.745923  2.203736  0.587
Cu  Cu2  1  0.91786787  0.54926904  0.37935546  1  1.110412  0.589547  0.756239  0.85895  0.74593  2.203706  0.587
Cu  Cu3  1  0.45072866  0.08213160  0.12064412  1  1.110369  0.589545  0.756219  0.859006  0.745925  2.203678  0.587
P  P4  1  0.02296853  0.71304191  0.58304821  1  3.35971  0.001898  0.349149  1.263198  0.00339  5.376025  0.002
P  P5  1  0.28696350  0.97703574  0.91695116  1  3.359617  0.001897  0.349178  1.263284  0.003391  5.375705  0.002
P  P6  1  0.97703200  0.28696182  0.41695303  1  3.359454  0.001901  0.349187  1.26321  0.003391  5.37575  0.002
P  P7  1  0.71303781  0.02296249  0.08304833  1  3.358844  0.001898  0.349088  1.263044  0.003392  5.375789  0.002
H  H8  1  0.60276437  0.35015393  0.50302268  1  0.071067  0.001246  0.109835  0.118797  0.000629  0.998812  0.001
H  H9  1  0.64985936  0.39724763  0.99697118  1  0.071279  0.001246  0.109818  0.118795  0.000629  0.998815  0.001
H  H10  1  0.39723687  0.64984150  0.49697326  1  0.07106  0.001246  0.109827  0.118818  0.000629  0.998781  0.001
H  H11  1  0.35015181  0.60276410  0.00302971  1  0.071076  0.001246  0.109807  0.118761  0.000629  0.998887  0.001
H  H12  1  0.95677589  0.53353120  0.73382186  1  0.14898  0.002395  0.120927  0.100257  0.001097  1.012869  0.001
H  H13  1  0.46646141  0.04320286  0.76617706  1  0.148427  0.002395  0.120914  0.100233  0.001097  1.01281  0.001
H  H14  1  0.04321301  0.46646254  0.26617668  1  0.148477  0.002395  0.120883  0.100212  0.001097  1.012798  0.001
H  H15  1  0.53353318  0.95679165  0.23382349  1  0.148773  0.002395  0.120869  0.100128  0.001097  1.012936  0.001
H  H16  1  0.31779262  0.64245194  0.67556191  1  0.134611  0.001886  0.123619  0.109676  0.000831  0.995732  0.002
H  H17  1  0.35755336  0.68220424  0.82443689  1  0.134699  0.001886  0.123606  0.109724  0.000831  0.995627  0.002
H  H18  1  0.68221269  0.35755429  0.32444303  1  0.134526  0.001886  0.123629  0.109701  0.000831  0.995664  0.002
H  H19  1  0.64244991  0.31779522  0.17555681  1  0.134653  0.001886  0.123607  0.109685  0.000831  0.995687  0.002
H  H20  1  0.45408987  0.23799665  0.57792931  1  0.080926  0.001121  0.114936  0.1252  0.000586  0.978533  0.0
H  H21  1  0.76200229  0.54589775  0.92206514  1  0.081038  0.001121  0.114943  0.12528  0.000586  0.978569  0.0
H  H22  1  0.54589429  0.76199552  0.42206516  1  0.081196  0.001121  0.114948  0.125271  0.000586  0.978606  0.0
H  H23  1  0.23799916  0.45410608  0.07794043  1  0.081068  0.001121  0.114946  0.125267  0.000586  0.978565  0.0
H  H24  1  0.54268697  0.64517041  0.67769600  1  0.140413  0.000911  0.106778  0.12152  0.000472  1.062837  0.001
H  H25  1  0.35483048  0.45730882  0.82229510  1  0.14073  0.00091  0.106757  0.12157  0.000472  1.062836  0.001
H  H26  1  0.45731339  0.35482768  0.32230490  1  0.140337  0.00091  0.106756  0.121518  0.000472  1.062895  0.001
H  H27  1  0.64517195  0.54269335  0.17769575  1  0.140582  0.000911  0.106766  0.121518  0.000472  1.062851  0.001
H  H28  1  0.23120417  0.25346681  0.58423888  1  0.132656  0.001989  0.13179  0.114945  0.000886  0.970734  0.002
H  H29  1  0.74652864  0.76879211  0.91576118  1  0.132764  0.001988  0.131749  0.114881  0.000885  0.970712  0.002
H  H30  1  0.76878889  0.74653964  0.41576270  1  0.132668  0.001988  0.131754  0.114929  0.000885  0.970682  0.002
H  H31  1  0.25347090  0.23121053  0.08424288  1  0.132746  0.001988  0.131764  0.114876  0.000885  0.970774  0.002
H  H32  1  0.73418236  0.53611347  0.74301642  1  0.084346  0.001107  0.108448  0.115118  0.000557  1.004554  0.001
H  H33  1  0.46387662  0.26579039  0.75698081  1  0.083352  0.001108  0.108491  0.115249  0.000557  1.004494  0.001
H  H34  1  0.26580374  0.46388174  0.25698558  1  0.083583  0.001108  0.10846  0.115217  0.000557  1.004487  0.001
H  H35  1  0.53611498  0.73419903  0.24301853  1  0.084  0.001108  0.108474  0.115243  0.000557  1.004478  0.001
H  H36  1  0.82996729  0.36491470  0.50358203  1  0.122174  0.002327  0.123292  0.091959  0.001034  1.037868  0.002
H  H37  1  0.63510394  0.17004051  0.99641767  1  0.122137  0.002328  0.123291  0.092008  0.001034  1.037746  0.002
H  H38  1  0.17003977  0.63508710  0.49642303  1  0.122114  0.002328  0.123308  0.09197  0.001034  1.037841  0.002
H  H39  1  0.36491077  0.82996329  0.00358047  1  0.122138  0.002328  0.123283  0.091955  0.001034  1.037783  0.002
H  H40  1  0.75586725  0.72979208  0.53819244  1  0.052487  0.000227  0.094821  0.090419  9.8e-05  1.061064  0.0
H  H41  1  0.27022953  0.24413530  0.96180397  1  0.052614  0.000227  0.094756  0.090323  9.8e-05  1.06122  0.0
H  H42  1  0.24412779  0.27021746  0.46180833  1  0.052301  0.000227  0.094842  0.090421  9.8e-05  1.061216  0.0
H  H43  1  0.72978312  0.75586260  0.03819403  1  0.052631  0.000227  0.094803  0.090357  9.8e-05  1.061226  0.0
H  H44  1  0.90253963  0.87120197  0.81869753  1  0.086981  0.000535  0.105971  0.118633  0.000447  1.000868  0.0
H  H45  1  0.12880658  0.09747054  0.68130953  1  0.087117  0.000534  0.106003  0.118702  0.000447  1.000875  0.0
H  H46  1  0.09746460  0.12879944  0.18130548  1  0.08708  0.000534  0.105969  0.118632  0.000447  1.000852  0.0
H  H47  1  0.87120233  0.90252965  0.31869295  1  0.087066  0.000534  0.105983  0.118635  0.000447  1.000957  0.0
H  H48  1  0.05234477  0.79956508  0.74536990  1  0.041859  8.5e-05  0.097795  0.084087  4.7e-05  1.037248  0.0
H  H49  1  0.20044508  0.94765999  0.75462675  1  0.042285  8.5e-05  0.097833  0.084161  4.7e-05  1.03725  0.0
H  H50  1  0.94765094  0.20043519  0.25463010  1  0.041832  8.5e-05  0.097821  0.084139  4.7e-05  1.037167  0.0
H  H51  1  0.79955548  0.05234378  0.24536876  1  0.04201  8.5e-05  0.09781  0.084159  4.7e-05  1.037232  0.0
H  H52  1  0.60334384  0.79756734  0.61222614  1  0.066635  4.6e-05  0.096409  0.095236  5e-06  1.02284  0.0
H  H53  1  0.20244720  0.39667388  0.88777574  1  0.066751  4.6e-05  0.096492  0.095343  5e-06  1.022624  0.0
H  H54  1  0.39665970  0.20244240  0.38777749  1  0.066774  4.6e-05  0.096446  0.09528  5e-06  1.022851  0.0
H  H55  1  0.79756944  0.60333204  0.11222562  1  0.066687  4.6e-05  0.096491  0.095347  5e-06  1.022742  0.0
H  H56  1  0.20093193  0.84417563  0.63069640  1  0.609702  -5.9e-05  0.34066  0.401524  3e-06  0.863167  0.0
H  H57  1  0.15582444  0.79907270  0.86930158  1  0.609728  -5.9e-05  0.340684  0.401583  3e-06  0.86312  0.0
H  H58  1  0.79906936  0.15582165  0.36930400  1  0.609728  -5.9e-05  0.340671  0.401531  3e-06  0.86317  0.0
H  H59  1  0.84417956  0.20092028  0.13069649  1  0.609831  -5.9e-05  0.340679  0.401573  3e-06  0.863184  0.0
C  C60  1  0.67793865  0.39093973  0.55583726  1  -0.030656  0.005785  -0.078996  -0.172664  0.003798  3.923362  0.005
C  C61  1  0.60907192  0.32206553  0.94415770  1  -0.030736  0.005786  -0.078858  -0.17253  0.003798  3.923467  0.005
C  C62  1  0.32205480  0.60904808  0.44416056  1  -0.030728  0.005785  -0.078916  -0.172597  0.003798  3.923151  0.005
C  C63  1  0.39094673  0.67794349  0.05584076  1  -0.030557  0.005785  -0.078908  -0.172567  0.003798  3.923488  0.005
C  C64  1  0.87453282  0.49644559  0.68442517  1  0.480889  -0.001907  0.054278  0.103139  -0.002477  3.925214  -0.002
C  C65  1  0.50354685  0.12544753  0.81557305  1  0.481108  -0.001906  0.054348  0.10328  -0.002478  3.925159  -0.002
C  C66  1  0.12545523  0.50355084  0.31557312  1  0.481164  -0.001907  0.054398  0.103287  -0.002477  3.92519  -0.002
C  C67  1  0.49644399  0.87454834  0.18442819  1  0.480826  -0.001907  0.054417  0.103413  -0.002478  3.925256  -0.002
C  C68  1  0.35285879  0.55503541  0.65582809  1  0.466937  -0.000795  0.055128  0.107093  -0.001198  3.917954  0.0
C  C69  1  0.44496067  0.64713188  0.84417277  1  0.466176  -0.000794  0.055168  0.107065  -0.001197  3.917737  0.0
C  C70  1  0.64713978  0.44496617  0.34417463  1  0.46677  -0.000795  0.055039  0.106977  -0.001198  3.917774  0.0
C  C71  1  0.55503972  0.35286716  0.15582827  1  0.466028  -0.000794  0.055166  0.107105  -0.001198  3.917849  0.0
C  C72  1  0.64980763  0.44100111  0.62372629  1  -0.029993  -0.003373  0.013536  0.10441  -0.003758  3.989699  -0.002
C  C73  1  0.55900368  0.35018429  0.87626656  1  -0.030314  -0.003374  0.013379  0.104274  -0.003759  3.989947  -0.002
C  C74  1  0.35018505  0.55899222  0.37626962  1  -0.029212  -0.003374  0.013393  0.10429  -0.003759  3.989804  -0.002
C  C75  1  0.44100061  0.64981809  0.12373086  1  -0.02998  -0.003374  0.013396  0.10422  -0.003759  3.990019  -0.002
C  C76  1  0.51773485  0.44104673  0.62674329  1  -0.061362  -0.003581  0.012388  0.106215  -0.003972  3.992634  -0.002
C  C77  1  0.55894940  0.48224804  0.87324259  1  -0.084197  -0.003584  0.012391  0.106258  -0.003972  3.992726  -0.002
C  C78  1  0.48225401  0.55894514  0.37325236  1  -0.06203  -0.003581  0.012455  0.106246  -0.003973  3.992691  -0.002
C  C79  1  0.44105200  0.51775210  0.12675250  1  -0.061446  -0.003581  0.01234  0.106253  -0.003973  3.992523  -0.002
C  C80  1  0.42789342  0.32975796  0.60013483  1  -0.04806  0.005279  -0.082079  -0.185755  0.003473  3.949244  0.004
C  C81  1  0.67023568  0.57209168  0.89985565  1  -0.02501  0.005281  -0.082015  -0.185888  0.003472  3.949373  0.004
C  C82  1  0.57209554  0.67023674  0.39986073  1  -0.04815  0.005279  -0.082069  -0.185876  0.003473  3.949448  0.004
C  C83  1  0.32976659  0.42790669  0.10014192  1  -0.048181  0.005278  -0.082008  -0.18584  0.003472  3.949323  0.004
C  C84  1  0.47866036  0.55506410  0.65645066  1  0.018337  0.005601  -0.084189  -0.179371  0.003717  3.931536  0.005
C  C85  1  0.44493373  0.52132933  0.84354266  1  0.017771  0.005601  -0.084203  -0.179385  0.003717  3.931466  0.005
C  C86  1  0.52133522  0.44493149  0.34354706  1  0.018454  0.005601  -0.084153  -0.179298  0.003716  3.931378  0.005
C  C87  1  0.55506952  0.47867010  0.15645574  1  0.018073  0.005601  -0.084161  -0.179306  0.003717  3.931181  0.005
C  C88  1  0.30433468  0.33700300  0.60331483  1  0.489116  -0.001331  0.053923  0.099541  -0.001676  3.928655  -0.001
C  C89  1  0.66299211  0.69565562  0.89668171  1  0.489219  -0.001332  0.053945  0.099719  -0.001677  3.928522  -0.001
C  C90  1  0.69566008  0.66299715  0.39668502  1  0.489176  -0.001332  0.053941  0.099619  -0.001676  3.928539  -0.001
C  C91  1  0.33700733  0.30434328  0.10331918  1  0.48924  -0.001332  0.053943  0.099691  -0.001677  3.928544  -0.001
C  C92  1  0.75123543  0.49567663  0.68891389  1  0.007444  0.004871  -0.075803  -0.159986  0.003251  3.929171  0.004
C  C93  1  0.50431903  0.24874325  0.81108437  1  0.008579  0.00487  -0.07577  -0.160116  0.003251  3.929307  0.004
C  C94  1  0.24874592  0.50431702  0.31108508  1  0.008278  0.00487  -0.075801  -0.160131  0.003251  3.929242  0.004
C  C95  1  0.49567084  0.75125153  0.18891760  1  0.007995  0.004871  -0.075777  -0.160066  0.003251  3.929199  0.004
C  C96  1  0.80386421  0.39859110  0.55537625  1  0.528254  -0.000977  0.060454  0.120054  -0.001154  3.903634  -0.001
C  C97  1  0.60142168  0.19613923  0.94462105  1  0.528811  -0.00098  0.060365  0.119797  -0.001154  3.903834  -0.001
C  C98  1  0.19613144  0.60140729  0.44462399  1  0.528787  -0.00098  0.060417  0.119946  -0.001155  3.903675  -0.001
C  C99  1  0.39859122  0.80386713  0.05537773  1  0.528744  -0.00098  0.06043  0.120022  -0.001154  3.903728  -0.001
C  C100  1  0.78733166  0.76168835  0.59953419  1  0.059836  0.000784  -0.088372  -0.067993  0.000508  4.001966  0.001
C  C101  1  0.23831573  0.21267577  0.90046295  1  0.059081  0.000785  -0.088242  -0.067817  0.000509  4.002096  0.001
C  C102  1  0.21267454  0.23831614  0.40046906  1  0.05913  0.000784  -0.088372  -0.067989  0.000508  4.002338  0.001
C  C103  1  0.76169507  0.78732375  0.09953659  1  0.059567  0.000784  -0.0883  -0.067882  0.000509  4.002228  0.001
C  C104  1  0.87059272  0.83996596  0.75723141  1  0.015908  0.000186  -0.085737  -0.095448  3.7e-05  3.939542  0.0
C  C105  1  0.16004514  0.12941317  0.74277227  1  0.01609  0.000187  -0.085707  -0.095418  3.7e-05  3.939857  0.0
C  C106  1  0.12941354  0.16004041  0.24277213  1  0.015257  0.000187  -0.085666  -0.095331  3.7e-05  3.939484  0.0
C  C107  1  0.83995907  0.87058731  0.25722956  1  0.016069  0.000187  -0.085624  -0.095247  3.6e-05  3.939649  0.0
C  C108  1  0.74349838  0.83836858  0.71947075  1  -0.068413  0.010128  -0.01962  -0.023249  0.00701  3.95842  0.008
C  C109  1  0.16163586  0.25650408  0.78052864  1  -0.068185  0.010128  -0.019586  -0.023217  0.00701  3.958615  0.008
C  C110  1  0.25650495  0.16163458  0.28053291  1  -0.06826  0.010128  -0.019636  -0.023244  0.007009  3.958377  0.008
C  C111  1  0.83837019  0.74349480  0.21947113  1  -0.06794  0.010125  -0.019556  -0.023128  0.00701  3.958614  0.008
C  C112  1  0.95441584  0.80121110  0.71602826  1  0.021118  -0.0  -0.082775  -0.068354  -0.000102  4.015761  0.0
C  C113  1  0.19879369  0.04558399  0.78396749  1  0.020392  0.0  -0.08284  -0.068526  -0.000102  4.016082  0.0
C  C114  1  0.04558374  0.19879250  0.28397230  1  0.021164  -0.0  -0.082818  -0.068502  -0.000102  4.015715  0.0
C  C115  1  0.80120573  0.95441398  0.21603272  1  0.020701  0.0  -0.082904  -0.068698  -0.000102  4.016063  0.0
C  C116  1  0.91420959  0.76277709  0.63690231  1  -0.696608  -0.000191  -0.024346  -0.183334  -0.000434  3.982804  0.0
C  C117  1  0.23722318  0.08579496  0.86309295  1  -0.696504  -0.00019  -0.02436  -0.183283  -0.000434  3.982791  0.0
C  C118  1  0.08579660  0.23722648  0.36309923  1  -0.696538  -0.00019  -0.024375  -0.183312  -0.000434  3.982813  0.0
C  C119  1  0.76278275  0.91420015  0.13690833  1  -0.695845  -0.00019  -0.024341  -0.183135  -0.000433  3.982759  0.0
C  C120  1  0.70270192  0.79883731  0.64045303  1  -0.018168  0.00124  -0.091406  -0.106262  0.000705  3.99187  0.001
C  C121  1  0.20116616  0.29730809  0.85954525  1  -0.017642  0.001239  -0.091556  -0.106502  0.000705  3.991782  0.001
C  C122  1  0.29730242  0.20116786  0.35955056  1  -0.017532  0.00124  -0.091462  -0.106351  0.000705  3.991883  0.001
C  C123  1  0.79884561  0.70269250  0.14045458  1  -0.018162  0.00124  -0.091573  -0.106553  0.000705  3.992069  0.001
C  C124  1  0.64846679  0.87210126  0.76204792  1  1.553531  -0.001142  0.188911  0.542624  -0.001598  4.251509  -0.003
C  C125  1  0.12789619  0.35153295  0.73795247  1  1.553447  -0.001141  0.188951  0.542711  -0.001597  4.251423  -0.003
C  C126  1  0.35153185  0.12790313  0.23795680  1  1.553701  -0.001145  0.189008  0.54282  -0.001597  4.251379  -0.003
C  C127  1  0.87210046  0.64846653  0.26204338  1  1.552908  -0.001141  0.1889  0.542692  -0.001596  4.251625  -0.003
N  N128  1  0.26716038  0.44827728  0.62935108  1  -1.205633  0.083672  -0.337667  -0.207639  0.055378  3.569036  0.072
N  N129  1  0.55171644  0.73283578  0.87065123  1  -1.205484  0.083665  -0.337701  -0.207781  0.055374  3.568973  0.072
N  N130  1  0.73284101  0.55172375  0.37065093  1  -1.205615  0.083665  -0.337635  -0.207639  0.055373  3.568951  0.072
N  N131  1  0.44828491  0.26716430  0.12935272  1  -1.205524  0.083664  -0.33771  -0.207767  0.055373  3.569018  0.072
N  N132  1  0.90018792  0.44911064  0.61865683  1  -1.214308  0.08486  -0.338295  -0.224871  0.055881  3.597251  0.074
N  N133  1  0.55089950  0.09980794  0.88134352  1  -1.214973  0.084868  -0.338327  -0.224842  0.055884  3.597345  0.074
N  N134  1  0.09980695  0.55089327  0.38134307  1  -1.214933  0.084868  -0.338342  -0.224853  0.055885  3.597419  0.074
N  N135  1  0.44910281  0.90019229  0.11865694  1  -1.21491  0.08487  -0.338354  -0.225015  0.055886  3.597532  0.074
O  O136  1  0.10869777  0.63231389  0.62067089  1  -1.422442  0.06469  -0.39284  -0.794134  0.03993  2.393492  0.056
O  O137  1  0.36769195  0.89130197  0.87932636  1  -1.422559  0.064698  -0.392821  -0.794154  0.039934  2.393328  0.056
O  O138  1  0.89130378  0.36769186  0.37932871  1  -1.422148  0.064686  -0.39286  -0.794184  0.039929  2.393482  0.056
O  O139  1  0.63231017  0.10869260  0.12067793  1  -1.422474  0.064693  -0.392806  -0.794143  0.03993  2.393364  0.056
O  O140  1  0.53257145  0.85524259  0.72678948  1  -1.188965  0.000392  -0.342878  -0.589719  -0.001196  2.133534  0.001
O  O141  1  0.14475352  0.46742549  0.77321214  1  -1.189008  0.000394  -0.342939  -0.589791  -0.001196  2.133478  0.001
O  O142  1  0.46742524  0.14475966  0.27321619  1  -1.188615  0.000393  -0.342902  -0.589785  -0.001196  2.133435  0.001
O  O143  1  0.85524401  0.53257223  0.22678568  1  -1.188661  0.000394  -0.342929  -0.589779  -0.001195  2.133451  0.001
O  O144  1  0.95051858  0.66276677  0.50135328  1  -1.458451  0.000182  -0.374954  -0.76256  -0.000404  2.26579  0.001
O  O145  1  0.33724714  0.04948768  0.99864807  1  -1.458318  0.000182  -0.375001  -0.762649  -0.000404  2.265811  0.001
O  O146  1  0.04948392  0.33724003  0.49864924  1  -1.458441  0.000181  -0.375009  -0.762621  -0.000405  2.265762  0.001
O  O147  1  0.66275311  0.95050666  0.00135121  1  -1.458119  0.000182  -0.374921  -0.762527  -0.000404  2.265772  0.001
O  O148  1  0.11889405  0.84313146  0.59612457  1  -1.347768  0.008938  -0.39571  -0.634026  0.005529  2.128634  0.007
O  O149  1  0.15686327  0.88111400  0.90387021  1  -1.347649  0.008938  -0.395723  -0.634126  0.005529  2.128524  0.007
O  O150  1  0.88110821  0.15686690  0.40387561  1  -1.347741  0.008937  -0.395698  -0.633995  0.005529  2.128518  0.007
O  O151  1  0.84313610  0.11888118  0.09612384  1  -1.347755  0.008936  -0.395691  -0.634055  0.005528  2.12865  0.007
O  O152  1  0.69446042  0.91354030  0.83469498  1  -1.093256  0.131424  -0.323622  -0.537154  0.08274  2.280513  0.118
O  O153  1  0.08645512  0.30554913  0.66530707  1  -1.093122  0.131428  -0.323621  -0.537132  0.082744  2.280633  0.118
O  O154  1  0.30554570  0.08646137  0.16530940  1  -1.093301  0.131432  -0.323671  -0.537267  0.082743  2.280552  0.118
O  O155  1  0.91353481  0.69444663  0.33468879  1  -1.093279  0.131433  -0.323618  -0.537241  0.082745  2.280754  0.118
