# generated using pymatgen
data_CoH15C18(NO2)2
_symmetry_space_group_name_H-M   'P 1'
_cell_length_a   11.01081575
_cell_length_b   19.36744878
_cell_length_c   21.62945809
_cell_angle_alpha   92.54799029
_cell_angle_beta   90.00084373
_cell_angle_gamma   89.98441026
_symmetry_Int_Tables_number   1
_chemical_formula_structural   CoH15C18(NO2)2
_chemical_formula_sum   'Co8 H120 C144 N16 O32'
_cell_volume   4607.95204334
_cell_formula_units_Z   8
loop_
 _symmetry_equiv_pos_site_id
 _symmetry_equiv_pos_as_xyz
  1  'x, y, z'
loop_
 _atom_site_type_symbol
 _atom_site_label
 _atom_site_symmetry_multiplicity
 _atom_site_fract_x
 _atom_site_fract_y
 _atom_site_fract_z
 _atom_site_occupancy
 _atom_site_pbe_bader_charge
 _atom_site_pbe_bader_spin_density
 _atom_site_pbe_cm5_charge
 _atom_site_pbe_ddec_charge
 _atom_site_pbe_ddec_spin_density
 _atom_site_pbe_ddec_sum_bond_order
 _atom_site_pbe_magmom
Co  Co0  1  0.57258808  0.81004006  0.25206675  1  1.20026  2.590637  0.610419  0.756705  2.81134  2.727438  2.574
Co  Co1  1  0.57263570  0.69007735  0.24792322  1  1.182324  2.588682  0.610499  0.757138  2.811213  2.727566  2.574
Co  Co2  1  0.42739932  0.18995696  0.74792722  1  1.200418  2.590652  0.610443  0.756824  2.811368  2.727355  2.574
Co  Co3  1  0.42735534  0.30991714  0.75207621  1  1.182381  2.588671  0.610564  0.757367  2.811217  2.727236  2.574
Co  Co4  1  0.73409456  0.69104217  0.74900157  1  1.161268  2.581221  0.607501  0.748452  2.805725  2.759315  2.565
Co  Co5  1  0.73404554  0.80912830  0.75097766  1  1.192223  2.584266  0.607567  0.748426  2.805343  2.759681  2.565
Co  Co6  1  0.26592100  0.30896672  0.25099094  1  1.161785  2.581251  0.607489  0.748511  2.805638  2.758844  2.565
Co  Co7  1  0.26596820  0.19087904  0.24901433  1  1.1917  2.584228  0.607499  0.748449  2.805358  2.759808  2.565
H  H8  1  0.59364885  0.08501753  0.46799336  1  0.415172  0.000281  0.297275  0.236993  0.000131  0.974504  0.0
H  H9  1  0.59364950  0.41508888  0.03212298  1  0.412453  0.00028  0.297228  0.237221  0.00013  0.974729  0.0
H  H10  1  0.40633855  0.91498067  0.53201637  1  0.415251  0.000282  0.297285  0.237089  0.000131  0.974575  0.0
H  H11  1  0.40636061  0.58490424  0.96789768  1  0.412066  0.000281  0.297237  0.236873  0.000131  0.974941  0.0
H  H12  1  0.74681963  0.41471805  0.53856657  1  0.42316  0.000342  0.299908  0.238791  0.000158  0.968398  0.0
H  H13  1  0.74688584  0.08534561  0.96148637  1  0.422933  0.000341  0.299729  0.238466  0.000158  0.968823  0.0
H  H14  1  0.25316142  0.58528257  0.46142474  1  0.42341  0.000342  0.299844  0.238758  0.000158  0.968601  0.0
H  H15  1  0.25313970  0.91465355  0.03851645  1  0.423113  0.000341  0.299698  0.238444  0.000158  0.968679  0.0
H  H16  1  0.63153046  0.64511063  0.05976247  1  0.095038  0.00037  0.100746  0.101549  0.00019  1.02124  0.0
H  H17  1  0.63171636  0.85500573  0.44015157  1  0.092213  0.000371  0.100944  0.101951  0.00019  1.021137  0.0
H  H18  1  0.36849054  0.35489560  0.94022163  1  0.094575  0.00037  0.100756  0.101503  0.00019  1.021349  0.0
H  H19  1  0.36823108  0.14499387  0.55984155  1  0.092521  0.00037  0.100841  0.101879  0.00019  1.021211  0.0
H  H20  1  0.69091556  0.63626788  0.94732430  1  0.085149  0.000635  0.102604  0.105124  0.000322  0.999798  0.0
H  H21  1  0.69108197  0.86387312  0.55259773  1  0.094916  0.000631  0.102676  0.105197  0.000322  0.999373  0.0
H  H22  1  0.30908002  0.36374039  0.05265662  1  0.08512  0.000635  0.1026  0.105052  0.000322  0.999859  0.0
H  H23  1  0.30890361  0.13613369  0.44739332  1  0.095015  0.000631  0.102694  0.105203  0.000322  0.999432  0.0
H  H24  1  0.68377061  0.85751017  0.94195637  1  0.084569  0.000334  0.100781  0.102618  0.00016  1.017515  0.0
H  H25  1  0.68366124  0.64263754  0.55807078  1  0.083074  0.000333  0.10071  0.102576  0.000159  1.017441  0.0
H  H26  1  0.31620679  0.14250598  0.05803822  1  0.082291  0.000334  0.100799  0.102709  0.000159  1.017404  0.0
H  H27  1  0.31637430  0.35736674  0.44192573  1  0.082815  0.000333  0.10069  0.102507  0.000159  1.01757  0.0
H  H28  1  0.62253194  0.86610689  0.05425009  1  0.086778  0.000618  0.103918  0.106886  0.000318  0.997755  0.0
H  H29  1  0.62242286  0.63400255  0.44577186  1  0.08564  0.000618  0.103926  0.106585  0.000318  0.997529  0.0
H  H30  1  0.37746454  0.13388967  0.94574988  1  0.086654  0.000618  0.103941  0.10691  0.000318  0.997723  0.0
H  H31  1  0.37758361  0.36600073  0.55422925  1  0.085551  0.000618  0.103939  0.106695  0.000318  0.997368  0.0
H  H32  1  0.95919903  0.85670262  0.28133614  1  0.063986  0.0005  0.105856  0.108303  0.000266  1.003888  0.0
H  H33  1  0.95930898  0.64336023  0.21868469  1  0.063968  0.000501  0.105625  0.108015  0.000266  1.003979  0.0
H  H34  1  0.04077838  0.14329150  0.71867992  1  0.063496  0.000501  0.105796  0.108173  0.000266  1.004112  0.0
H  H35  1  0.04067661  0.35663590  0.78132450  1  0.064194  0.0005  0.105619  0.108017  0.000266  1.004034  0.0
H  H36  1  0.18721081  0.85670309  0.28156889  1  0.088991  0.000464  0.104528  0.102963  0.000239  1.020361  0.0
H  H37  1  0.18734345  0.64336182  0.21845930  1  0.076996  0.000465  0.104534  0.102944  0.000239  1.020203  0.0
H  H38  1  0.81277568  0.14329969  0.71843312  1  0.088873  0.000464  0.104525  0.102974  0.000239  1.020591  0.0
H  H39  1  0.81263850  0.35663677  0.78153611  1  0.076896  0.000465  0.104509  0.10291  0.000239  1.020057  0.0
H  H40  1  0.34677450  0.64038540  0.73075182  1  0.110232  0.0005  0.1062  0.107945  0.000266  1.006757  0.0
H  H41  1  0.34660735  0.85987241  0.76914999  1  0.115464  0.000501  0.1064  0.108386  0.000265  1.006107  0.0
H  H42  1  0.65322925  0.35961735  0.26924696  1  0.110488  0.0005  0.106213  0.107906  0.000266  1.006765  0.0
H  H43  1  0.65340729  0.14012989  0.23085617  1  0.115644  0.000502  0.106386  0.108399  0.000266  1.006038  0.0
H  H44  1  0.11868605  0.64035639  0.73102196  1  0.124231  0.000512  0.106785  0.110266  0.00027  0.998379  0.0
H  H45  1  0.11848529  0.85984168  0.76893138  1  0.121168  0.000513  0.107106  0.110444  0.000269  0.99781  0.0
H  H46  1  0.88132406  0.35965155  0.26897976  1  0.123939  0.000512  0.106887  0.110472  0.00027  0.998254  0.0
H  H47  1  0.88153117  0.14016112  0.23107341  1  0.121163  0.000513  0.107146  0.110584  0.000269  0.997727  0.0
H  H48  1  0.39895738  0.93856501  0.26368552  1  0.080107  0.001175  0.113222  0.081817  0.000355  1.023519  0.001
H  H49  1  0.39900510  0.56159698  0.23642864  1  0.076884  0.001177  0.113247  0.081699  0.000355  1.023443  0.001
H  H50  1  0.60105182  0.06144126  0.73630274  1  0.080023  0.001175  0.113214  0.08179  0.000355  1.023464  0.001
H  H51  1  0.60098593  0.43840152  0.76355705  1  0.076798  0.001177  0.113143  0.08159  0.000355  1.023489  0.001
H  H52  1  0.39651651  0.05641116  0.31741755  1  0.153444  0.00059  0.109273  0.12326  0.000165  1.02227  0.0
H  H53  1  0.39657943  0.44371356  0.18277203  1  0.100256  0.000608  0.109212  0.123347  0.000165  1.022174  0.0
H  H54  1  0.60349541  0.94359463  0.68257393  1  0.153484  0.00059  0.109299  0.123355  0.000165  1.022054  0.0
H  H55  1  0.60342342  0.55628448  0.81722058  1  0.099917  0.000608  0.109233  0.123399  0.000165  1.022053  0.0
H  H56  1  0.76623233  0.02051727  0.37299993  1  0.110569  0.000606  0.108894  0.120116  0.000263  0.993  0.0
H  H57  1  0.76618488  0.47951663  0.12702873  1  0.110684  0.000607  0.10896  0.120154  0.000263  0.9927  0.0
H  H58  1  0.23376144  0.97946243  0.62702167  1  0.110732  0.000606  0.108956  0.12024  0.000263  0.993039  0.0
H  H59  1  0.23383886  0.52044924  0.87300722  1  0.11125  0.000607  0.108879  0.12017  0.000263  0.992376  0.0
H  H60  1  0.75367743  0.90462537  0.31599554  1  0.131453  0.001101  0.116044  0.089741  0.000327  1.017041  0.001
H  H61  1  0.75365214  0.59543802  0.18398324  1  0.131449  0.001102  0.116077  0.089781  0.000327  1.017112  0.001
H  H62  1  0.24631089  0.09535531  0.68401916  1  0.131739  0.001101  0.116046  0.089746  0.000326  1.017231  0.001
H  H63  1  0.24636796  0.40453497  0.81603861  1  0.131412  0.001103  0.116204  0.089523  0.000327  1.017368  0.001
H  H64  1  0.64915437  0.15018402  0.35075470  1  0.071056  0.00048  0.107424  0.090217  0.000152  0.996225  0.0
H  H65  1  0.64910852  0.34985421  0.14934452  1  0.070665  0.000481  0.107576  0.090245  0.000152  0.996233  0.0
H  H66  1  0.35087300  0.84979766  0.64925726  1  0.07123  0.000481  0.107467  0.090164  0.000152  0.996196  0.0
H  H67  1  0.35088615  0.65012131  0.85067186  1  0.070532  0.00048  0.107475  0.089926  0.000152  0.996178  0.0
H  H68  1  0.49601751  0.14461523  0.37462731  1  0.07205  0.000788  0.098432  0.079032  0.000279  1.011256  0.001
H  H69  1  0.49597832  0.35548402  0.12547843  1  0.071289  0.00079  0.098452  0.078859  0.000279  1.011408  0.001
H  H70  1  0.50401167  0.85538187  0.62537545  1  0.071848  0.00079  0.09832  0.078956  0.00028  1.011164  0.001
H  H71  1  0.50401817  0.64450235  0.87453692  1  0.071495  0.000789  0.098372  0.078701  0.00028  1.011318  0.001
H  H72  1  0.72035272  0.25243438  0.61553483  1  0.029428  -7.3e-05  0.092813  0.099612  -0.000162  1.052046  0.0
H  H73  1  0.72045838  0.24767420  0.88451663  1  0.031204  -7.2e-05  0.093041  0.100099  -0.000161  1.051876  0.0
H  H74  1  0.27960108  0.74757725  0.38447441  1  0.029506  -7.3e-05  0.09285  0.099659  -0.000162  1.052086  0.0
H  H75  1  0.27954900  0.75233272  0.11548598  1  0.031001  -7.2e-05  0.093029  0.10013  -0.000161  1.051895  0.0
H  H76  1  0.62432547  0.24646627  0.39235153  1  0.005456  -2.3e-05  0.093308  0.098621  -0.000106  1.050789  0.0
H  H77  1  0.62424809  0.25357317  0.10768237  1  0.004738  -2.3e-05  0.093039  0.098261  -0.000106  1.05088  0.0
H  H78  1  0.37571007  0.75351890  0.60764668  1  0.005692  -2.3e-05  0.093313  0.098634  -0.000106  1.05098  0.0
H  H79  1  0.37574930  0.74640433  0.89232436  1  0.004966  -2.3e-05  0.093021  0.098178  -0.000106  1.050833  0.0
H  H80  1  0.58631627  0.09778981  0.57176128  1  0.043161  0.000246  0.084704  0.111554  8.6e-05  1.018422  0.0
H  H81  1  0.58635938  0.40233780  0.92832365  1  0.04583  0.000247  0.084665  0.111513  8.7e-05  1.018421  0.0
H  H82  1  0.41363481  0.90222439  0.42824666  1  0.043498  0.000247  0.084648  0.111426  8.7e-05  1.018493  0.0
H  H83  1  0.41365526  0.59767027  0.07169195  1  0.04516  0.000247  0.084701  0.111547  8.7e-05  1.018332  0.0
H  H84  1  0.69849429  0.13434670  0.62109162  1  0.039823  5e-05  0.089922  0.130033  -5e-06  1.012792  0.0
H  H85  1  0.69863249  0.36578746  0.87901693  1  0.042205  4.9e-05  0.089827  0.130134  -5e-06  1.012373  0.0
H  H86  1  0.30144861  0.86566499  0.37892456  1  0.040304  5e-05  0.089835  0.129983  -5e-06  1.012953  0.0
H  H87  1  0.30139397  0.63421857  0.12100322  1  0.041626  4.9e-05  0.089895  0.130179  -5e-06  1.012471  0.0
H  H88  1  0.74207876  0.08448115  0.55333385  1  0.033098  0.000108  0.086245  0.116426  4e-05  1.000744  0.0
H  H89  1  0.74209426  0.41558571  0.94682134  1  0.03196  0.000109  0.086402  0.116621  4.1e-05  1.000891  0.0
H  H90  1  0.25788230  0.91551665  0.44668927  1  0.033923  0.000108  0.086247  0.116492  4e-05  1.000789  0.0
H  H91  1  0.25791403  0.58441215  0.05320825  1  0.032234  0.000109  0.086363  0.116496  4.1e-05  1.000761  0.0
H  H92  1  0.58948031  0.41165943  0.45800876  1  0.020327  0.000165  0.086307  0.114212  5.7e-05  1.007249  0.0
H  H93  1  0.58950531  0.08840710  0.04202395  1  0.022368  0.000165  0.086292  0.114031  5.7e-05  1.00726  0.0
H  H94  1  0.41052980  0.58833136  0.54198131  1  0.01984  0.000165  0.086385  0.114275  5.7e-05  1.007329  0.0
H  H95  1  0.41052115  0.91157236  0.95797037  1  0.02267  0.000165  0.086294  0.114023  5.7e-05  1.007398  0.0
H  H96  1  0.63090160  0.36488504  0.38846442  1  0.037543  1.9e-05  0.089723  0.126589  -1.3e-05  1.014988  0.0
H  H97  1  0.63084628  0.13519200  0.11155504  1  0.038212  1.9e-05  0.089662  0.126515  -1.3e-05  1.015144  0.0
H  H98  1  0.36912032  0.63509796  0.61152215  1  0.037152  1.9e-05  0.089789  0.126721  -1.3e-05  1.01479  0.0
H  H99  1  0.36917019  0.86478390  0.88844564  1  0.038401  1.9e-05  0.08964  0.126449  -1.3e-05  1.015229  0.0
H  H100  1  0.74420029  0.40530837  0.43548062  1  0.01051  0.000223  0.087076  0.112693  8.5e-05  0.998475  0.0
H  H101  1  0.74419656  0.09474018  0.06459137  1  0.009755  0.000222  0.087028  0.112814  8.4e-05  0.998306  0.0
H  H102  1  0.25581436  0.59468038  0.56451215  1  0.011183  0.000223  0.08708  0.112748  8.5e-05  0.998474  0.0
H  H103  1  0.25582808  0.90524809  0.93540647  1  0.010174  0.000223  0.087063  0.112843  8.4e-05  0.998266  0.0
H  H104  1  0.85478114  0.36128500  0.63116725  1  0.019791  0.001025  0.097651  0.071768  0.000404  0.970067  0.001
H  H105  1  0.85504820  0.13870603  0.86893674  1  0.017156  0.001028  0.097674  0.071809  0.000405  0.969959  0.001
H  H106  1  0.14515631  0.63871885  0.36883850  1  0.019526  0.001026  0.097729  0.071874  0.000404  0.969804  0.001
H  H107  1  0.14500005  0.86129888  0.13107367  1  0.017765  0.001028  0.097741  0.071725  0.000405  0.969916  0.001
H  H108  1  0.70414805  0.34879869  0.65696376  1  0.108454  0.000507  0.114352  0.107371  0.000179  0.994666  0.0
H  H109  1  0.70446743  0.15134396  0.84309564  1  0.110406  0.000507  0.11426  0.107271  0.000179  0.99515  0.0
H  H110  1  0.29578395  0.65122005  0.34303230  1  0.109036  0.000507  0.114309  0.107429  0.000179  0.994773  0.0
H  H111  1  0.29557900  0.84866089  0.15690829  1  0.110387  0.000507  0.114227  0.107245  0.000179  0.995183  0.0
H  H112  1  0.92222583  0.44543046  0.70903391  1  0.072589  0.000703  0.107912  0.116099  0.000269  1.008496  0.0
H  H113  1  0.92241189  0.05454582  0.79105295  1  0.071123  0.000704  0.107961  0.116015  0.000269  1.009057  0.0
H  H114  1  0.07772707  0.55455932  0.29095843  1  0.072208  0.000703  0.107958  0.116059  0.000269  1.00863  0.0
H  H115  1  0.07765453  0.94545289  0.20895772  1  0.071241  0.000704  0.108012  0.116065  0.000269  1.008882  0.0
H  H116  1  0.89830651  0.56317377  0.76116149  1  0.079054  0.001307  0.1225  0.096178  0.000416  0.982196  0.001
H  H117  1  0.89836333  0.93685225  0.73886128  1  0.078272  0.001309  0.122462  0.096021  0.000416  0.982292  0.001
H  H118  1  0.10168453  0.43682222  0.23883198  1  0.078925  0.001307  0.122391  0.096025  0.000416  0.982296  0.001
H  H119  1  0.10167857  0.06315459  0.26113301  1  0.078435  0.00131  0.12248  0.096124  0.000417  0.982004  0.001
H  H120  1  0.57654708  0.59738346  0.66944119  1  0.118262  0.001162  0.120065  0.092421  0.000338  1.00634  0.001
H  H121  1  0.57640835  0.90287788  0.83045304  1  0.121931  0.001161  0.11969  0.092014  0.000339  1.006734  0.001
H  H122  1  0.42346030  0.40264142  0.33054860  1  0.119043  0.001161  0.120062  0.092521  0.000338  1.006386  0.001
H  H123  1  0.42359902  0.09715143  0.16951193  1  0.121331  0.001162  0.119642  0.092056  0.000339  1.006428  0.001
H  H124  1  0.58497324  0.48030928  0.61396126  1  0.08656  0.000614  0.110878  0.121211  0.000261  0.999964  0.0
H  H125  1  0.58499232  0.01991453  0.88599366  1  0.10044  0.000611  0.111003  0.121343  0.000262  1.000039  0.0
H  H126  1  0.41499781  0.51971765  0.38602536  1  0.087382  0.000613  0.110849  0.121209  0.000261  1.000228  0.0
H  H127  1  0.41502959  0.98010457  0.11398393  1  0.099455  0.000611  0.110984  0.121246  0.000262  1.000485  0.0
C  C128  1  0.58956999  0.75926816  0.12986930  1  1.55981  -0.00922  0.213272  0.566689  -0.012356  4.165434  -0.008
C  C129  1  0.58955954  0.74083570  0.37011340  1  1.558096  -0.009199  0.214146  0.56855  -0.012348  4.164937  -0.008
C  C130  1  0.41044012  0.24072836  0.87012603  1  1.560043  -0.009219  0.213127  0.566664  -0.012353  4.165627  -0.008
C  C131  1  0.41040516  0.25916240  0.62988523  1  1.557674  -0.0092  0.214135  0.568558  -0.012352  4.164874  -0.008
C  C132  1  0.62299971  0.75596511  0.06304000  1  -0.013935  0.007092  -0.008335  -0.014895  0.00373  3.954484  0.006
C  C133  1  0.62301587  0.74415006  0.43693775  1  -0.011213  0.007105  -0.008582  -0.01657  0.003738  3.955293  0.006
C  C134  1  0.37699859  0.24403964  0.93695191  1  -0.01351  0.007095  -0.008294  -0.015085  0.003731  3.955179  0.006
C  C135  1  0.37695700  0.25585115  0.56306144  1  -0.010906  0.007102  -0.008726  -0.016752  0.003738  3.95582  0.006
C  C136  1  0.64292064  0.69113105  0.03318674  1  0.018729  -0.000506  -0.083083  -0.092249  -0.000983  3.975487  0.0
C  C137  1  0.64298935  0.80899998  0.46677270  1  0.015792  -0.000504  -0.083472  -0.092494  -0.000982  3.974699  0.0
C  C138  1  0.35709128  0.30887988  0.96680213  1  0.018178  -0.000506  -0.08318  -0.092109  -0.000984  3.975295  0.0
C  C139  1  0.35697171  0.19100434  0.53322798  1  0.015526  -0.000504  -0.083213  -0.09221  -0.000983  3.974816  0.0
C  C140  1  0.67605401  0.68629876  0.97120440  1  -0.089664  -0.000248  -0.08568  -0.098266  -0.000835  3.989516  0.0
C  C141  1  0.67611648  0.81383509  0.52875706  1  -0.098669  -0.000233  -0.085657  -0.098451  -0.000825  3.989193  0.0
C  C142  1  0.32395337  0.31370904  0.02878160  1  -0.089446  -0.000245  -0.08572  -0.098379  -0.000831  3.989677  0.0
C  C143  1  0.32387001  0.18616972  0.47124039  1  -0.098398  -0.000235  -0.085784  -0.098525  -0.000827  3.989501  0.0
C  C144  1  0.69023616  0.74649084  0.93830541  1  -0.024042  0.006903  -0.015067  -0.024755  0.00364  3.968363  0.006
C  C145  1  0.69020654  0.75364563  0.56167472  1  0.030268  0.006872  -0.014798  -0.024411  0.00364  3.967936  0.006
C  C146  1  0.30976486  0.25352113  0.06168396  1  -0.025368  0.006904  -0.014892  -0.024448  0.00364  3.968589  0.006
C  C147  1  0.30980448  0.24635759  0.43831945  1  0.029831  0.006871  -0.01486  -0.024692  0.00364  3.968114  0.006
C  C148  1  0.67196178  0.81138725  0.96838865  1  -0.019346  -0.000596  -0.082493  -0.089055  -0.001091  3.964162  0.0
C  C149  1  0.67186510  0.68874764  0.53161813  1  -0.07162  -0.000555  -0.083237  -0.090298  -0.001083  3.963133  0.0
C  C150  1  0.32803833  0.18862474  0.03160396  1  -0.015194  -0.000595  -0.082654  -0.089333  -0.001089  3.964183  0.0
C  C151  1  0.32814591  0.31125508  0.46837834  1  -0.071129  -0.000556  -0.083133  -0.089963  -0.001084  3.963114  0.0
C  C152  1  0.63813910  0.81616566  0.03034842  1  -0.071802  -0.00031  -0.080489  -0.090047  -0.000894  3.969504  0.0
C  C153  1  0.63806044  0.68395101  0.46965490  1  -0.070033  -0.00031  -0.079673  -0.087744  -0.000894  3.968321  0.0
C  C154  1  0.36185830  0.18383908  0.96964210  1  -0.072018  -0.000312  -0.080444  -0.089923  -0.000895  3.969745  0.0
C  C155  1  0.36193513  0.31605382  0.53034487  1  -0.069814  -0.000311  -0.079703  -0.087955  -0.000894  3.968225  0.0
C  C156  1  0.71879537  0.74248172  0.87093237  1  1.509725  -0.009052  0.212159  0.566925  -0.012263  4.165531  -0.008
C  C157  1  0.71885925  0.75766835  0.62904286  1  1.503752  -0.009044  0.212286  0.567426  -0.012241  4.164702  -0.008
C  C158  1  0.28118203  0.25753798  0.12905448  1  1.508861  -0.00904  0.212452  0.567567  -0.012248  4.165203  -0.008
C  C159  1  0.28117538  0.24233948  0.37094638  1  1.504038  -0.009052  0.212071  0.567423  -0.01225  4.165323  -0.008
C  C160  1  0.81097979  0.75003743  0.25000225  1  1.574561  -0.011715  0.215584  0.565407  -0.015679  4.170639  -0.01
C  C161  1  0.18900307  0.24995872  0.75001018  1  1.574544  -0.01171  0.215638  0.565457  -0.015676  4.170916  -0.01
C  C162  1  0.94631672  0.75003729  0.25000548  1  -0.053764  0.005743  -0.010028  -0.01029  0.002866  3.958319  0.005
C  C163  1  0.05366432  0.24995161  0.75000533  1  -0.052423  0.005742  -0.009994  -0.010495  0.002866  3.958898  0.005
C  C164  1  0.01026295  0.81031350  0.26762207  1  -0.046148  -0.000678  -0.082476  -0.099394  -0.001199  3.974443  0.0
C  C165  1  0.01032481  0.68975201  0.23240587  1  -0.04456  -0.000676  -0.082029  -0.098901  -0.001199  3.973851  0.0
C  C166  1  0.98972355  0.18967796  0.73238605  1  -0.045795  -0.000676  -0.082341  -0.098914  -0.001198  3.974622  0.0
C  C167  1  0.98965805  0.31024048  0.76760135  1  -0.045438  -0.000674  -0.082167  -0.099114  -0.001198  3.974011  0.0
C  C168  1  0.13644253  0.81029492  0.26773793  1  -0.028114  -0.000968  -0.082561  -0.098385  -0.001549  3.98903  0.0
C  C169  1  0.13651346  0.68976604  0.23229487  1  -0.018092  -0.000969  -0.082602  -0.098244  -0.001548  3.988544  0.0
C  C170  1  0.86354397  0.18970065  0.73226662  1  -0.028393  -0.000969  -0.082675  -0.098693  -0.00155  3.989306  0.0
C  C171  1  0.86346396  0.31022947  0.76770228  1  -0.018233  -0.000969  -0.082475  -0.098073  -0.001549  3.987924  0.0
C  C172  1  0.20042466  0.75003479  0.25001398  1  0.050331  0.006025  -0.015374  -0.035528  0.003086  3.992219  0.006
C  C173  1  0.79955548  0.24996171  0.74997950  1  0.050333  0.006028  -0.015162  -0.035069  0.003088  3.991919  0.006
C  C174  1  0.33554090  0.75004749  0.25000607  1  1.476144  -0.013688  0.214659  0.550566  -0.018189  4.190331  -0.011
C  C175  1  0.66443924  0.24994948  0.74998188  1  1.475995  -0.013689  0.214311  0.549926  -0.018195  4.191403  -0.011
C  C176  1  0.49510546  0.75010301  0.74996119  1  1.499395  -0.010907  0.212057  0.555241  -0.014923  4.176775  -0.009
C  C177  1  0.50490646  0.24989864  0.25003062  1  1.499582  -0.010909  0.211914  0.555057  -0.014924  4.176828  -0.009
C  C178  1  0.35982301  0.75012325  0.74995261  1  0.075641  0.005828  -0.016454  -0.036837  0.003124  3.987101  0.005
C  C179  1  0.64019527  0.24988112  0.25005408  1  0.072672  0.005831  -0.016381  -0.036764  0.003124  3.987252  0.005
C  C180  1  0.29581060  0.68813315  0.73910541  1  -0.031214  -0.001027  -0.082511  -0.100078  -0.001546  3.992507  0.0
C  C181  1  0.29572776  0.81210779  0.76080013  1  -0.042237  -0.001026  -0.082944  -0.10116  -0.001548  3.99176  0.0
C  C182  1  0.70420132  0.31187225  0.26090085  1  -0.031516  -0.001025  -0.082699  -0.100135  -0.001544  3.992684  0.0
C  C183  1  0.70428689  0.18789659  0.23920749  1  -0.039045  -0.001027  -0.082834  -0.101064  -0.001547  3.991839  0.0
C  C184  1  0.16959017  0.68809567  0.73930996  1  -0.181525  -0.000382  -0.078777  -0.090696  -0.000994  3.9605  0.0
C  C185  1  0.16949278  0.81212136  0.76064295  1  -0.18573  -0.000384  -0.07939  -0.090945  -0.000995  3.959685  0.0
C  C186  1  0.83041994  0.31191230  0.26069500  1  -0.182226  -0.000382  -0.078938  -0.09105  -0.000994  3.960542  0.0
C  C187  1  0.83051914  0.18788097  0.23936691  1  -0.187009  -0.000383  -0.079508  -0.091249  -0.000995  3.959862  0.0
C  C188  1  0.10565111  0.75009937  0.74998796  1  0.070179  0.005687  -0.007522  -0.010159  0.002759  3.952  0.005
C  C189  1  0.89435627  0.24990606  0.25002154  1  0.071914  0.005686  -0.007391  -0.009874  0.00276  3.951952  0.005
C  C190  1  0.97040268  0.75007674  0.74999245  1  1.54767  -0.012853  0.218187  0.571195  -0.017106  4.156108  -0.011
C  C191  1  0.02960016  0.24993324  0.25000564  1  1.547561  -0.012848  0.218208  0.57112  -0.017095  4.155846  -0.011
C  C192  1  0.47898865  0.95916402  0.28776097  1  0.464335  0.000711  0.049097  0.098467  -0.000245  3.946001  0.001
C  C193  1  0.47900558  0.54096623  0.21232958  1  0.465118  0.000706  0.048902  0.098353  -0.000252  3.946398  0.001
C  C194  1  0.52101419  0.04084126  0.71223142  1  0.464719  0.000711  0.049082  0.098493  -0.000245  3.946219  0.001
C  C195  1  0.52099272  0.45903134  0.78766718  1  0.464652  0.000707  0.049023  0.098583  -0.000251  3.946205  0.001
C  C196  1  0.47757816  0.02414645  0.31820485  1  -0.085082  0.002991  -0.087305  -0.189733  0.001441  3.941518  0.002
C  C197  1  0.47762385  0.47595394  0.18194103  1  -0.029541  0.002975  -0.087388  -0.19022  0.001443  3.94197  0.002
C  C198  1  0.52243013  0.97585729  0.68178934  1  -0.08536  0.00299  -0.087335  -0.189862  0.001441  3.941284  0.002
C  C199  1  0.52237627  0.52404157  0.81805659  1  -0.028831  0.002974  -0.08741  -0.190304  0.001443  3.942091  0.002
C  C200  1  0.58185123  0.04820376  0.34901117  1  0.013905  -0.001071  0.010621  0.14178  -0.001263  3.960741  -0.001
C  C201  1  0.58185124  0.45186557  0.15108769  1  0.011961  -0.001082  0.010395  0.142206  -0.001274  3.958954  -0.001
C  C202  1  0.41815162  0.95178617  0.65099874  1  0.013822  -0.001069  0.010691  0.142133  -0.001261  3.960054  -0.001
C  C203  1  0.41815342  0.54812026  0.84892626  1  0.01182  -0.001082  0.010352  0.141732  -0.001275  3.959357  -0.001
C  C204  1  0.68327922  0.00441704  0.34884892  1  -0.064626  0.00268  -0.090275  -0.197115  0.001314  3.970542  0.002
C  C205  1  0.68325473  0.49563718  0.15120297  1  -0.061114  0.002683  -0.090097  -0.196842  0.001316  3.969267  0.002
C  C206  1  0.31671364  0.99556621  0.65116494  1  -0.065081  0.00268  -0.09039  -0.197301  0.001314  3.970062  0.002
C  C207  1  0.31676992  0.50433535  0.84882533  1  -0.062063  0.002684  -0.089898  -0.196613  0.001316  3.969063  0.002
C  C208  1  0.67718684  0.94039851  0.31737919  1  0.430122  -0.000632  0.044933  0.09499  -0.001473  3.951884  0.0
C  C209  1  0.67717131  0.55967358  0.18265115  1  0.429639  -0.000639  0.044682  0.094419  -0.001477  3.95214  0.0
C  C210  1  0.32279693  0.05958577  0.68263424  1  0.430018  -0.000631  0.045016  0.094915  -0.00147  3.952097  0.0
C  C211  1  0.32284152  0.44030711  0.81736540  1  0.430155  -0.000639  0.044523  0.094619  -0.001478  3.952045  0.0
C  C212  1  0.58601951  0.11989807  0.37841270  1  0.31276  0.000526  -0.061623  -0.068961  0.000248  3.966614  0.0
C  C213  1  0.58598479  0.38015924  0.12168440  1  0.313731  0.000523  -0.061607  -0.068755  0.000247  3.967354  0.0
C  C214  1  0.41398515  0.88009182  0.62159259  1  0.312971  0.000526  -0.061632  -0.069035  0.000248  3.966772  0.0
C  C215  1  0.41401533  0.61981938  0.87833162  1  0.313727  0.000522  -0.061489  -0.068035  0.000247  3.966577  0.0
C  C216  1  0.65094780  0.18499147  0.47250951  1  0.350855  0.005724  0.073264  0.150722  0.002741  4.079372  0.003
C  C217  1  0.65088793  0.31506783  0.02755019  1  0.351886  0.005727  0.073129  0.150006  0.002743  4.07933  0.003
C  C218  1  0.34905504  0.81500048  0.52749539  1  0.350576  0.005733  0.073181  0.150361  0.002746  4.079686  0.003
C  C219  1  0.34910946  0.68492004  0.97246059  1  0.351662  0.005725  0.073108  0.150002  0.002742  4.079775  0.003
C  C220  1  0.67620960  0.18759457  0.53659380  1  -0.00257  0.003931  -0.026786  0.07882  0.001944  3.99679  0.002
C  C221  1  0.67621842  0.31248173  0.96347341  1  0.013096  0.003941  -0.026469  0.0802  0.001949  3.996857  0.002
C  C222  1  0.32376328  0.81240515  0.46341366  1  -0.002366  0.003937  -0.026548  0.079393  0.001947  3.996496  0.002
C  C223  1  0.32377716  0.68751495  0.03653996  1  0.013369  0.003936  -0.026525  0.080042  0.001946  3.99691  0.002
C  C224  1  0.69963987  0.25163474  0.56626910  1  -0.042201  0.001046  -0.115297  -0.248814  0.000387  4.00222  0.0
C  C225  1  0.69971473  0.24845021  0.93378561  1  -0.056879  0.001047  -0.115716  -0.249979  0.000388  4.003577  0.0
C  C226  1  0.30033754  0.74837065  0.43373624  1  -0.04239  0.001048  -0.115364  -0.248991  0.000388  4.002424  0.0
C  C227  1  0.30029084  0.75154849  0.06622275  1  -0.057177  0.001046  -0.115719  -0.250034  0.000388  4.003569  0.0
C  C228  1  0.69581566  0.31368841  0.53508620  1  0.340271  0.005809  0.072614  0.148479  0.002825  4.08593  0.003
C  C229  1  0.69587557  0.18638506  0.96494683  1  0.340752  0.005807  0.0727  0.148471  0.002824  4.08602  0.003
C  C230  1  0.30416993  0.68631227  0.46491205  1  0.339898  0.005821  0.072548  0.148343  0.00283  4.08579  0.003
C  C231  1  0.30413999  0.81361152  0.03505544  1  0.341107  0.005801  0.072664  0.148424  0.002821  4.086269  0.003
C  C232  1  0.66841414  0.31114629  0.47127715  1  0.04758  0.00384  -0.029353  0.071493  0.001895  4.012147  0.002
C  C233  1  0.66839812  0.18891001  0.02874928  1  0.047279  0.003843  -0.029077  0.072058  0.001896  4.012518  0.002
C  C234  1  0.33159324  0.68884508  0.52871987  1  0.047181  0.003846  -0.029289  0.071601  0.001898  4.011949  0.002
C  C235  1  0.33161654  0.81107523  0.97125586  1  0.047655  0.003842  -0.029026  0.072011  0.001896  4.012447  0.002
C  C236  1  0.64703004  0.24707971  0.44137860  1  0.01489  0.001531  -0.11348  -0.245833  0.000706  4.003439  0.001
C  C237  1  0.64696522  0.25296914  0.05865807  1  0.012491  0.001528  -0.113171  -0.245414  0.000704  4.003517  0.001
C  C238  1  0.35299369  0.75291013  0.55862160  1  0.015194  0.001535  -0.113508  -0.245813  0.000708  4.00366  0.001
C  C239  1  0.35303036  0.74701403  0.94134747  1  0.012186  0.001526  -0.113044  -0.244972  0.000703  4.003223  0.001
C  C240  1  0.67643170  0.12280389  0.57228973  1  -0.086869  1e-05  -0.239866  -0.390513  -7.3e-05  3.990325  0.0
C  C241  1  0.67648674  0.37729648  0.92781572  1  -0.091426  9e-06  -0.239998  -0.39116  -7.4e-05  3.991128  0.0
C  C242  1  0.32353209  0.87719900  0.42772431  1  -0.088297  1e-05  -0.239853  -0.390568  -7.4e-05  3.990568  0.0
C  C243  1  0.32352519  0.62270803  0.07220670  1  -0.090636  9e-06  -0.240023  -0.391024  -7.4e-05  3.990844  0.0
C  C244  1  0.65781395  0.37644675  0.43664000  1  -0.071181  -4.3e-05  -0.237952  -0.389177  -0.000127  3.998141  0.0
C  C245  1  0.65780459  0.12361795  0.06339172  1  -0.072464  -4.4e-05  -0.237879  -0.389134  -0.000127  3.998607  0.0
C  C246  1  0.34220433  0.62354403  0.56334960  1  -0.071047  -4.4e-05  -0.23813  -0.389462  -0.000127  3.99817  0.0
C  C247  1  0.34221551  0.87636363  0.93660914  1  -0.072988  -4.4e-05  -0.237973  -0.38918  -0.000127  3.99874  0.0
C  C248  1  0.76091310  0.38156106  0.62813571  1  0.350183  0.000472  -0.056746  -0.066892  0.000214  3.976793  0.0
C  C249  1  0.76113722  0.11851076  0.87191898  1  0.350399  0.00047  -0.056469  -0.066414  0.000213  3.976324  0.0
C  C250  1  0.23902434  0.61845203  0.37186295  1  0.349284  0.000472  -0.056757  -0.066983  0.000213  3.976378  0.0
C  C251  1  0.23890467  0.88149510  0.12808082  1  0.349317  0.000471  -0.056631  -0.066481  0.000213  3.976253  0.0
C  C252  1  0.75452358  0.45327983  0.65728926  1  -0.057325  -0.001051  0.014084  0.143528  -0.001273  3.952104  -0.001
C  C253  1  0.75463305  0.04681482  0.84272175  1  -0.058501  -0.001046  0.013447  0.142511  -0.001268  3.952982  -0.001
C  C254  1  0.24543748  0.54673008  0.34270097  1  -0.056227  -0.00105  0.014376  0.143949  -0.001272  3.951872  -0.001
C  C255  1  0.24540612  0.95319664  0.15726899  1  -0.058949  -0.001049  0.013729  0.14272  -0.001272  3.952329  -0.001
C  C256  1  0.84327119  0.47722793  0.69935057  1  -0.055254  0.003215  -0.089971  -0.201387  0.001529  3.976058  0.003
C  C257  1  0.84338729  0.02281490  0.80068246  1  -0.055046  0.003215  -0.089567  -0.200861  0.001527  3.977044  0.003
C  C258  1  0.15669805  0.52277475  0.30063989  1  -0.056381  0.003215  -0.090113  -0.20152  0.001528  3.976334  0.003
C  C259  1  0.15665914  0.97719350  0.19931373  1  -0.054096  0.003217  -0.089641  -0.200801  0.001528  3.976456  0.003
C  C260  1  0.83054494  0.54228039  0.72860579  1  0.541007  0.000947  0.051802  0.096826  -2e-05  3.951622  0.001
C  C261  1  0.83059269  0.95778903  0.77139668  1  0.542773  0.000947  0.051351  0.096781  -1.8e-05  3.951663  0.001
C  C262  1  0.16943792  0.45772079  0.27139017  1  0.541321  0.000948  0.051748  0.096845  -1.9e-05  3.951613  0.001
C  C263  1  0.16944466  0.04222191  0.22859312  1  0.542718  0.000943  0.051438  0.096808  -2e-05  3.951327  0.001
C  C264  1  0.65102432  0.56155837  0.67672854  1  0.496738  -0.000944  0.052309  0.101949  -0.001798  3.946877  -0.001
C  C265  1  0.65097004  0.93863957  0.82320434  1  0.493903  -0.000935  0.052599  0.10209  -0.001797  3.946463  -0.001
C  C266  1  0.34896580  0.43845933  0.32326610  1  0.495347  -0.000943  0.052399  0.101956  -0.001799  3.946349  -0.001
C  C267  1  0.34904823  0.06138156  0.17676915  1  0.493996  -0.00094  0.052548  0.101958  -0.001799  3.946919  -0.001
C  C268  1  0.65662649  0.49714880  0.64596444  1  -0.049997  0.002748  -0.084039  -0.187864  0.001326  3.951426  0.002
C  C269  1  0.65664546  0.00302316  0.85400128  1  -0.064041  0.002753  -0.083845  -0.187233  0.001325  3.951153  0.002
C  C270  1  0.34334820  0.50286786  0.35403017  1  -0.04986  0.002747  -0.084265  -0.188218  0.001325  3.951723  0.002
C  C271  1  0.34338735  0.99699339  0.14598038  1  -0.06272  0.002755  -0.084  -0.187271  0.001326  3.95182  0.002
N  N272  1  0.57720824  0.91804811  0.28658946  1  -1.202973  0.051725  -0.315964  -0.206283  0.029024  3.473666  0.041
N  N273  1  0.57720559  0.58207056  0.21344912  1  -1.204519  0.051742  -0.315363  -0.205578  0.029034  3.473999  0.041
N  N274  1  0.42278189  0.08194589  0.71341319  1  -1.203364  0.051721  -0.315976  -0.206343  0.029022  3.473905  0.041
N  N275  1  0.42279634  0.41792038  0.78655898  1  -1.204576  0.051747  -0.315452  -0.205711  0.029037  3.473745  0.041
N  N276  1  0.63241725  0.12089704  0.44129561  1  -1.16327  0.011328  -0.451891  -0.347386  0.005593  3.536804  0.008
N  N277  1  0.63235856  0.37914990  0.05879453  1  -1.160653  0.011334  -0.452065  -0.347938  0.005596  3.538364  0.008
N  N278  1  0.36758650  0.87909182  0.55871103  1  -1.162899  0.011348  -0.451741  -0.347242  0.005603  3.537466  0.008
N  N279  1  0.36764247  0.62083336  0.94122118  1  -1.160227  0.011324  -0.452064  -0.347742  0.005591  3.538246  0.008
N  N280  1  0.71240984  0.37813432  0.56594866  1  -1.155993  0.009671  -0.450291  -0.339006  0.004768  3.550212  0.007
N  N281  1  0.71254413  0.12194226  0.93408598  1  -1.156276  0.009682  -0.450147  -0.338743  0.004773  3.549968  0.007
N  N282  1  0.28755395  0.62187146  0.43404282  1  -1.156042  0.009688  -0.450241  -0.338998  0.004776  3.550302  0.007
N  N283  1  0.28748051  0.87805429  0.06591352  1  -1.156078  0.009676  -0.450159  -0.338683  0.004771  3.550056  0.007
N  N284  1  0.73599511  0.58384789  0.71763838  1  -1.219819  0.051762  -0.321789  -0.211563  0.029071  3.504637  0.04
N  N285  1  0.73595670  0.91629568  0.78231132  1  -1.218575  0.05182  -0.321448  -0.211405  0.029099  3.504622  0.04
N  N286  1  0.26400228  0.41615836  0.28234710  1  -1.219407  0.051759  -0.321656  -0.211445  0.029069  3.503864  0.04
N  N287  1  0.26406158  0.08372236  0.21766392  1  -1.218996  0.051837  -0.321302  -0.211385  0.029106  3.505263  0.04
O  O288  1  0.58158516  0.81792060  0.15928812  1  -1.126401  0.094215  -0.309774  -0.510517  0.04962  2.291336  0.081
O  O289  1  0.58161186  0.68218195  0.34069865  1  -1.125872  0.09424  -0.310619  -0.511885  0.049636  2.291264  0.081
O  O290  1  0.41842768  0.18207337  0.84071130  1  -1.126484  0.09421  -0.30973  -0.510434  0.049619  2.291063  0.081
O  O291  1  0.41836465  0.31781560  0.65929626  1  -1.126042  0.094226  -0.31065  -0.511841  0.049625  2.2911  0.081
O  O292  1  0.57421648  0.70155989  0.15493145  1  -1.138846  0.079682  -0.303867  -0.534827  0.040628  2.422866  0.074
O  O293  1  0.57416056  0.79854850  0.34505869  1  -1.137387  0.079681  -0.30391  -0.535056  0.040625  2.423277  0.074
O  O294  1  0.42580090  0.29843559  0.84506292  1  -1.138835  0.079698  -0.303791  -0.53488  0.040638  2.422948  0.074
O  O295  1  0.42578597  0.20144962  0.65494132  1  -1.137354  0.079691  -0.303819  -0.535118  0.040631  2.423191  0.074
O  O296  1  0.73878637  0.79921608  0.84515223  1  -1.130333  0.076388  -0.302639  -0.533825  0.038878  2.402253  0.071
O  O297  1  0.73895157  0.70094232  0.65483080  1  -1.12852  0.076352  -0.302947  -0.534323  0.038859  2.40171  0.071
O  O298  1  0.26119195  0.20080728  0.15483937  1  -1.130513  0.076363  -0.302987  -0.534668  0.038867  2.402216  0.071
O  O299  1  0.26109577  0.29906809  0.34515852  1  -1.128844  0.07636  -0.302756  -0.534296  0.038864  2.402345  0.071
O  O300  1  0.71773283  0.68342572  0.84160666  1  -1.127046  0.092062  -0.312559  -0.524329  0.048503  2.322581  0.079
O  O301  1  0.71776209  0.81673725  0.65834818  1  -1.12256  0.092095  -0.312503  -0.524577  0.048502  2.322622  0.079
O  O302  1  0.28224003  0.31659703  0.15837567  1  -1.1261  0.092056  -0.312563  -0.524404  0.048492  2.322405  0.079
O  O303  1  0.28226800  0.18327313  0.34163698  1  -1.122613  0.092091  -0.31232  -0.524384  0.048506  2.32256  0.079
O  O304  1  0.75673202  0.80823631  0.25379805  1  -1.129166  0.081289  -0.299437  -0.517042  0.04248  2.388372  0.073
O  O305  1  0.75676693  0.69184584  0.24619523  1  -1.130044  0.081296  -0.299153  -0.516729  0.042474  2.388296  0.073
O  O306  1  0.24325720  0.19175983  0.74621299  1  -1.129031  0.081306  -0.299378  -0.516929  0.042486  2.38806  0.073
O  O307  1  0.24321411  0.30814719  0.75381525  1  -1.129928  0.081276  -0.299387  -0.516865  0.042462  2.388592  0.073
O  O308  1  0.38976549  0.80837662  0.25060613  1  -1.150454  0.084542  -0.298341  -0.516357  0.043848  2.401651  0.075
O  O309  1  0.38982780  0.69172385  0.24940146  1  -1.149224  0.084542  -0.298354  -0.516134  0.043868  2.402472  0.075
O  O310  1  0.61021647  0.19161982  0.74938088  1  -1.150609  0.084533  -0.298254  -0.51625  0.04385  2.40221  0.075
O  O311  1  0.61016052  0.30827674  0.75058661  1  -1.149166  0.084556  -0.298204  -0.515913  0.043875  2.402752  0.075
O  O312  1  0.54966922  0.69201557  0.74380783  1  -1.143759  0.079243  -0.301115  -0.520121  0.041121  2.386971  0.071
O  O313  1  0.54960900  0.80819090  0.75612880  1  -1.144847  0.079273  -0.301239  -0.52026  0.041118  2.387183  0.071
O  O314  1  0.45035360  0.30798759  0.25617847  1  -1.143938  0.079238  -0.30107  -0.519956  0.041118  2.386701  0.071
O  O315  1  0.45039747  0.19181173  0.24385610  1  -1.14464  0.079282  -0.301087  -0.520107  0.04112  2.387238  0.071
O  O316  1  0.91593919  0.69216818  0.75331159  1  -1.121487  0.089734  -0.30106  -0.515762  0.046968  2.370112  0.08
O  O317  1  0.91586971  0.80798142  0.74668020  1  -1.123691  0.089713  -0.301359  -0.515925  0.046972  2.371165  0.08
O  O318  1  0.08405729  0.30784231  0.24668605  1  -1.121951  0.08973  -0.301186  -0.515922  0.046965  2.369801  0.08
O  O319  1  0.08414948  0.19203422  0.25331530  1  -1.123353  0.089712  -0.301303  -0.515818  0.046975  2.370955  0.08
