# generated using pymatgen
data_NdH22C24N15O8
_symmetry_space_group_name_H-M   'P 1'
_cell_length_a   10.68202102
_cell_length_b   11.96971701
_cell_length_c   13.49957558
_cell_angle_alpha   94.36394959
_cell_angle_beta   101.18089951
_cell_angle_gamma   113.39944216
_symmetry_Int_Tables_number   1
_chemical_formula_structural   NdH22C24N15O8
_chemical_formula_sum   'Nd2 H44 C48 N30 O16'
_cell_volume   1531.41201987
_cell_formula_units_Z   2
loop_
 _symmetry_equiv_pos_site_id
 _symmetry_equiv_pos_as_xyz
  1  'x, y, z'
loop_
 _atom_site_type_symbol
 _atom_site_label
 _atom_site_symmetry_multiplicity
 _atom_site_fract_x
 _atom_site_fract_y
 _atom_site_fract_z
 _atom_site_occupancy
 _atom_site_hle17_bader_spin_density
 _atom_site_hle17_ddec_charge
 _atom_site_hle17_ddec_spin_density
 _atom_site_hle17_ddec_sum_bond_order
 _atom_site_hle17_magmom
 _atom_site_hse06_10hf_bader_spin_density
 _atom_site_hse06_10hf_ddec_charge
 _atom_site_hse06_10hf_ddec_spin_density
 _atom_site_hse06_10hf_ddec_sum_bond_order
 _atom_site_hse06_10hf_magmom
 _atom_site_hse06_bader_spin_density
 _atom_site_hse06_ddec_charge
 _atom_site_hse06_ddec_spin_density
 _atom_site_hse06_ddec_sum_bond_order
 _atom_site_hse06_magmom
 _atom_site_pbe_bader_spin_density
 _atom_site_pbe_cm5_charge
 _atom_site_pbe_ddec_charge
 _atom_site_pbe_ddec_spin_density
 _atom_site_pbe_ddec_sum_bond_order
 _atom_site_pbe_magmom
Nd  Nd0  1  0.94779179  0.11463321  0.41020141  1  0  2.279085  0  1.637848  0  0  2.10837  0  2.109454  0  0  2.209533  0  1.956722  0  0  1.473117  2.074246  0  2.144256  0
Nd  Nd1  1  0.05221002  0.88536753  0.58979815  1  0  2.279106  0  1.637811  0  0  2.108437  0  2.109329  0  0  2.209553  0  1.956677  0  0  1.473121  2.074299  0  2.144147  0
H  H2  1  0.04580544  0.12856561  0.18212038  1  0  0.097107  0  0.960438  0  0  0.101479  0  1.027385  0  0  0.104387  0  1.024935  0  0  0.122435  0.099304  0  1.029318  0
H  H3  1  0.95419122  0.87143237  0.81788041  1  0  0.097088  0  0.96045  0  0  0.10145  0  1.02739  0  0  0.104359  0  1.024942  0  0  0.122398  0.099276  0  1.029322  0
H  H4  1  0.63894917  0.95716451  0.21532624  1  0  0.083128  0  0.947135  0  0  0.087325  0  1.015386  0  0  0.089394  0  1.014163  0  0  0.119584  0.085681  0  1.016643  0
H  H5  1  0.36104698  0.04283440  0.78467454  1  0  0.083125  0  0.947192  0  0  0.08737  0  1.015377  0  0  0.08944  0  1.014153  0  0  0.119567  0.085724  0  1.016633  0
H  H6  1  0.00595825  0.36417537  0.51564758  1  0  0.434812  0  0.865051  0  0  0.404334  0  0.927124  0  0  0.416225  0  0.910102  0  0  0.294454  0.395787  0  0.939476  0
H  H7  1  0.99404120  0.63582446  0.48435302  1  0  0.434813  0  0.865047  0  0  0.404333  0  0.927122  0  0  0.416224  0  0.9101  0  0  0.294456  0.395786  0  0.939474  0
H  H8  1  0.98644424  0.28707015  0.60998663  1  0  0.399262  0  0.913856  0  0  0.356341  0  0.997619  0  0  0.368125  0  0.980971  0  0  0.283606  0.348101  0  1.009325  0
H  H9  1  0.01355433  0.71292782  0.39001298  1  0  0.399272  0  0.913842  0  0  0.356346  0  0.997612  0  0  0.368131  0  0.980965  0  0  0.2836  0.348105  0  1.009319  0
H  H10  1  0.23625809  0.57046680  0.32084758  1  0  0.11829  0  0.943278  0  0  0.126956  0  1.0106  0  0  0.12928  0  1.008492  0  0  0.123839  0.125322  0  1.012157  0
H  H11  1  0.76374041  0.42953303  0.67915362  1  0  0.118281  0  0.943323  0  0  0.126978  0  1.010617  0  0  0.129301  0  1.00851  0  0  0.123861  0.125343  0  1.012174  0
H  H12  1  0.32960870  0.48829173  0.37893893  1  0  0.120764  0  0.911891  0  0  0.135453  0  0.968356  0  0  0.137476  0  0.966709  0  0  0.1325  0.133708  0  0.97017  0
H  H13  1  0.67039068  0.51170994  0.62106178  1  0  0.120741  0  0.911912  0  0  0.135438  0  0.968389  0  0  0.137463  0  0.966738  0  0  0.132492  0.133694  0  0.970203  0
H  H14  1  0.00807181  0.44116109  0.95597061  1  0  0.101224  0  0.984681  0  0  0.109694  0  1.051833  0  0  0.113043  0  1.0498  0  0  0.105126  0.107244  0  1.053483  0
H  H15  1  0.99193273  0.55884334  0.04402887  1  0  0.101152  0  0.984702  0  0  0.109602  0  1.051883  0  0  0.112999  0  1.049793  0  0  0.105106  0.107147  0  1.053539  0
H  H16  1  0.93714733  0.40523860  0.76740015  1  0  0.069676  0  0.948796  0  0  0.077502  0  1.015485  0  0  0.079581  0  1.013565  0  0  0.111015  0.075953  0  1.016896  0
H  H17  1  0.06285448  0.59476214  0.23259940  1  0  0.069649  0  0.948763  0  0  0.077466  0  1.015476  0  0  0.079544  0  1.013557  0  0  0.110977  0.075917  0  1.016887  0
H  H18  1  0.14767446  0.18276389  0.74353779  1  0  0.078141  0  0.973745  0  0  0.08403  0  1.041872  0  0  0.086285  0  1.041057  0  0  0.116608  0.082226  0  1.042898  0
H  H19  1  0.85232315  0.81723409  0.25646315  1  0  0.078152  0  0.973734  0  0  0.084027  0  1.041857  0  0  0.086274  0  1.041054  0  0  0.116625  0.082224  0  1.042885  0
H  H20  1  0.23821060  0.21808293  0.93252282  1  0  0.107935  0  0.967819  0  0  0.114383  0  1.035833  0  0  0.117147  0  1.036044  0  0  0.105318  0.112434  0  1.035763  0
H  H21  1  0.76179076  0.78191689  0.06747809  1  0  0.107963  0  0.967837  0  0  0.114432  0  1.035803  0  0  0.117195  0  1.036014  0  0  0.105329  0.112484  0  1.035735  0
H  H22  1  0.61291384  0.60444420  0.34265061  1  0  0.141389  0  0.893251  0  0  0.156572  0  0.945972  0  0  0.159361  0  0.943615  0  0  0.139355  0.154603  0  0.947725  0
H  H23  1  0.38708658  0.39555562  0.65734645  1  0  0.141438  0  0.893243  0  0  0.156625  0  0.945945  0  0  0.159412  0  0.943589  0  0  0.139366  0.154654  0  0.947701  0
H  H24  1  0.53868539  0.66924333  0.42565523  1  0  0.128247  0  0.896081  0  0  0.144779  0  0.946947  0  0  0.146875  0  0.945296  0  0  0.13535  0.143112  0  0.948509  0
H  H25  1  0.46131509  0.33075464  0.57434172  1  0  0.128272  0  0.896055  0  0  0.144798  0  0.946926  0  0  0.146892  0  0.945276  0  0  0.135322  0.143129  0  0.948489  0
H  H26  1  0.20181263  0.74374763  0.00937275  1  0  0.101928  0  0.972869  0  0  0.109351  0  1.040283  0  0  0.112072  0  1.040442  0  0  0.100234  0.107388  0  1.040398  0
H  H27  1  0.79818624  0.25625497  0.99062869  1  0  0.101914  0  0.972962  0  0  0.109387  0  1.040325  0  0  0.112107  0  1.040484  0  0  0.100246  0.107421  0  1.040448  0
H  H28  1  0.13157928  0.70514971  0.81732581  1  0  0.078076  0  0.962377  0  0  0.081748  0  1.031814  0  0  0.084453  0  1.03049  0  0  0.106889  0.079882  0  1.032558  0
H  H29  1  0.86842239  0.29485473  0.18267470  1  0  0.078106  0  0.962337  0  0  0.081782  0  1.031768  0  0  0.084488  0  1.030444  0  0  0.106893  0.079917  0  1.032514  0
H  H30  1  0.42576639  0.56590648  0.79929784  1  0  0.06269  0  0.950086  0  0  0.065879  0  1.022483  0  0  0.068631  0  1.019582  0  0  0.10243  0.063947  0  1.024493  0
H  H31  1  0.57423294  0.43409703  0.20069928  1  0  0.062636  0  0.950128  0  0  0.065819  0  1.022543  0  0  0.068571  0  1.01964  0  0  0.102415  0.063886  0  1.024552  0
H  H32  1  0.50965625  0.59991198  0.98878535  1  0  0.106136  0  0.960292  0  0  0.114348  0  1.026268  0  0  0.117636  0  1.024904  0  0  0.104256  0.112019  0  1.027348  0
H  H33  1  0.49034454  0.40009061  0.01121194  1  0  0.106193  0  0.960259  0  0  0.114387  0  1.026257  0  0  0.117675  0  1.024892  0  0  0.104271  0.112058  0  1.027335  0
H  H34  1  0.77904462  0.13443376  0.64263448  1  0  0.140581  0  0.912067  0  0  0.149151  0  0.9746  0  0  0.151612  0  0.972787  0  0  0.13535  0.147472  0  0.97572  0
H  H35  1  0.22095401  0.86556237  0.35736576  1  0  0.140539  0  0.9121  0  0  0.149099  0  0.974645  0  0  0.151561  0  0.972833  0  0  0.135327  0.147423  0  0.975765  0
H  H36  1  0.64417791  0.99113648  0.57294100  1  0  0.140665  0  0.88533  0  0  0.155455  0  0.936213  0  0  0.158211  0  0.933804  0  0  0.1411  0.153304  0  0.938259  0
H  H37  1  0.35582351  0.00886149  0.42705980  1  0  0.140715  0  0.885269  0  0  0.155497  0  0.936152  0  0  0.158252  0  0.933746  0  0  0.14114  0.153347  0  0.938199  0
H  H38  1  0.53784938  0.91832087  0.02605309  1  0  0.113451  0  0.960562  0  0  0.121326  0  1.024862  0  0  0.12409  0  1.025079  0  0  0.109075  0.11941  0  1.024739  0
H  H39  1  0.46214830  0.08167525  0.97394626  1  0  0.113433  0  0.96062  0  0  0.121328  0  1.024878  0  0  0.124097  0  1.025095  0  0  0.109071  0.119412  0  1.024755  0
H  H40  1  0.96219964  0.09498323  0.99140804  1  0  0.108131  0  0.966436  0  0  0.115562  0  1.031836  0  0  0.118244  0  1.032255  0  0  0.106393  0.113604  0  1.031793  0
H  H41  1  0.03779892  0.90501474  0.00859379  1  0  0.108112  0  0.966535  0  0  0.115533  0  1.031953  0  0  0.118213  0  1.032373  0  0  0.106396  0.113575  0  1.031911  0
H  H42  1  0.75252145  0.21250269  0.44258535  1  0  0.448023  0  0.821649  0  0  0.426229  0  0.871618  0  0  0.436404  0  0.856561  0  0  0.318545  0.418777  0  0.882817  0
H  H43  1  0.24747756  0.78749621  0.55741513  1  0  0.448056  0  0.821639  0  0  0.426263  0  0.871578  0  0  0.436438  0  0.856522  0  0  0.318568  0.418811  0  0.882776  0
H  H44  1  0.62457518  0.11210137  0.35411456  1  0  0.417982  0  0.88349  0  0  0.377305  0  0.962676  0  0  0.388536  0  0.946169  0  0  0.297958  0.369466  0  0.974278  0
H  H45  1  0.37542516  0.88790030  0.64588557  1  0  0.417947  0  0.883536  0  0  0.377265  0  0.962733  0  0  0.388498  0  0.946223  0  0  0.29791  0.369425  0  0.974336  0
C  C46  1  0.93416801  0.08284669  0.14456659  1  0  0.140692  0  3.706383  0  0  0.110891  0  3.967874  0  0  0.117856  0  3.986816  0  0  0.050555  0.106205  0  3.956752  0
C  C47  1  0.06582909  0.91715222  0.85543508  1  0  0.140813  0  3.706351  0  0  0.111056  0  3.967761  0  0  0.118025  0  3.986691  0  0  0.050662  0.106369  0  3.956642  0
C  C48  1  0.70712328  0.98693040  0.16312168  1  0  0.143024  0  3.715976  0  0  0.114619  0  3.978614  0  0  0.121524  0  3.998492  0  0  0.053069  0.109781  0  3.967401  0
C  C49  1  0.29287242  0.01306758  0.83687823  1  0  0.142925  0  3.716226  0  0  0.114491  0  3.978852  0  0  0.121392  0  3.998734  0  0  0.053032  0.109653  0  3.967635  0
C  C50  1  0.11184311  0.40697677  0.37696523  1  0  0.710046  0  3.877941  0  0  0.665495  0  4.1781  0  0  0.697728  0  4.173834  0  0  0.221979  0.643323  0  4.182265  0
C  C51  1  0.88815634  0.59302305  0.62303538  1  0  0.70995  0  3.878055  0  0  0.665417  0  4.178207  0  0  0.69765  0  4.17394  0  0  0.221938  0.643245  0  4.182369  0
C  C52  1  0.23181068  0.47840835  0.32708873  1  0  -0.214988  0  3.609403  0  0  -0.277182  0  3.869481  0  0  -0.277864  0  3.873965  0  0  -0.045432  -0.276572  0  3.86673  0
C  C53  1  0.76818782  0.52159147  0.67291173  1  0  -0.214913  0  3.609465  0  0  -0.277175  0  3.869575  0  0  -0.277862  0  3.874073  0  0  -0.045445  -0.276566  0  3.866822  0
C  C54  1  0.18249462  0.35534439  0.07226338  1  0  0.241655  0  3.786153  0  0  0.224282  0  4.059555  0  0  0.231249  0  4.075199  0  0  0.220829  0.219412  0  4.049007  0
C  C55  1  0.81750484  0.64465544  0.92773649  1  0  0.241743  0  3.785955  0  0  0.224307  0  4.059466  0  0  0.231294  0  4.07508  0  0  0.220828  0.219437  0  4.048921  0
C  C56  1  0.13083796  0.33318460  0.96093802  1  0  0.048256  0  3.795889  0  0  0.065237  0  4.022382  0  0  0.067507  0  4.044371  0  0  0.013225  0.06399  0  4.007535  0
C  C57  1  0.86916143  0.66681707  0.03906121  1  0  0.048291  0  3.795684  0  0  0.065252  0  4.022247  0  0  0.067516  0  4.04424  0  0  0.013247  0.064006  0  4.007401  0
C  C58  1  0.04314639  0.38427770  0.91239185  1  0  -0.138339  0  3.704649  0  0  -0.162014  0  3.955585  0  0  -0.16859  0  3.977376  0  0  -0.080064  -0.157657  0  3.940972  0
C  C59  1  0.95685580  0.61572581  0.08760794  1  0  -0.138362  0  3.704516  0  0  -0.162008  0  3.955464  0  0  -0.168617  0  3.977231  0  0  -0.080053  -0.157645  0  3.940851  0
C  C60  1  0.00209045  0.36306998  0.80603539  1  0  0.13922  0  3.719823  0  0  0.107993  0  3.982614  0  0  0.11406  0  3.999981  0  0  0.050267  0.104068  0  3.970664  0
C  C61  1  0.99791040  0.63693076  0.19396402  1  0  0.139311  0  3.719712  0  0  0.108084  0  3.98249  0  0  0.114149  0  3.999875  0  0  0.050296  0.104162  0  3.970537  0
C  C62  1  0.12063899  0.24148517  0.79290785  1  0  0.127614  0  3.703038  0  0  0.096608  0  3.965688  0  0  0.102439  0  3.982562  0  0  0.04458  0.092878  0  3.953979  0
C  C63  1  0.87936282  0.75851557  0.20709318  1  0  0.127629  0  3.703066  0  0  0.096655  0  3.965698  0  0  0.102489  0  3.982563  0  0  0.04456  0.092923  0  3.953994  0
C  C64  1  0.16995995  0.25982973  0.89865736  1  0  -0.144594  0  3.697081  0  0  -0.166545  0  3.948904  0  0  -0.172875  0  3.969294  0  0  -0.08243  -0.162398  0  3.935049  0
C  C65  1  0.83004135  0.74017194  0.10134292  1  0  -0.144688  0  3.697132  0  0  -0.166648  0  3.948988  0  0  -0.172976  0  3.969372  0  0  -0.082467  -0.162502  0  3.935138  0
C  C66  1  0.73648940  0.79829721  0.40622106  1  0  0.732298  0  3.853128  0  0  0.689416  0  4.151575  0  0  0.7229  0  4.145509  0  0  0.231835  0.666924  0  4.156672  0
C  C67  1  0.26351210  0.20169891  0.59377740  1  0  0.732256  0  3.853089  0  0  0.689406  0  4.151462  0  0  0.72289  0  4.145401  0  0  0.231848  0.666916  0  4.156554  0
C  C68  1  0.59417115  0.68553237  0.36409366  1  0  -0.208913  0  3.592648  0  0  -0.270769  0  3.848805  0  0  -0.271121  0  3.851384  0  0  -0.036839  -0.270343  0  3.846998  0
C  C69  1  0.40583022  0.31446744  0.63590502  1  0  -0.209055  0  3.592676  0  0  -0.270907  0  3.848797  0  0  -0.271255  0  3.851369  0  0  -0.036832  -0.27048  0  3.846986  0
C  C70  1  0.40668742  0.69707623  0.12626041  1  0  0.248923  0  3.787575  0  0  0.232862  0  4.062085  0  0  0.240614  0  4.076936  0  0  0.220369  0.227405  0  4.052018  0
C  C71  1  0.59331388  0.30292544  0.87373764  1  0  0.249006  0  3.78757  0  0  0.232904  0  4.062124  0  0  0.240641  0  4.076994  0  0  0.220363  0.227454  0  4.052045  0
C  C72  1  0.36124322  0.67418447  0.01458252  1  0  0.034691  0  3.818936  0  0  0.050913  0  4.046283  0  0  0.051922  0  4.069198  0  0  0.001786  0.050551  0  4.03062  0
C  C73  1  0.63875897  0.32581904  0.98541579  1  0  0.034609  0  3.818994  0  0  0.050825  0  4.046377  0  0  0.051838  0  4.069296  0  0  0.001739  0.050462  0  4.030708  0
C  C74  1  0.25394580  0.70451318  0.96499315  1  0  -0.156854  0  3.71419  0  0  -0.176817  0  3.960255  0  0  -0.183329  0  3.982468  0  0  -0.091208  -0.172529  0  3.945211  0
C  C75  1  0.74605455  0.29548849  0.03500549  1  0  -0.156811  0  3.714217  0  0  -0.176809  0  3.960266  0  0  -0.18332  0  3.982477  0  0  -0.091195  -0.172519  0  3.945221  0
C  C76  1  0.21501808  0.68270520  0.85820376  1  0  0.116281  0  3.736142  0  0  0.093953  0  4.000991  0  0  0.098761  0  4.018124  0  0  0.039102  0.091061  0  3.988853  0
C  C77  1  0.78498175  0.31729739  0.14179634  1  0  0.116243  0  3.735961  0  0  0.093909  0  4.000808  0  0  0.098718  0  4.017938  0  0  0.03908  0.091015  0  3.988672  0
C  C78  1  0.37691383  0.60456779  0.84773183  1  0  0.126612  0  3.749515  0  0  0.102234  0  4.016361  0  0  0.107289  0  4.033717  0  0  0.040817  0.099038  0  4.004319  0
C  C79  1  0.62308785  0.39543664  0.15226572  1  0  0.126549  0  3.749542  0  0  0.102171  0  4.016394  0  0  0.107223  0  4.033761  0  0  0.040732  0.09897  0  4.004364  0
C  C80  1  0.42420637  0.62302565  0.95396914  1  0  -0.148023  0  3.704592  0  0  -0.170979  0  3.953903  0  0  -0.177181  0  3.975654  0  0  -0.08683  -0.166876  0  3.939097  0
C  C81  1  0.57579346  0.37697694  0.04602800  1  0  -0.147995  0  3.704555  0  0  -0.170925  0  3.953881  0  0  -0.177127  0  3.975632  0  0  -0.08678  -0.166822  0  3.939071  0
C  C82  1  0.84679343  0.98714406  0.62809696  1  0  0.717862  0  3.863475  0  0  0.672466  0  4.160772  0  0  0.704871  0  4.158827  0  0  0.222921  0.650074  0  4.16571  0
C  C83  1  0.15320653  0.01285484  0.37190366  1  0  0.717754  0  3.863422  0  0  0.672372  0  4.1607  0  0  0.704775  0  4.158765  0  0  0.222918  0.649981  0  4.165636  0
C  C84  1  0.73511851  0.03398562  0.63916480  1  0  -0.200008  0  3.565995  0  0  -0.25648  0  3.81618  0  0  -0.257569  0  3.82045  0  0  -0.027033  -0.255424  0  3.812997  0
C  C85  1  0.26488152  0.96601143  0.36083646  1  0  -0.199936  0  3.56594  0  0  -0.256412  0  3.816157  0  0  -0.257488  0  3.820392  0  0  -0.027009  -0.255366  0  3.812984  0
C  C86  1  0.69148133  0.98920278  0.88337873  1  0  0.242902  0  3.782113  0  0  0.222606  0  4.063803  0  0  0.228842  0  4.077427  0  0  0.227808  0.218227  0  4.054536  0
C  C87  1  0.30851774  0.01079428  0.11662164  1  0  0.242962  0  3.782014  0  0  0.222722  0  4.063667  0  0  0.228957  0  4.077291  0  0  0.22785  0.218344  0  4.054398  0
C  C88  1  0.74274864  0.00435608  0.99375814  1  0  0.064497  0  3.790099  0  0  0.081062  0  4.014608  0  0  0.085165  0  4.034436  0  0  0.019622  0.078661  0  4.000879  0
C  C89  1  0.25724904  0.99564004  0.00624195  1  0  0.064529  0  3.789767  0  0  0.081027  0  4.014353  0  0  0.08513  0  4.034178  0  0  0.019629  0.078625  0  4.000626  0
C  C90  1  0.65098322  0.96459187  0.05782787  1  0  -0.142614  0  3.680239  0  0  -0.164091  0  3.928866  0  0  -0.171292  0  3.949034  0  0  -0.078564  -0.159409  0  3.915014  0
C  C91  1  0.34901439  0.03540610  0.94217159  1  0  -0.142576  0  3.680214  0  0  -0.164047  0  3.928854  0  0  -0.171252  0  3.949027  0  0  -0.078573  -0.159365  0  3.915  0
C  C92  1  0.88755295  0.06356951  0.03883300  1  0  -0.148123  0  3.690065  0  0  -0.166188  0  3.933341  0  0  -0.173652  0  3.953823  0  0  -0.080307  -0.161278  0  3.919332  0
C  C93  1  0.11244371  0.93642847  0.96116853  1  0  -0.148142  0  3.690048  0  0  -0.16619  0  3.933302  0  0  -0.173655  0  3.953787  0  0  -0.080341  -0.161285  0  3.919296  0
N  N94  1  0.84595976  0.04564407  0.20679542  1  0  -0.417155  0  3.211915  0  0  -0.361642  0  3.4836  0  0  -0.382411  0  3.501667  0  0  -0.374626  -0.35192  0  3.472837  0
N  N95  1  0.15403543  0.95435483  0.79320446  1  0  -0.417176  0  3.212036  0  0  -0.361696  0  3.483737  0  0  -0.382461  0  3.501805  0  0  -0.374619  -0.351974  0  3.472971  0
N  N96  1  0.15228288  0.42411685  0.13931730  1  0  -0.290885  0  2.792905  0  0  -0.277491  0  3.060938  0  0  -0.283312  0  3.07413  0  0  -0.186672  -0.273582  0  3.051932  0
N  N97  1  0.84771797  0.57588390  0.86068358  1  0  -0.290893  0  2.792869  0  0  -0.277476  0  3.060917  0  0  -0.283304  0  3.074107  0  0  -0.186661  -0.273567  0  3.051911  0
N  N98  1  0.22762323  0.41889439  0.22823180  1  0  0.243658  0  3.548026  0  0  0.290506  0  3.832938  0  0  0.287066  0  3.853732  0  0  -0.005946  0.292565  0  3.818933  0
N  N99  1  0.77237571  0.58110636  0.77176879  1  0  0.243675  0  3.547982  0  0  0.290545  0  3.832883  0  0  0.287104  0  3.85368  0  0  -0.005901  0.292605  0  3.818877  0
N  N100  1  0.30056591  0.35135091  0.21930820  1  0  -0.083689  0  2.820839  0  0  -0.089048  0  3.112072  0  0  -0.083434  0  3.117888  0  0  -0.065952  -0.092539  0  3.108131  0
N  N101  1  0.69943443  0.64865076  0.78069266  1  0  -0.083738  0  2.820799  0  0  -0.089101  0  3.112025  0  0  -0.083487  0  3.117844  0  0  -0.066005  -0.092593  0  3.108088  0
N  N102  1  0.27234916  0.31025214  0.12087090  1  0  -0.255029  0  2.932934  0  0  -0.238087  0  3.225252  0  0  -0.244697  0  3.234977  0  0  -0.189491  -0.233533  0  3.218482  0
N  N103  1  0.72765213  0.68974953  0.87913012  1  0  -0.255041  0  2.932803  0  0  -0.238079  0  3.225144  0  0  -0.244697  0  3.234864  0  0  -0.189478  -0.233526  0  3.218378  0
N  N104  1  0.03908138  0.29293045  0.74603183  1  0  -0.306627  0  3.123257  0  0  -0.248713  0  3.374344  0  0  -0.261746  0  3.38922  0  0  -0.301246  -0.239733  0  3.363991  0
N  N105  1  0.96091763  0.70706845  0.25396865  1  0  -0.306653  0  3.123313  0  0  -0.248733  0  3.374371  0  0  -0.261767  0  3.389247  0  0  -0.301223  -0.239751  0  3.364015  0
N  N106  1  0.49823328  0.65960761  0.18008567  1  0  -0.293501  0  2.795629  0  0  -0.283219  0  3.062903  0  0  -0.288918  0  3.075765  0  0  -0.190651  -0.279304  0  3.054271  0
N  N107  1  0.50176802  0.34039405  0.81991164  1  0  -0.293548  0  2.795575  0  0  -0.283265  0  3.062882  0  0  -0.288959  0  3.075749  0  0  -0.190658  -0.279354  0  3.054247  0
N  N108  1  0.50427500  0.70023896  0.27609517  1  0  0.237985  0  3.577797  0  0  0.285603  0  3.862521  0  0  0.282243  0  3.883472  0  0  -0.01221  0.28753  0  3.84873  0
N  N109  1  0.49572681  0.29976178  0.72390290  1  0  0.238013  0  3.577811  0  0  0.285636  0  3.862521  0  0  0.282274  0  3.883472  0  0  -0.012217  0.287562  0  3.848727  0
N  N110  1  0.42387486  0.76073603  0.28401550  1  0  -0.11551  0  2.844292  0  0  -0.118051  0  3.139547  0  0  -0.113617  0  3.146545  0  0  -0.080547  -0.120621  0  3.134774  0
N  N111  1  0.57612650  0.23926379  0.71598319  1  0  -0.115514  0  2.844226  0  0  -0.118057  0  3.139481  0  0  -0.113622  0  3.146477  0  0  -0.080567  -0.120629  0  3.134708  0
N  N112  1  0.36113131  0.75920821  0.18942830  1  0  -0.259212  0  2.934803  0  0  -0.248568  0  3.236714  0  0  -0.255281  0  3.247882  0  0  -0.196176  -0.244  0  3.229064  0
N  N113  1  0.63886954  0.24079253  0.81057110  1  0  -0.259209  0  2.934772  0  0  -0.248558  0  3.236713  0  0  -0.255265  0  3.247884  0  0  -0.19615  -0.243993  0  3.229061  0
N  N114  1  0.27423439  0.63309506  0.79937550  1  0  -0.299495  0  3.022503  0  0  -0.273263  0  3.290266  0  0  -0.281363  0  3.302289  0  0  -0.325716  -0.267747  0  3.281979  0
N  N115  1  0.72576582  0.36691030  0.20062484  1  0  -0.299416  0  3.022401  0  0  -0.273171  0  3.29015  0  0  -0.281273  0  3.302173  0  0  -0.325646  -0.267657  0  3.281863  0
N  N116  1  0.77658411  0.03728599  0.82178396  1  0  -0.25896  0  2.825847  0  0  -0.253139  0  3.103861  0  0  -0.257251  0  3.115802  0  0  -0.173719  -0.250049  0  3.095645  0
N  N117  1  0.22341548  0.96271014  0.17821643  1  0  -0.258973  0  2.82578  0  0  -0.253164  0  3.103785  0  0  -0.257279  0  3.115725  0  0  -0.173726  -0.250076  0  3.095568  0
N  N118  1  0.68760300  0.00377523  0.73107085  1  0  0.260683  0  3.550008  0  0  0.301849  0  3.835171  0  0  0.298972  0  3.855696  0  0  0.005719  0.303563  0  3.821126  0
N  N119  1  0.31239703  0.99622182  0.26893041  1  0  0.260695  0  3.549945  0  0  0.301859  0  3.835113  0  0  0.298984  0  3.855641  0  0  0.005735  0.303576  0  3.821067  0
N  N120  1  0.55335627  0.93779508  0.73369003  1  0  -0.117987  0  2.90868  0  0  -0.097034  0  3.184532  0  0  -0.097071  0  3.19309  0  0  -0.053056  -0.096652  0  3.178614  0
N  N121  1  0.44664414  0.06220475  0.26631072  1  0  -0.117802  0  2.908582  0  0  -0.096827  0  3.184396  0  0  -0.096863  0  3.192956  0  0  -0.052966  -0.096443  0  3.178475  0
N  N122  1  0.55454374  0.92848319  0.83006724  1  0  -0.219812  0  2.916058  0  0  -0.210704  0  3.200351  0  0  -0.216151  0  3.212332  0  0  -0.177499  -0.206722  0  3.191949  0
N  N123  1  0.44545432  0.07151571  0.16993309  1  0  -0.220063  0  2.916257  0  0  -0.210988  0  3.200576  0  0  -0.216435  0  3.212556  0  0  -0.177624  -0.207008  0  3.192174  0
O  O124  1  0.81772255  0.77739607  0.47568981  1  0  -0.699485  0  2.041577  0  0  -0.645305  0  2.283384  0  0  -0.677336  0  2.272663  0  0  -0.381443  -0.627262  0  2.288391  0
O  O125  1  0.18227602  0.22260190  0.52430980  1  0  -0.699482  0  2.041537  0  0  -0.645305  0  2.283328  0  0  -0.677346  0  2.272608  0  0  -0.381478  -0.627267  0  2.288332  0
O  O126  1  0.85655324  0.90251292  0.67325704  1  0  -0.640953  0  2.012632  0  0  -0.602775  0  2.254421  0  0  -0.630363  0  2.246837  0  0  -0.330783  -0.586845  0  2.258966  0
O  O127  1  0.14344673  0.09748597  0.32674136  1  0  -0.640948  0  2.012549  0  0  -0.602774  0  2.254329  0  0  -0.630369  0  2.246748  0  0  -0.330835  -0.586845  0  2.258873  0
O  O128  1  0.11240936  0.46578335  0.45763201  1  0  -0.578536  0  1.909118  0  0  -0.532526  0  2.112677  0  0  -0.555878  0  2.103143  0  0  -0.30123  -0.516072  0  2.118948  0
O  O129  1  0.88758964  0.53421555  0.54236847  1  0  -0.578515  0  1.909135  0  0  -0.532499  0  2.112677  0  0  -0.55585  0  2.103144  0  0  -0.301221  -0.516045  0  2.118948  0
O  O130  1  0.02883997  0.29604928  0.33410687  1  0  -0.747871  0  2.030143  0  0  -0.694264  0  2.286629  0  0  -0.727147  0  2.274775  0  0  -0.417287  -0.675918  0  2.293016  0
O  O131  1  0.97115999  0.70394961  0.66589301  1  0  -0.747858  0  2.030209  0  0  -0.69425  0  2.286661  0  0  -0.727126  0  2.274811  0  0  -0.417272  -0.675903  0  2.293047  0
O  O132  1  0.75702293  0.89673525  0.37003778  1  0  -0.719144  0  2.029493  0  0  -0.67246  0  2.284893  0  0  -0.704143  0  2.275227  0  0  -0.36704  -0.654468  0  2.28994  0
O  O133  1  0.24297887  0.10326549  0.62996399  1  0  -0.719075  0  2.029514  0  0  -0.672418  0  2.284923  0  0  -0.704086  0  2.275238  0  0  -0.367005  -0.654416  0  2.289944  0
O  O134  1  0.92786857  0.03830108  0.57031767  1  0  -0.818679  0  2.158077  0  0  -0.757125  0  2.422263  0  0  -0.795199  0  2.41137  0  0  -0.436645  -0.738931  0  2.428937  0
O  O135  1  0.07213177  0.96170059  0.42968245  1  0  -0.818668  0  2.158194  0  0  -0.757081  0  2.422299  0  0  -0.795153  0  2.411407  0  0  -0.436644  -0.738888  0  2.428973  0
O  O136  1  0.94729556  0.28339052  0.53513771  1  0  -0.924795  0  1.918442  0  0  -0.865076  0  2.114069  0  0  -0.891982  0  2.075804  0  0  -0.638859  -0.849716  0  2.138682  0
O  O137  1  0.05270389  0.71660931  0.46486289  1  0  -0.924803  0  1.918428  0  0  -0.865089  0  2.114052  0  0  -0.891992  0  2.075788  0  0  -0.638853  -0.849727  0  2.138666  0
O  O138  1  0.71673907  0.13053573  0.40077997  1  0  -0.903822  0  1.844208  0  0  -0.852629  0  2.029598  0  0  -0.876844  0  1.992116  0  0  -0.633506  -0.84015  0  2.052948  0
O  O139  1  0.28326134  0.86946409  0.59921931  1  0  -0.903821  0  1.844231  0  0  -0.852629  0  2.029601  0  0  -0.876842  0  1.992109  0  0  -0.633482  -0.84015  0  2.052951  0
