# generated using pymatgen
data_KCrH31C25O12
_symmetry_space_group_name_H-M   'P 1'
_cell_length_a   10.55795225
_cell_length_b   10.48795770
_cell_length_c   13.88579843
_cell_angle_alpha   108.45512075
_cell_angle_beta   95.16482113
_cell_angle_gamma   97.56184478
_symmetry_Int_Tables_number   1
_chemical_formula_structural   KCrH31C25O12
_chemical_formula_sum   'K2 Cr2 H62 C50 O24'
_cell_volume   1431.58690747
_cell_formula_units_Z   2
loop_
 _symmetry_equiv_pos_site_id
 _symmetry_equiv_pos_as_xyz
  1  'x, y, z'
loop_
 _atom_site_type_symbol
 _atom_site_label
 _atom_site_symmetry_multiplicity
 _atom_site_fract_x
 _atom_site_fract_y
 _atom_site_fract_z
 _atom_site_occupancy
 _atom_site_hle17_bader_spin_density
 _atom_site_hle17_ddec_charge
 _atom_site_hle17_ddec_spin_density
 _atom_site_hle17_ddec_sum_bond_order
 _atom_site_hle17_magmom
 _atom_site_hse06_10hf_bader_spin_density
 _atom_site_hse06_10hf_ddec_charge
 _atom_site_hse06_10hf_ddec_spin_density
 _atom_site_hse06_10hf_ddec_sum_bond_order
 _atom_site_hse06_10hf_magmom
 _atom_site_hse06_bader_spin_density
 _atom_site_hse06_ddec_charge
 _atom_site_hse06_ddec_spin_density
 _atom_site_hse06_ddec_sum_bond_order
 _atom_site_hse06_magmom
 _atom_site_pbe_bader_spin_density
 _atom_site_pbe_cm5_charge
 _atom_site_pbe_ddec_charge
 _atom_site_pbe_ddec_spin_density
 _atom_site_pbe_ddec_sum_bond_order
 _atom_site_pbe_magmom
K  K0  1  0.64272580  0.97804739  0.25387374  1  0  0.900443  0  0.526783  0  0  0.823918  0  0.734169  0  0  0.842694  0  0.708888  0  0  0.833797  0.810134  0  0.751932  0
K  K1  1  0.35727654  0.02196140  0.74612677  1  0  0.900456  0  0.526787  0  0  0.823948  0  0.734159  0  0  0.842714  0  0.708883  0  0  0.8338  0.810176  0  0.751925  0
Cr  Cr2  1  0.85766885  0.48585047  0.23906584  1  0  0.011734  0  5.152224  0  0  0.162995  0  5.46326  0  0  0.094572  0  5.566151  0  0  0.62901  0.209658  0  5.389708  0
Cr  Cr3  1  0.14234078  0.51414505  0.76092545  1  0  0.012186  0  5.151753  0  0  0.163555  0  5.462552  0  0  0.095151  0  5.565442  0  0  0.629125  0.21019  0  5.389031  0
H  H4  1  0.28814044  0.99747610  0.13344279  1  0  0.0513  0  0.92306  0  0  0.066616  0  0.988335  0  0  0.067523  0  0.986917  0  0  0.100932  0.065756  0  0.989722  0
H  H5  1  0.71185142  0.00252661  0.86655988  1  0  0.051301  0  0.92313  0  0  0.066641  0  0.988374  0  0  0.067549  0  0.986959  0  0  0.100943  0.065781  0  0.989763  0
H  H6  1  0.20835707  0.82782605  0.11524581  1  0  0.057528  0  0.920631  0  0  0.07222  0  0.984814  0  0  0.072411  0  0.984399  0  0  0.101206  0.071937  0  0.985241  0
H  H7  1  0.79163465  0.17217562  0.88476021  1  0  0.057515  0  0.920629  0  0  0.072224  0  0.984792  0  0  0.072413  0  0.984375  0  0  0.101209  0.071945  0  0.985219  0
H  H8  1  0.32019028  0.84859205  0.29002682  1  0  0.054793  0  0.924633  0  0  0.069402  0  0.991311  0  0  0.069875  0  0.991027  0  0  0.10276  0.068665  0  0.992177  0
H  H9  1  0.67980998  0.15140960  0.70997687  1  0  0.054783  0  0.924619  0  0  0.069402  0  0.991321  0  0  0.069874  0  0.991036  0  0  0.102749  0.068664  0  0.992185  0
H  H10  1  0.20860237  0.96237549  0.29148839  1  0  0.045825  0  0.95229  0  0  0.059086  0  1.024473  0  0  0.058699  0  1.024678  0  0  0.098017  0.059296  0  1.024314  0
H  H11  1  0.79139918  0.03762819  0.70851875  1  0  0.045799  0  0.952334  0  0  0.059107  0  1.024485  0  0  0.058714  0  1.024693  0  0  0.098044  0.059318  0  1.024328  0
H  H12  1  0.40515585  0.00885302  0.45552473  1  0  0.061688  0  0.961133  0  0  0.072796  0  1.027932  0  0  0.074561  0  1.026424  0  0  0.105831  0.071527  0  1.029  0
H  H13  1  0.59484282  0.99115068  0.54447791  1  0  0.061704  0  0.961004  0  0  0.072781  0  1.027852  0  0  0.074547  0  1.02634  0  0  0.105811  0.071511  0  1.028919  0
H  H14  1  0.31842578  0.14065649  0.44857963  1  0  0.050952  0  0.917909  0  0  0.067669  0  0.981071  0  0  0.067791  0  0.981036  0  0  0.098091  0.067636  0  0.98105  0
H  H15  1  0.68157480  0.85934719  0.55142385  1  0  0.050967  0  0.917857  0  0  0.067697  0  0.981  0  0  0.0678  0  0.980989  0  0  0.098112  0.067668  0  0.980977  0
H  H16  1  0.51937342  0.24154891  0.56051561  1  0  0.055194  0  0.961803  0  0  0.069879  0  1.02649  0  0  0.069274  0  1.028312  0  0  0.101839  0.070115  0  1.025504  0
H  H17  1  0.48062852  0.75845173  0.43948074  1  0  0.055237  0  0.96175  0  0  0.069905  0  1.026435  0  0  0.069302  0  1.028252  0  0  0.101852  0.070146  0  1.025444  0
H  H18  1  0.52347130  0.28965301  0.44845806  1  0  0.047974  0  0.944592  0  0  0.063175  0  1.012058  0  0  0.062882  0  1.012194  0  0  0.099413  0.063236  0  1.012142  0
H  H19  1  0.47652893  0.71034865  0.55154131  1  0  0.04797  0  0.944619  0  0  0.063172  0  1.012064  0  0  0.062878  0  1.012203  0  0  0.099401  0.063236  0  1.01215  0
H  H20  1  0.75143705  0.27796437  0.59207257  1  0  0.050888  0  0.931165  0  0  0.064059  0  1.00009  0  0  0.063485  0  1.001631  0  0  0.098597  0.064329  0  0.999278  0
H  H21  1  0.24855985  0.72203422  0.40793089  1  0  0.050852  0  0.931203  0  0  0.064053  0  1.0001  0  0  0.063475  0  1.001657  0  0  0.098595  0.064326  0  0.999285  0
H  H22  1  0.75378830  0.33298119  0.48282561  1  0  0.05827  0  0.917269  0  0  0.07221  0  0.982534  0  0  0.072615  0  0.982003  0  0  0.10235  0.071856  0  0.982895  0
H  H23  1  0.24620971  0.66701843  0.51717600  1  0  0.058303  0  0.917229  0  0  0.072216  0  0.982535  0  0  0.072645  0  0.981979  0  0  0.102339  0.071866  0  0.982898  0
H  H24  1  0.86117905  0.08140753  0.50059669  1  0  0.05214  0  0.913413  0  0  0.066415  0  0.978263  0  0  0.067795  0  0.97645  0  0  0.102147  0.065313  0  0.979718  0
H  H25  1  0.13881801  0.91859209  0.49940486  1  0  0.052081  0  0.913397  0  0  0.066372  0  0.978254  0  0  0.067748  0  0.976446  0  0  0.102136  0.065277  0  0.979706  0
H  H26  1  0.95462930  0.24747771  0.52755001  1  0  0.051283  0  0.948015  0  0  0.068317  0  1.011478  0  0  0.067488  0  1.012658  0  0  0.099637  0.069115  0  1.010545  0
H  H27  1  0.04536966  0.75252191  0.47245095  1  0  0.051269  0  0.948  0  0  0.068316  0  1.011479  0  0  0.067487  0  1.012657  0  0  0.099632  0.069121  0  1.010542  0
H  H28  1  0.07333083  0.16520627  0.38692195  1  0  0.049666  0  0.927277  0  0  0.064238  0  0.994564  0  0  0.064794  0  0.993659  0  0  0.097674  0.063603  0  0.9955  0
H  H29  1  0.92666706  0.83479845  0.61308016  1  0  0.049664  0  0.927277  0  0  0.064238  0  0.994555  0  0  0.064797  0  0.99365  0  0  0.09766  0.063607  0  0.99549  0
H  H30  1  0.98499532  0.99523651  0.35628277  1  0  0.055602  0  0.929075  0  0  0.066206  0  1.000762  0  0  0.067789  0  0.998465  0  0  0.10233  0.064958  0  1.002501  0
H  H31  1  0.01500189  0.00476414  0.64371688  1  0  0.055547  0  0.929101  0  0  0.066162  0  1.000784  0  0  0.067746  0  0.99849  0  0  0.102306  0.064917  0  1.002522  0
H  H32  1  0.07508697  0.04538471  0.20652974  1  0  0.044251  0  0.935499  0  0  0.061988  0  0.998591  0  0  0.061697  0  0.998787  0  0  0.098283  0.062011  0  0.998688  0
H  H33  1  0.92491074  0.95461900  0.79347068  1  0  0.04419  0  0.93546  0  0  0.061975  0  0.998562  0  0  0.061685  0  0.998757  0  0  0.098288  0.061998  0  0.998664  0
H  H34  1  0.97352481  0.17151913  0.21714576  1  0  0.048894  0  0.93853  0  0  0.063098  0  1.007261  0  0  0.06245  0  1.007848  0  0  0.098443  0.063369  0  1.006951  0
H  H35  1  0.02646928  0.82848561  0.78285611  1  0  0.048796  0  0.938534  0  0  0.063095  0  1.007229  0  0  0.062452  0  1.007816  0  0  0.098461  0.063365  0  1.006918  0
H  H36  1  0.85746744  0.03943753  0.04899938  1  0  0.04727  0  0.929136  0  0  0.060245  0  0.999167  0  0  0.060463  0  0.998945  0  0  0.097998  0.059726  0  0.999809  0
H  H37  1  0.14253029  0.96056617  0.95100320  1  0  0.047326  0  0.929151  0  0  0.060271  0  0.999166  0  0  0.060492  0  0.998939  0  0  0.098018  0.059763  0  0.999803  0
H  H38  1  0.96117424  0.91472553  0.03971364  1  0  0.050411  0  0.946523  0  0  0.063633  0  1.017711  0  0  0.063628  0  1.017565  0  0  0.099214  0.063551  0  1.017841  0
H  H39  1  0.03882280  0.08527409  0.96028576  1  0  0.050431  0  0.946619  0  0  0.063615  0  1.017786  0  0  0.063611  0  1.01764  0  0  0.099209  0.063536  0  1.017914  0
H  H40  1  0.77232570  0.73961001  0.03101187  1  0  0.065192  0  0.927621  0  0  0.079033  0  0.990187  0  0  0.079697  0  0.989581  0  0  0.105715  0.078495  0  0.990715  0
H  H41  1  0.22767012  0.26039370  0.96898987  1  0  0.065204  0  0.927769  0  0  0.079069  0  0.990314  0  0  0.079734  0  0.989705  0  0  0.105742  0.078531  0  0.990845  0
H  H42  1  0.76296063  0.80453458  0.92697709  1  0  0.044966  0  0.941362  0  0  0.058175  0  1.011839  0  0  0.058088  0  1.011968  0  0  0.095521  0.05797  0  1.012261  0
H  H43  1  0.23703346  0.19547016  0.07302550  1  0  0.045082  0  0.941345  0  0  0.058244  0  1.011887  0  0  0.058154  0  1.012015  0  0  0.095556  0.058045  0  1.012306  0
H  H44  1  0.52994780  0.73649929  0.90249488  1  0  0.06076  0  0.925429  0  0  0.076415  0  0.987413  0  0  0.075624  0  0.989574  0  0  0.102261  0.076917  0  0.986047  0
H  H45  1  0.47004709  0.26350441  0.09750968  1  0  0.060764  0  0.925502  0  0  0.076347  0  0.987528  0  0  0.075557  0  0.989691  0  0  0.102248  0.076851  0  0.986155  0
H  H46  1  0.53999859  0.67878936  0.01052820  1  0  0.063979  0  0.933402  0  0  0.074916  0  1.003068  0  0  0.075948  0  1.001863  0  0  0.104034  0.073991  0  1.004281  0
H  H47  1  0.45999697  0.32121843  0.98947811  1  0  0.063995  0  0.933388  0  0  0.074914  0  1.003018  0  0  0.075945  0  1.001814  0  0  0.104068  0.073985  0  1.004232  0
H  H48  1  0.40675186  0.91739491  0.99474426  1  0  0.059879  0  0.950699  0  0  0.069008  0  1.022061  0  0  0.070902  0  1.019974  0  0  0.103295  0.067588  0  1.023658  0
H  H49  1  0.59323733  0.08260882  0.00525921  1  0  0.059849  0  0.950685  0  0  0.069008  0  1.022074  0  0  0.070906  0  1.019984  0  0  0.103256  0.067586  0  1.023674  0
H  H50  1  0.32688594  0.74712624  0.97116217  1  0  0.044373  0  0.956741  0  0  0.060086  0  1.023606  0  0  0.058566  0  1.025431  0  0  0.095168  0.061142  0  1.022255  0
H  H51  1  0.67310782  0.25287645  0.02884063  1  0  0.044346  0  0.956764  0  0  0.060101  0  1.023602  0  0  0.058612  0  1.025396  0  0  0.09519  0.061158  0  1.022252  0
H  H52  1  0.55932929  0.45644442  0.39966278  1  0  0.079046  0  0.979273  0  0  0.091207  0  1.042159  0  0  0.094083  0  1.040711  0  0  0.095123  0.089207  0  1.043052  0
H  H53  1  0.44067015  0.54355826  0.60033678  1  0  0.079003  0  0.979301  0  0  0.091168  0  1.042187  0  0  0.094043  0  1.040742  0  0  0.095116  0.089167  0  1.043079  0
H  H54  1  0.33577865  0.32844666  0.35323833  1  0  0.087724  0  0.955116  0  0  0.09976  0  1.013913  0  0  0.102973  0  1.012271  0  0  0.097458  0.097264  0  1.015692  0
H  H55  1  0.66422194  0.67155702  0.64676587  1  0  0.087747  0  0.95509  0  0  0.099773  0  1.013887  0  0  0.102985  0  1.012245  0  0  0.097454  0.097277  0  1.015666  0
H  H56  1  0.18248523  0.37147883  0.22435515  1  0  0.079468  0  0.974912  0  0  0.091353  0  1.036553  0  0  0.092999  0  1.036544  0  0  0.094819  0.089857  0  1.037116  0
H  H57  1  0.81751518  0.62852384  0.77564735  1  0  0.079536  0  0.974751  0  0  0.091419  0  1.036411  0  0  0.093066  0  1.0364  0  0  0.094836  0.089924  0  1.036974  0
H  H58  1  0.25552787  0.53995069  0.14023618  1  0  0.093575  0  0.94047  0  0  0.10714  0  0.992846  0  0  0.109763  0  0.99238  0  0  0.101848  0.105228  0  0.993302  0
H  H59  1  0.74447089  0.46004791  0.85976092  1  0  0.093577  0  0.940511  0  0  0.10714  0  0.992883  0  0  0.109762  0  0.992419  0  0  0.101868  0.10523  0  0.993337  0
H  H60  1  0.47892433  0.67048566  0.18926093  1  0  0.09482  0  0.979505  0  0  0.09614  0  1.056511  0  0  0.100853  0  1.052668  0  0  0.102856  0.092609  0  1.059649  0
H  H61  1  0.52108026  0.32950782  0.81073530  1  0  0.094821  0  0.979612  0  0  0.096122  0  1.056602  0  0  0.100835  0  1.052759  0  0  0.102873  0.092596  0  1.059735  0
H  H62  1  0.84786433  0.69908874  0.42174917  1  0  0.121173  0  1.003305  0  0  0.135927  0  1.071811  0  0  0.13913  0  1.071785  0  0  0.075357  0.133365  0  1.072525  0
H  H63  1  0.15213670  0.30090069  0.57824009  1  0  0.121258  0  1.003193  0  0  0.135914  0  1.071812  0  0  0.139113  0  1.071795  0  0  0.07534  0.133358  0  1.07252  0
H  H64  1  0.74544945  0.54432567  0.41814943  1  0  0.123228  0  1.001432  0  0  0.137328  0  1.069305  0  0  0.139787  0  1.070523  0  0  0.075976  0.135532  0  1.068636  0
H  H65  1  0.25455859  0.45566576  0.58184438  1  0  0.123257  0  1.001402  0  0  0.137346  0  1.069278  0  0  0.139807  0  1.0705  0  0  0.075967  0.135555  0  1.068607  0
C  C66  1  0.29539108  0.90459940  0.15390848  1  0  0.059858  0  3.679775  0  0  -0.000797  0  3.95599  0  0  0.005538  0  3.961769  0  0  -0.072703  -0.005102  0  3.951892  0
C  C67  1  0.70460173  0.09540330  0.84609426  1  0  0.059999  0  3.679808  0  0  -0.000661  0  3.956034  0  0  0.005673  0  3.961814  0  0  -0.072641  -0.004969  0  3.951933  0
C  C68  1  0.30221456  0.93810623  0.26828788  1  0  0.053994  0  3.693297  0  0  -0.008302  0  3.973809  0  0  -0.001673  0  3.979359  0  0  -0.077078  -0.012535  0  3.969644  0
C  C69  1  0.69779061  0.06189642  0.73171492  1  0  0.054092  0  3.693077  0  0  -0.008339  0  3.973688  0  0  -0.001713  0  3.97923  0  0  -0.077083  -0.012567  0  3.969518  0
C  C70  1  0.40540286  0.09586366  0.42709988  1  0  0.052781  0  3.670923  0  0  -0.004033  0  3.943312  0  0  0.001808  0  3.948524  0  0  -0.075343  -0.007904  0  3.939404  0
C  C71  1  0.59459660  0.90413902  0.57290185  1  0  0.05278  0  3.670843  0  0  -0.004076  0  3.943254  0  0  0.001765  0  3.948462  0  0  -0.075366  -0.007946  0  3.939345  0
C  C72  1  0.52275939  0.20292664  0.47738014  1  0  0.058098  0  3.667353  0  0  -0.00358  0  3.941704  0  0  0.003098  0  3.947721  0  0  -0.076252  -0.007964  0  3.937452  0
C  C73  1  0.47724067  0.79707400  0.52261897  1  0  0.058061  0  3.667329  0  0  -0.003589  0  3.941626  0  0  0.003087  0  3.947647  0  0  -0.076229  -0.007971  0  3.937374  0
C  C74  1  0.75074709  0.24278043  0.50803990  1  0  0.059683  0  3.669477  0  0  -0.000226  0  3.945975  0  0  0.005846  0  3.952935  0  0  -0.073158  -0.004246  0  3.941031  0
C  C75  1  0.24925395  0.75722019  0.49196431  1  0  0.059714  0  3.669431  0  0  -0.000221  0  3.945981  0  0  0.005831  0  3.952947  0  0  -0.073144  -0.004243  0  3.941038  0
C  C76  1  0.86733263  0.17684808  0.48177744  1  0  0.06145  0  3.679446  0  0  0.001032  0  3.952311  0  0  0.007336  0  3.958913  0  0  -0.072241  -0.003237  0  3.94743  0
C  C77  1  0.13266651  0.82315255  0.51822593  1  0  0.061531  0  3.679374  0  0  0.001051  0  3.952381  0  0  0.007354  0  3.958989  0  0  -0.072252  -0.00322  0  3.9475  0
C  C78  1  0.98484546  0.09397409  0.34328777  1  0  0.050412  0  3.690207  0  0  -0.011421  0  3.970439  0  0  -0.005246  0  3.975819  0  0  -0.074994  -0.015791  0  3.966904  0
C  C79  1  0.01515467  0.90603266  0.65671570  1  0  0.050337  0  3.690104  0  0  -0.011479  0  3.970393  0  0  -0.005316  0  3.975794  0  0  -0.075006  -0.015845  0  3.96686  0
C  C80  1  0.98307184  0.07469265  0.23074947  1  0  0.06674  0  3.679311  0  0  0.005854  0  3.952364  0  0  0.012529  0  3.959397  0  0  -0.073229  0.001489  0  3.947568  0
C  C81  1  0.01692639  0.92531411  0.76925316  1  0  0.067046  0  3.678875  0  0  0.006005  0  3.95211  0  0  0.01267  0  3.959155  0  0  -0.073153  0.001643  0  3.947315  0
C  C82  1  0.87084768  0.94561125  0.06619697  1  0  0.057146  0  3.685064  0  0  -0.005216  0  3.961075  0  0  0.001275  0  3.967206  0  0  -0.075756  -0.009422  0  3.956809  0
C  C83  1  0.12914719  0.05439247  0.93380399  1  0  0.056949  0  3.685245  0  0  -0.005226  0  3.961055  0  0  0.001257  0  3.967182  0  0  -0.075754  -0.009435  0  3.956785  0
C  C84  1  0.76104810  0.83116555  0.01042233  1  0  0.054381  0  3.68087  0  0  -0.005733  0  3.957732  0  0  0.000611  0  3.963513  0  0  -0.076257  -0.010082  0  3.953895  0
C  C85  1  0.23894616  0.16884021  0.98958052  1  0  0.054282  0  3.680852  0  0  -0.005915  0  3.957758  0  0  0.00044  0  3.963518  0  0  -0.076342  -0.010274  0  3.953927  0
C  C86  1  0.53271462  0.76861338  0.98658634  1  0  0.052265  0  3.657651  0  0  -0.006665  0  3.931308  0  0  -0.000838  0  3.937832  0  0  -0.075411  -0.010564  0  3.926747  0
C  C87  1  0.46728060  0.23139237  0.01341729  1  0  0.052217  0  3.657967  0  0  -0.006559  0  3.931452  0  0  -0.000731  0  3.937981  0  0  -0.075455  -0.010447  0  3.926865  0
C  C88  1  0.41147036  0.82402587  0.01463275  1  0  0.054255  0  3.667853  0  0  -0.006628  0  3.942278  0  0  -4.2e-05  0  3.948303  0  0  -0.078225  -0.010971  0  3.937897  0
C  C89  1  0.58852375  0.17597887  0.98537201  1  0  0.054406  0  3.667902  0  0  -0.006623  0  3.942395  0  0  -5.7e-05  0  3.948414  0  0  -0.078174  -0.010969  0  3.938011  0
C  C90  1  0.53521924  0.57158031  0.29689735  1  0  -0.048213  0  3.752576  0  0  -0.019068  0  3.9708  0  0  -0.024779  0  3.995182  0  0  -0.023093  -0.015375  0  3.954355  0
C  C91  1  0.46478281  0.42841523  0.70309706  1  0  -0.047991  0  3.752417  0  0  -0.018986  0  3.970785  0  0  -0.024701  0  3.995165  0  0  -0.023113  -0.015287  0  3.954337  0
C  C92  1  0.49337312  0.47419919  0.34209426  1  0  -0.091188  0  3.758851  0  0  -0.113049  0  4.003838  0  0  -0.114316  0  4.025688  0  0  -0.091244  -0.111555  0  3.988731  0
C  C93  1  0.50662567  0.52579941  0.65790644  1  0  -0.091257  0  3.75894  0  0  -0.113076  0  4.003944  0  0  -0.114343  0  4.025797  0  0  -0.091271  -0.111582  0  3.988832  0
C  C94  1  0.36715138  0.40285637  0.31665976  1  0  -0.080901  0  3.785405  0  0  -0.094924  0  4.038937  0  0  -0.097186  0  4.059352  0  0  -0.097669  -0.093763  0  4.025685  0
C  C95  1  0.63285015  0.59714732  0.68334234  1  0  -0.080944  0  3.785387  0  0  -0.094952  0  4.038904  0  0  -0.097216  0  4.059323  0  0  -0.097686  -0.093789  0  4.025649  0
C  C96  1  0.28114562  0.42677624  0.24436787  1  0  -0.073635  0  3.794591  0  0  -0.090137  0  4.046554  0  0  -0.091338  0  4.069498  0  0  -0.09533  -0.089222  0  4.031296  0
C  C97  1  0.71884970  0.57322441  0.75563238  1  0  -0.073734  0  3.794562  0  0  -0.090251  0  4.046535  0  0  -0.091456  0  4.069482  0  0  -0.095337  -0.089332  0  4.031272  0
C  C98  1  0.32191960  0.52223139  0.19768082  1  0  -0.076395  0  3.775025  0  0  -0.089685  0  4.028948  0  0  -0.092929  0  4.051568  0  0  -0.09287  -0.08765  0  4.014243  0
C  C99  1  0.67808151  0.47776415  0.80231497  1  0  -0.076337  0  3.775003  0  0  -0.08962  0  4.028912  0  0  -0.092862  0  4.05153  0  0  -0.092909  -0.087583  0  4.014204  0
C  C100  1  0.44768256  0.59447959  0.22426107  1  0  -0.083446  0  3.733386  0  0  -0.10996  0  3.988265  0  0  -0.110073  0  4.006681  0  0  -0.086285  -0.110237  0  3.976915  0
C  C101  1  0.55232101  0.40550778  0.77573147  1  0  -0.083463  0  3.733198  0  0  -0.109917  0  3.988146  0  0  -0.110026  0  4.00656  0  0  -0.086211  -0.110195  0  3.976796  0
C  C102  1  0.66702632  0.66030290  0.32969324  1  0  0.457769  0  3.835357  0  0  0.445052  0  4.107834  0  0  0.46832  0  4.115519  0  0  0.115271  0.429298  0  4.102415  0
C  C103  1  0.33297377  0.33968652  0.67029741  1  0  0.457693  0  3.835512  0  0  0.445035  0  4.107944  0  0  0.468305  0  4.115632  0  0  0.115282  0.42928  0  4.102527  0
C  C104  1  0.77182483  0.61455691  0.37691149  1  0  -0.531908  0  3.654078  0  0  -0.603354  0  3.937007  0  0  -0.622386  0  3.958198  0  0  -0.280652  -0.591533  0  3.923457  0
C  C105  1  0.22817605  0.38543149  0.62307896  1  0  -0.532019  0  3.654029  0  0  -0.603372  0  3.936936  0  0  -0.622411  0  3.958129  0  0  -0.280619  -0.591542  0  3.92337  0
C  C106  1  0.73937958  0.33563513  0.23734223  1  0  0.158913  0  3.311443  0  0  0.079459  0  3.661087  0  0  0.113258  0  3.668089  0  0  0.010751  0.057279  0  3.654638  0
C  C107  1  0.26062248  0.66436040  0.76265289  1  0  0.158818  0  3.311598  0  0  0.07932  0  3.661268  0  0  0.11311  0  3.66828  0  0  0.010675  0.057148  0  3.654819  0
C  C108  1  0.74604587  0.51638489  0.13897623  1  0  0.154704  0  3.322615  0  0  0.080927  0  3.66243  0  0  0.112443  0  3.671039  0  0  0.01086  0.060176  0  3.655015  0
C  C109  1  0.25396470  0.48361063  0.86101224  1  0  0.154672  0  3.322451  0  0  0.08087  0  3.662264  0  0  0.112374  0  3.670872  0  0  0.010802  0.060125  0  3.654856  0
C  C110  1  0.96644987  0.64721601  0.24854172  1  0  0.174296  0  3.282872  0  0  0.100221  0  3.617775  0  0  0.134423  0  3.622742  0  0  0.017914  0.077341  0  3.613229  0
C  C111  1  0.03355867  0.35277848  0.75145285  1  0  0.174192  0  3.283033  0  0  0.100088  0  3.617924  0  0  0.134279  0  3.622889  0  0  0.01788  0.077217  0  3.613384  0
C  C112  1  0.97422400  0.45782558  0.33820136  1  0  0.160281  0  3.294698  0  0  0.082352  0  3.640329  0  0  0.115896  0  3.645918  0  0  0.013736  0.060069  0  3.635197  0
C  C113  1  0.02578057  0.54216791  0.66179272  1  0  0.16011  0  3.294687  0  0  0.082172  0  3.640321  0  0  0.11571  0  3.645923  0  0  0.013626  0.059892  0  3.635183  0
C  C114  1  0.93380482  0.38336118  0.13549262  1  0  0.045498  0  3.503249  0  0  -0.028334  0  3.856319  0  0  -0.000711  0  3.87058  0  0  -0.049061  -0.046052  0  3.844489  0
C  C115  1  0.06622705  0.61663628  0.86450705  1  0  0.045144  0  3.502863  0  0  -0.02872  0  3.855963  0  0  -0.001103  0  3.87024  0  0  -0.049099  -0.046433  0  3.844124  0
O  O116  1  0.40911499  0.85332648  0.12247111  1  0  -0.333438  0  2.270096  0  0  -0.257908  0  2.518985  0  0  -0.273837  0  2.520262  0  0  -0.279633  -0.246375  0  2.517323  0
O  O117  1  0.59087827  0.14667316  0.87753020  1  0  -0.333651  0  2.270138  0  0  -0.258118  0  2.519092  0  0  -0.274056  0  2.520382  0  0  -0.279733  -0.246585  0  2.517435  0
O  O118  1  0.40283251  0.05151575  0.31825289  1  0  -0.334395  0  2.264785  0  0  -0.266228  0  2.51748  0  0  -0.281524  0  2.518114  0  0  -0.275469  -0.255239  0  2.516764  0
O  O119  1  0.59716852  0.94848487  0.68174916  1  0  -0.334488  0  2.264779  0  0  -0.266231  0  2.517471  0  0  -0.281499  0  2.518085  0  0  -0.275471  -0.255244  0  2.516756  0
O  O120  1  0.63714060  0.14542464  0.45777402  1  0  -0.33431  0  2.283883  0  0  -0.263234  0  2.536678  0  0  -0.27903  0  2.537745  0  0  -0.276413  -0.252126  0  2.535395  0
O  O121  1  0.36286231  0.85457599  0.54222456  1  0  -0.334365  0  2.283913  0  0  -0.263252  0  2.536693  0  0  -0.279046  0  2.53777  0  0  -0.276411  -0.252146  0  2.535417  0
O  O122  1  0.87299985  0.14886859  0.37503356  1  0  -0.327939  0  2.300071  0  0  -0.255969  0  2.551967  0  0  -0.272402  0  2.555391  0  0  -0.272354  -0.24431  0  2.548944  0
O  O123  1  0.12699644  0.85113205  0.62496891  1  0  -0.327886  0  2.300085  0  0  -0.255918  0  2.552009  0  0  -0.272349  0  2.555441  0  0  -0.272298  -0.24426  0  2.548993  0
O  O124  1  0.87751006  0.97086223  0.17390492  1  0  -0.325743  0  2.275766  0  0  -0.25293  0  2.525515  0  0  -0.268363  0  2.526529  0  0  -0.280192  -0.242187  0  2.52456  0
O  O125  1  0.12248974  0.02914249  0.82609732  1  0  -0.325689  0  2.275694  0  0  -0.252957  0  2.525511  0  0  -0.268379  0  2.526529  0  0  -0.280221  -0.242213  0  2.524565  0
O  O126  1  0.64170488  0.87403539  0.03609460  1  0  -0.339512  0  2.270572  0  0  -0.268855  0  2.523802  0  0  -0.28439  0  2.524585  0  0  -0.275441  -0.257825  0  2.522856  0
O  O127  1  0.35829127  0.12597037  0.96390693  1  0  -0.339525  0  2.270481  0  0  -0.268845  0  2.523639  0  0  -0.284385  0  2.524423  0  0  -0.275427  -0.257804  0  2.522689  0
O  O128  1  0.67981308  0.77377287  0.31570731  1  0  -0.59383  0  1.911856  0  0  -0.550276  0  2.134272  0  0  -0.57395  0  2.129709  0  0  -0.409985  -0.533716  0  2.137047  0
O  O129  1  0.32019587  0.22621858  0.68428007  1  0  -0.593847  0  1.912008  0  0  -0.55029  0  2.134378  0  0  -0.573956  0  2.129808  0  0  -0.409975  -0.53373  0  2.137154  0
O  O130  1  0.66459051  0.24108103  0.23420286  1  0  -0.235659  0  2.239766  0  0  -0.178046  0  2.487672  0  0  -0.194594  0  2.482053  0  0  -0.205505  -0.167028  0  2.490959  0
O  O131  1  0.33541098  0.75891038  0.76580708  1  0  -0.235584  0  2.239949  0  0  -0.177957  0  2.48786  0  0  -0.194464  0  2.482161  0  0  -0.205398  -0.166937  0  2.491143  0
O  O132  1  0.68204775  0.53149561  0.07156626  1  0  -0.213185  0  2.23226  0  0  -0.156215  0  2.469688  0  0  -0.173452  0  2.466781  0  0  -0.160352  -0.144607  0  2.471218  0
O  O133  1  0.31795990  0.46849381  0.92841696  1  0  -0.21316  0  2.232164  0  0  -0.15618  0  2.469598  0  0  -0.173411  0  2.466693  0  0  -0.160266  -0.144559  0  2.471128  0
O  O134  1  0.03555700  0.74594487  0.25272015  1  0  -0.220687  0  2.23316  0  0  -0.161474  0  2.472622  0  0  -0.178552  0  2.466993  0  0  -0.163884  -0.149959  0  2.47584  0
O  O135  1  0.96444880  0.25406187  0.74727865  1  0  -0.220602  0  2.233419  0  0  -0.161366  0  2.472875  0  0  -0.178437  0  2.46725  0  0  -0.163819  -0.149848  0  2.476091  0
O  O136  1  0.04930563  0.43915438  0.39713380  1  0  -0.210303  0  2.225232  0  0  -0.149063  0  2.459829  0  0  -0.16634  0  2.456253  0  0  -0.16415  -0.137433  0  2.461585  0
O  O137  1  0.95069832  0.56085849  0.60286636  1  0  -0.210243  0  2.225206  0  0  -0.149011  0  2.459795  0  0  -0.166278  0  2.456211  0  0  -0.164061  -0.13737  0  2.461542  0
O  O138  1  0.98103792  0.31664564  0.06729875  1  0  -0.242126  0  2.247419  0  0  -0.18822  0  2.488902  0  0  -0.205321  0  2.486406  0  0  -0.205363  -0.176661  0  2.489829  0
O  O139  1  0.01896026  0.68333151  0.93270466  1  0  -0.242078  0  2.246833  0  0  -0.188163  0  2.488304  0  0  -0.205265  0  2.485818  0  0  -0.205485  -0.17659  0  2.489221  0
