# generated using pymatgen
data_ZnH16C24(NO)4
_symmetry_space_group_name_H-M   'P 1'
_cell_length_a   7.37271975
_cell_length_b   17.03617662
_cell_length_c   18.51530553
_cell_angle_alpha   62.61187960
_cell_angle_beta   88.24833861
_cell_angle_gamma   86.21037117
_symmetry_Int_Tables_number   1
_chemical_formula_structural   ZnH16C24(NO)4
_chemical_formula_sum   'Zn2 H32 C48 N8 O8'
_cell_volume   2060.38993024
_cell_formula_units_Z   2
loop_
 _symmetry_equiv_pos_site_id
 _symmetry_equiv_pos_as_xyz
  1  'x, y, z'
loop_
 _atom_site_type_symbol
 _atom_site_label
 _atom_site_symmetry_multiplicity
 _atom_site_fract_x
 _atom_site_fract_y
 _atom_site_fract_z
 _atom_site_occupancy
 _atom_site_hle17_bader_spin_density
 _atom_site_hle17_ddec_charge
 _atom_site_hle17_ddec_spin_density
 _atom_site_hle17_ddec_sum_bond_order
 _atom_site_hle17_magmom
 _atom_site_hse06_10hf_bader_spin_density
 _atom_site_hse06_10hf_ddec_charge
 _atom_site_hse06_10hf_ddec_spin_density
 _atom_site_hse06_10hf_ddec_sum_bond_order
 _atom_site_hse06_10hf_magmom
 _atom_site_hse06_bader_spin_density
 _atom_site_hse06_ddec_charge
 _atom_site_hse06_ddec_spin_density
 _atom_site_hse06_ddec_sum_bond_order
 _atom_site_hse06_magmom
 _atom_site_pbe_bader_spin_density
 _atom_site_pbe_cm5_charge
 _atom_site_pbe_ddec_charge
 _atom_site_pbe_ddec_spin_density
 _atom_site_pbe_ddec_sum_bond_order
 _atom_site_pbe_magmom
Zn  Zn0  1  0.24974146  0.09163924  0.81656348  1  0  0.962322  0  1.868983  0  0  0.77519  0  2.324695  0  0  0.826532  0  2.270633  0  0  0.675009  0.739526  0  2.361588  0
Zn  Zn1  1  0.75025976  0.90836061  0.18343665  1  0  0.962381  0  1.868912  0  0  0.775262  0  2.324599  0  0  0.826597  0  2.270537  0  0  0.67504  0.739593  0  2.361491  0
H  H2  1  0.66979860  0.20162717  0.73677202  1  0  0.107319  0  0.980206  0  0  0.112246  0  1.050097  0  0  0.116266  0  1.046975  0  0  0.098897  0.109305  0  1.052461  0
H  H3  1  0.83069631  0.06186978  0.73674111  1  0  0.107928  0  0.980292  0  0  0.112906  0  1.049911  0  0  0.116913  0  1.046816  0  0  0.099204  0.109975  0  1.052227  0
H  H4  1  0.33020372  0.79837436  0.26322842  1  0  0.107314  0  0.980244  0  0  0.112231  0  1.050144  0  0  0.116251  0  1.047024  0  0  0.098897  0.109291  0  1.052506  0
H  H5  1  0.16930489  0.93812792  0.26326119  1  0  0.107932  0  0.980332  0  0  0.112909  0  1.049937  0  0  0.116909  0  1.046859  0  0  0.099212  0.109982  0  1.05225  0
H  H6  1  0.42988132  0.31253896  0.65064984  1  0  0.124126  0  0.966279  0  0  0.128182  0  1.035421  0  0  0.132872  0  1.031529  0  0  0.104356  0.124787  0  1.038325  0
H  H7  1  0.07030364  0.03720335  0.65042054  1  0  0.123326  0  0.967382  0  0  0.127524  0  1.03623  0  0  0.132148  0  1.032443  0  0  0.104333  0.12414  0  1.039136  0
H  H8  1  0.57011827  0.68746153  0.34935165  1  0  0.124113  0  0.966291  0  0  0.128172  0  1.035436  0  0  0.132861  0  1.031543  0  0  0.104364  0.124778  0  1.038337  0
H  H9  1  0.92969654  0.96279012  0.34958333  1  0  0.123351  0  0.967337  0  0  0.127552  0  1.036184  0  0  0.132178  0  1.032392  0  0  0.104335  0.124167  0  1.039089  0
H  H10  1  0.83839578  0.49652733  0.52074899  1  0  0.103097  0  0.968268  0  0  0.108256  0  1.037675  0  0  0.111524  0  1.035708  0  0  0.103445  0.105907  0  1.039185  0
H  H11  1  0.66122747  0.98334321  0.52060690  1  0  0.10304  0  0.968705  0  0  0.108401  0  1.0379  0  0  0.111679  0  1.035903  0  0  0.103589  0.106052  0  1.039416  0
H  H12  1  0.16160256  0.50347386  0.47925112  1  0  0.103114  0  0.96824  0  0  0.108278  0  1.03764  0  0  0.111545  0  1.035674  0  0  0.103461  0.105929  0  1.039149  0
H  H13  1  0.33877221  0.01665689  0.47939431  1  0  0.103133  0  0.968624  0  0  0.108467  0  1.037854  0  0  0.111743  0  1.035852  0  0  0.103601  0.106115  0  1.039376  0
H  H14  1  0.07992724  0.38700976  0.61160920  1  0  0.101639  0  0.952283  0  0  0.106879  0  1.02132  0  0  0.111075  0  1.017347  0  0  0.103065  0.103764  0  1.024327  0
H  H15  1  0.42007804  0.00182319  0.61171201  1  0  0.102021  0  0.95176  0  0  0.106643  0  1.021387  0  0  0.110906  0  1.017344  0  0  0.103187  0.103489  0  1.024436  0
H  H16  1  0.92007292  0.61299111  0.38838792  1  0  0.101619  0  0.952311  0  0  0.106869  0  1.021332  0  0  0.111064  0  1.017361  0  0  0.103073  0.103755  0  1.024338  0
H  H17  1  0.57991884  0.99817732  0.38828944  1  0  0.102047  0  0.951777  0  0  0.106658  0  1.021415  0  0  0.11092  0  1.017374  0  0  0.103183  0.103504  0  1.024464  0
H  H18  1  0.29328381  0.99630203  0.12118412  1  0  0.133032  0  0.964709  0  0  0.139622  0  1.027228  0  0  0.14369  0  1.024702  0  0  0.116078  0.13659  0  1.029328  0
H  H19  1  0.20712754  0.88217807  0.12117423  1  0  0.133452  0  0.964289  0  0  0.140157  0  1.0267  0  0  0.144245  0  1.024105  0  0  0.116307  0.137104  0  1.02884  0
H  H20  1  0.70671498  0.00369670  0.87881514  1  0  0.133011  0  0.964767  0  0  0.139599  0  1.027278  0  0  0.143667  0  1.024753  0  0  0.116084  0.136567  0  1.029379  0
H  H21  1  0.79287116  0.11782158  0.87882477  1  0  0.133439  0  0.96427  0  0  0.140131  0  1.026701  0  0  0.144219  0  1.02411  0  0  0.116287  0.137086  0  1.028836  0
H  H22  1  0.38037332  0.13894734  0.10995148  1  0  0.102395  0  0.916434  0  0  0.117523  0  0.965051  0  0  0.119556  0  0.964455  0  0  0.118422  0.115961  0  0.965589  0
H  H23  1  0.11964804  0.75076444  0.10999068  1  0  0.101738  0  0.916311  0  0  0.117255  0  0.964515  0  0  0.119301  0  0.963903  0  0  0.11819  0.115684  0  0.965067  0
H  H24  1  0.61962672  0.86105122  0.89004862  1  0  0.102387  0  0.916404  0  0  0.117495  0  0.965048  0  0  0.119528  0  0.964454  0  0  0.118423  0.115938  0  0.965585  0
H  H25  1  0.88034795  0.24923524  0.89000828  1  0  0.10178  0  0.916265  0  0  0.11729  0  0.964477  0  0  0.119337  0  0.963863  0  0  0.118206  0.115718  0  0.965032  0
H  H26  1  0.41631912  0.26840391  0.97080055  1  0  0.104404  0  0.933057  0  0  0.118515  0  0.981403  0  0  0.121247  0  0.981721  0  0  0.113462  0.116514  0  0.981366  0
H  H27  1  0.08353407  0.76051824  0.97080387  1  0  0.104299  0  0.932903  0  0  0.118286  0  0.981509  0  0  0.121018  0  0.98183  0  0  0.113412  0.116301  0  0.981452  0
H  H28  1  0.58368219  0.73159502  0.02919985  1  0  0.104393  0  0.933071  0  0  0.1185  0  0.98142  0  0  0.121233  0  0.981738  0  0  0.113444  0.116501  0  0.981384  0
H  H29  1  0.91646463  0.23948195  0.02919459  1  0  0.104307  0  0.932906  0  0  0.118296  0  0.981513  0  0  0.121027  0  0.981835  0  0  0.113414  0.116311  0  0.981458  0
H  H30  1  0.35782028  0.24621383  0.84769179  1  0  0.09861  0  0.916865  0  0  0.109144  0  0.971853  0  0  0.111672  0  0.970058  0  0  0.128539  0.107188  0  0.973279  0
H  H31  1  0.14197617  0.90577280  0.84769700  1  0  0.098778  0  0.916719  0  0  0.109069  0  0.971891  0  0  0.111595  0  0.970119  0  0  0.128843  0.107119  0  0.973316  0
H  H32  1  0.64218122  0.75378541  0.15230698  1  0  0.098623  0  0.916937  0  0  0.109147  0  0.971929  0  0  0.111677  0  0.970138  0  0  0.128536  0.10719  0  0.973353  0
H  H33  1  0.85802244  0.09422777  0.15230173  1  0  0.098803  0  0.916696  0  0  0.109087  0  0.971869  0  0  0.111613  0  0.970096  0  0  0.128842  0.107132  0  0.973299  0
C  C34  1  0.03404299  0.22216754  0.73122321  1  0  0.619068  0  3.909678  0  0  0.573729  0  4.193593  0  0  0.608127  0  4.187817  0  0  0.195468  0.550453  0  4.196553  0
C  C35  1  0.46637000  0.04694174  0.73132798  1  0  0.62029  0  3.907884  0  0  0.574524  0  4.192157  0  0  0.608934  0  4.18636  0  0  0.195098  0.551239  0  4.195122  0
C  C36  1  0.96595951  0.77783375  0.26877614  1  0  0.619281  0  3.909354  0  0  0.573977  0  4.193248  0  0  0.608375  0  4.187469  0  0  0.195605  0.550699  0  4.196209  0
C  C37  1  0.53363114  0.95305849  0.26867243  1  0  0.620284  0  3.907954  0  0  0.574515  0  4.192225  0  0  0.608925  0  4.186429  0  0  0.195102  0.551228  0  4.195191  0
C  C38  1  0.88962533  0.28800966  0.68004998  1  0  -0.062994  0  3.767474  0  0  -0.040229  0  3.997628  0  0  -0.050053  0  4.023685  0  0  -0.019623  -0.033799  0  3.979897  0
C  C39  1  0.61064714  0.03228143  0.68008543  1  0  -0.064387  0  3.769697  0  0  -0.041222  0  3.999471  0  0  -0.051044  0  4.025523  0  0  -0.019757  -0.034796  0  3.98174  0
C  C40  1  0.11037734  0.71199033  0.31994936  1  0  -0.063039  0  3.767477  0  0  -0.040323  0  3.99769  0  0  -0.050147  0  4.023747  0  0  -0.01961  -0.03389  0  3.979957  0
C  C41  1  0.38935265  0.96771882  0.31991497  1  0  -0.064421  0  3.769814  0  0  -0.04124  0  3.999552  0  0  -0.051058  0  4.025602  0  0  -0.019775  -0.03481  0  3.981821  0
C  C42  1  0.70678306  0.26687931  0.69102723  1  0  -0.069607  0  3.728106  0  0  -0.093523  0  3.976964  0  0  -0.093219  0  3.998171  0  0  -0.089108  -0.093419  0  3.96242  0
C  C43  1  0.79351485  0.04243650  0.69098032  1  0  -0.06957  0  3.729724  0  0  -0.09368  0  3.978392  0  0  -0.093371  0  3.999565  0  0  -0.089298  -0.093553  0  3.963839  0
C  C44  1  0.29321809  0.73312201  0.30897210  1  0  -0.069598  0  3.728097  0  0  -0.093494  0  3.976972  0  0  -0.093189  0  3.998178  0  0  -0.089112  -0.093389  0  3.962425  0
C  C45  1  0.20648636  0.95756173  0.30902144  1  0  -0.069579  0  3.729841  0  0  -0.093691  0  3.978518  0  0  -0.093386  0  3.999691  0  0  -0.089318  -0.09357  0  3.963968  0
C  C46  1  0.57260398  0.32808667  0.64199757  1  0  -0.122817  0  3.687329  0  0  -0.142298  0  3.93214  0  0  -0.14721  0  3.953042  0  0  -0.082551  -0.139008  0  3.917926  0
C  C47  1  0.92752014  0.03032053  0.64182713  1  0  -0.122615  0  3.68804  0  0  -0.141573  0  3.933366  0  0  -0.146439  0  3.954226  0  0  -0.081999  -0.138309  0  3.91916  0
C  C48  1  0.42739562  0.67191435  0.35800338  1  0  -0.12281  0  3.687335  0  0  -0.142296  0  3.932149  0  0  -0.147207  0  3.953048  0  0  -0.082563  -0.139004  0  3.917932  0
C  C49  1  0.07248124  0.96967585  0.35817515  1  0  -0.122637  0  3.688007  0  0  -0.141601  0  3.933328  0  0  -0.146469  0  3.954186  0  0  -0.081988  -0.138336  0  3.919123  0
C  C50  1  0.62120760  0.41017848  0.57980497  1  0  0.165831  0  3.814224  0  0  0.172789  0  4.05895  0  0  0.173619  0  4.083928  0  0  0.08717  0.172305  0  4.041977  0
C  C51  1  0.87875619  0.01042876  0.57964218  1  0  0.167225  0  3.812498  0  0  0.172497  0  4.059611  0  0  0.173356  0  4.084538  0  0  0.087143  0.17203  0  4.042615  0
C  C52  1  0.37879083  0.58982232  0.42019487  1  0  0.165831  0  3.814212  0  0  0.172792  0  4.058928  0  0  0.173624  0  4.083904  0  0  0.08719  0.172309  0  4.041956  0
C  C53  1  0.12124485  0.98957133  0.42035906  1  0  0.167321  0  3.812443  0  0  0.172617  0  4.0595  0  0  0.173478  0  4.084425  0  0  0.08718  0.17215  0  4.042503  0
C  C54  1  0.80462910  0.43197386  0.56877256  1  0  -0.133229  0  3.725426  0  0  -0.150571  0  3.965233  0  0  -0.155456  0  3.988947  0  0  -0.086887  -0.147346  0  3.949143  0
C  C55  1  0.69523534  0.99975227  0.56868503  1  0  -0.134056  0  3.727019  0  0  -0.15118  0  3.967173  0  0  -0.156083  0  3.990904  0  0  -0.087186  -0.147947  0  3.951057  0
C  C56  1  0.19536798  0.56802803  0.43122617  1  0  -0.13326  0  3.725431  0  0  -0.150609  0  3.965242  0  0  -0.155494  0  3.988955  0  0  -0.086945  -0.147384  0  3.949151  0
C  C57  1  0.30476011  0.00025080  0.43131451  1  0  -0.134229  0  3.727042  0  0  -0.151351  0  3.967211  0  0  -0.15625  0  3.990935  0  0  -0.08726  -0.148118  0  3.951095  0
C  C58  1  0.93721310  0.37149904  0.61898799  1  0  -0.066796  0  3.747063  0  0  -0.087166  0  3.988774  0  0  -0.08789  0  4.011297  0  0  -0.083833  -0.086361  0  3.973356  0
C  C59  1  0.56283865  0.00994133  0.61901359  1  0  -0.066008  0  3.747961  0  0  -0.085759  0  3.989295  0  0  -0.08655  0  4.011799  0  0  -0.083614  -0.084917  0  3.973911  0
C  C60  1  0.06278823  0.62850150  0.38101078  1  0  -0.066796  0  3.747124  0  0  -0.087156  0  3.98885  0  0  -0.087881  0  4.011376  0  0  -0.083852  -0.086351  0  3.973432  0
C  C61  1  0.43715961  0.99006132  0.38098571  1  0  -0.065998  0  3.747936  0  0  -0.085743  0  3.98926  0  0  -0.086537  0  4.011764  0  0  -0.083583  -0.084904  0  3.973877  0
C  C62  1  0.27646805  0.04612017  0.99009854  1  0  0.172683  0  3.748153  0  0  0.166731  0  3.992296  0  0  0.17287  0  4.01363  0  0  0.120601  0.162682  0  3.977838  0
C  C63  1  0.22355903  0.96348260  0.99008824  1  0  0.172428  0  3.744842  0  0  0.165918  0  3.99026  0  0  0.172048  0  4.011599  0  0  0.120534  0.161882  0  3.975793  0
C  C64  1  0.72353598  0.95387927  0.00990136  1  0  0.172654  0  3.748198  0  0  0.166664  0  3.992378  0  0  0.172796  0  4.013706  0  0  0.120579  0.162615  0  3.97792  0
C  C65  1  0.77644111  0.03651557  0.00991158  1  0  0.172366  0  3.744941  0  0  0.165845  0  3.99039  0  0  0.171974  0  4.011734  0  0  0.12051  0.161808  0  3.975926  0
C  C66  1  0.30474865  0.05281778  0.06133984  1  0  -0.125562  0  3.656489  0  0  -0.14799  0  3.912419  0  0  -0.154441  0  3.932345  0  0  -0.072558  -0.14386  0  3.89917  0
C  C67  1  0.19538040  0.88551235  0.06133759  1  0  -0.127049  0  3.656624  0  0  -0.149674  0  3.913206  0  0  -0.156111  0  3.933139  0  0  -0.073196  -0.145538  0  3.899938  0
C  C68  1  0.69525284  0.94718038  0.93866000  1  0  -0.125522  0  3.656579  0  0  -0.147916  0  3.912482  0  0  -0.154365  0  3.93241  0  0  -0.072546  -0.143785  0  3.899234  0
C  C69  1  0.80461821  0.11448769  0.93866169  1  0  -0.126958  0  3.656528  0  0  -0.149566  0  3.913104  0  0  -0.156005  0  3.933041  0  0  -0.073127  -0.145435  0  3.899845  0
C  C70  1  0.35584661  0.13318653  0.05483761  1  0  0.000772  0  3.719513  0  0  -0.020397  0  3.976659  0  0  -0.01685  0  3.995322  0  0  -0.061936  -0.022495  0  3.963874  0
C  C71  1  0.14415884  0.81163966  0.05486917  1  0  0.003002  0  3.718697  0  0  -0.018191  0  3.975606  0  0  -0.014651  0  3.994285  0  0  -0.060881  -0.020292  0  3.962821  0
C  C72  1  0.64415471  0.86681293  0.94516225  1  0  0.000764  0  3.719495  0  0  -0.020395  0  3.976632  0  0  -0.016847  0  3.99529  0  0  -0.061958  -0.022495  0  3.963851  0
C  C73  1  0.85583860  0.18836016  0.94512899  1  0  0.002967  0  3.71847  0  0  -0.01822  0  3.975378  0  0  -0.014679  0  3.994054  0  0  -0.06089  -0.020321  0  3.962595  0
C  C74  1  0.37597639  0.20478081  0.97812102  1  0  -0.128364  0  3.7578  0  0  -0.14157  0  4.01229  0  0  -0.148581  0  4.034545  0  0  -0.08125  -0.137037  0  3.997254  0
C  C75  1  0.12396134  0.81678899  0.97814476  1  0  -0.128753  0  3.759358  0  0  -0.14196  0  4.013964  0  0  -0.148985  0  4.036239  0  0  -0.081313  -0.137432  0  3.998937  0
C  C76  1  0.62402483  0.79521850  0.02187966  1  0  -0.128452  0  3.75797  0  0  -0.141652  0  4.012453  0  0  -0.148665  0  4.034712  0  0  -0.081283  -0.137122  0  3.997421  0
C  C77  1  0.87603745  0.18321027  0.02185396  1  0  -0.128847  0  3.759303  0  0  -0.142055  0  4.013922  0  0  -0.149081  0  4.036197  0  0  -0.081398  -0.137529  0  3.998895  0
C  C78  1  0.34505325  0.19324769  0.90972484  1  0  0.137107  0  3.699367  0  0  0.104968  0  3.952277  0  0  0.111646  0  3.970534  0  0  0.058256  0.100674  0  3.939888  0
C  C79  1  0.15478641  0.89668745  0.90972331  1  0  0.136975  0  3.699515  0  0  0.105483  0  3.952438  0  0  0.112155  0  3.970716  0  0  0.058016  0.101176  0  3.940068  0
C  C80  1  0.65494815  0.80675031  0.09027583  1  0  0.137161  0  3.699533  0  0  0.105016  0  3.952424  0  0  0.11168  0  3.970685  0  0  0.058271  0.100726  0  3.940033  0
C  C81  1  0.84521365  0.10331218  0.09027571  1  0  0.137016  0  3.699576  0  0  0.105531  0  3.95249  0  0  0.112204  0  3.970768  0  0  0.058088  0.101229  0  3.94012  0
N  N82  1  0.29742870  0.11589061  0.91606886  1  0  -0.33997  0  3.286388  0  0  -0.266857  0  3.554775  0  0  -0.285269  0  3.571006  0  0  -0.317661  -0.254549  0  3.543806  0
N  N83  1  0.20240428  0.96773501  0.91605065  1  0  -0.339662  0  3.281629  0  0  -0.267372  0  3.551402  0  0  -0.285733  0  3.567508  0  0  -0.317816  -0.255046  0  3.540407  0
N  N84  1  0.70257407  0.88410846  0.08393074  1  0  -0.339937  0  3.286264  0  0  -0.266783  0  3.554623  0  0  -0.285169  0  3.570826  0  0  -0.317617  -0.254473  0  3.54365  0
N  N85  1  0.79759578  0.03226517  0.08394783  1  0  -0.339652  0  3.281651  0  0  -0.267359  0  3.551434  0  0  -0.28572  0  3.567541  0  0  -0.317824  -0.255028  0  3.540424  0
N  N86  1  0.47588267  0.46663273  0.53191474  1  0  -0.152057  0  2.996887  0  0  -0.13278  0  3.278424  0  0  -0.130898  0  3.283167  0  0  -0.147675  -0.133858  0  3.275084  0
N  N87  1  0.02409443  0.00180190  0.53175115  1  0  -0.152368  0  2.995969  0  0  -0.132524  0  3.277696  0  0  -0.130637  0  3.282411  0  0  -0.147665  -0.133628  0  3.274378  0
N  N88  1  0.52411566  0.53336793  0.46808591  1  0  -0.151934  0  2.996835  0  0  -0.132644  0  3.278361  0  0  -0.130762  0  3.283104  0  0  -0.147591  -0.133723  0  3.27502  0
N  N89  1  0.97590278  0.99819438  0.46825190  1  0  -0.15241  0  2.995922  0  0  -0.132581  0  3.277656  0  0  -0.130693  0  3.28237  0  0  -0.14762  -0.133684  0  3.274336  0
O  O90  1  0.19692851  0.24309486  0.72824319  1  0  -0.614752  0  1.933949  0  0  -0.559814  0  2.162194  0  0  -0.585702  0  2.151537  0  0  -0.318036  -0.541623  0  2.168743  0
O  O91  1  0.30345299  0.02889458  0.72845137  1  0  -0.615457  0  1.933229  0  0  -0.560084  0  2.161792  0  0  -0.586024  0  2.151109  0  0  -0.318057  -0.541844  0  2.168359  0
O  O92  1  0.80307246  0.75690776  0.27175616  1  0  -0.614839  0  1.933721  0  0  -0.559927  0  2.161978  0  0  -0.585812  0  2.151314  0  0  -0.318124  -0.541743  0  2.16854  0
O  O93  1  0.69654933  0.97110695  0.27154908  1  0  -0.615495  0  1.933187  0  0  -0.560125  0  2.161747  0  0  -0.586066  0  2.151066  0  0  -0.318091  -0.541885  0  2.168314  0
O  O94  1  0.98996512  0.14193865  0.77882411  1  0  -0.635523  0  2.022425  0  0  -0.562938  0  2.274914  0  0  -0.591844  0  2.262397  0  0  -0.324586  -0.542486  0  2.282633  0
O  O95  1  0.51037692  0.07956624  0.77893038  1  0  -0.635351  0  2.021132  0  0  -0.563135  0  2.273998  0  0  -0.592002  0  2.261491  0  0  -0.324192  -0.542754  0  2.2818  0
O  O96  1  0.01003875  0.85806317  0.22117472  1  0  -0.635609  0  2.022326  0  0  -0.563038  0  2.274807  0  0  -0.591942  0  2.262287  0  0  -0.32464  -0.542585  0  2.282523  0
O  O97  1  0.48962692  0.92043342  0.22107061  1  0  -0.635328  0  2.021247  0  0  -0.563087  0  2.274049  0  0  -0.591951  0  2.261543  0  0  -0.324157  -0.542706  0  2.281853  0
