# generated using pymatgen
data_NiH7C3N(ClO)2
_symmetry_space_group_name_H-M   'P 1'
_cell_length_a   6.62015356
_cell_length_b   7.59453086
_cell_length_c   12.80630978
_cell_angle_alpha   90.00016901
_cell_angle_beta   90.00022947
_cell_angle_gamma   89.99994289
_symmetry_Int_Tables_number   1
_chemical_formula_structural   NiH7C3N(ClO)2
_chemical_formula_sum   'Ni4 H28 C12 N4 Cl8 O8'
_cell_volume   643.86233054
_cell_formula_units_Z   4
loop_
 _symmetry_equiv_pos_site_id
 _symmetry_equiv_pos_as_xyz
  1  'x, y, z'
loop_
 _atom_site_type_symbol
 _atom_site_label
 _atom_site_symmetry_multiplicity
 _atom_site_fract_x
 _atom_site_fract_y
 _atom_site_fract_z
 _atom_site_occupancy
 _atom_site_hle17_ddec_charge
 _atom_site_hle17_ddec_spin_density
 _atom_site_hle17_ddec_sum_bond_order
 _atom_site_hle17_magmom
 _atom_site_hse06_10hf_ddec_charge
 _atom_site_hse06_10hf_ddec_spin_density
 _atom_site_hse06_10hf_ddec_sum_bond_order
 _atom_site_hse06_10hf_magmom
 _atom_site_hse06_ddec_charge
 _atom_site_hse06_ddec_spin_density
 _atom_site_hse06_ddec_sum_bond_order
 _atom_site_hse06_magmom
 _atom_site_pbe_cm5_charge
 _atom_site_pbe_ddec_charge
 _atom_site_pbe_ddec_spin_density
 _atom_site_pbe_ddec_sum_bond_order
 _atom_site_pbe_magmom
Ni  Ni0  1  0.65474365  0.74630050  0.23919046  1  0.752747  1.677512  2.130777  1.43  0.811062  1.769354  2.500582  1.576  0.921678  1.833901  2.404776  1.679  0.438711  0.733293  1.714933  2.567076  1.494
Ni  Ni1  1  0.34525772  0.24630259  0.76080834  1  0.752731  1.677508  2.130797  1.43  0.811034  1.769352  2.500602  1.576  0.92166  1.833899  2.404794  1.679  0.438697  0.733289  1.714952  2.567055  1.494
Ni  Ni2  1  0.15474324  0.74630208  0.26080821  1  0.752661  1.677504  2.130896  1.43  0.81095  1.769345  2.500726  1.576  0.921571  1.833893  2.404926  1.679  0.438679  0.733211  1.714952  2.567156  1.493
Ni  Ni3  1  0.84525812  0.24630101  0.73919060  1  0.752722  1.677506  2.130827  1.43  0.81103  1.769347  2.500636  1.576  0.921664  1.833899  2.404822  1.679  0.438707  0.73329  1.714946  2.56708  1.493
H  H4  1  0.98115271  0.80907655  0.55665701  1  0.338172  0.000585  0.82547  0.0  0.321834  0.000676  0.881968  0.0  0.329611  0.00046  0.874878  0.0  0.319241  0.316106  0.000897  0.887356  0.0
H  H5  1  0.01884858  0.30907610  0.44334425  1  0.338161  0.000586  0.82535  0.0  0.321812  0.000676  0.881859  0.0  0.329599  0.00046  0.874768  0.0  0.319238  0.316087  0.000897  0.88725  0.0
H  H6  1  0.48114923  0.80908032  0.94334245  1  0.338165  0.000585  0.825306  0.0  0.321824  0.000676  0.881832  0.0  0.329596  0.000461  0.874743  0.0  0.319234  0.316095  0.000897  0.887221  0.0
H  H7  1  0.51884602  0.30907496  0.05665335  1  0.33816  0.000586  0.825424  0.0  0.3218  0.000676  0.881934  0.0  0.329594  0.00046  0.874843  0.0  0.319231  0.316076  0.000897  0.887323  0.0
H  H8  1  0.81677129  0.97244422  0.57094604  1  0.329916  -0.000172  0.869427  0.0  0.310246  -0.0  0.931863  0.0  0.317156  -3.6e-05  0.926829  0.0  0.305404  0.305236  4.2e-05  0.935663  0.0
H  H9  1  0.18322529  0.47244224  0.42905552  1  0.329832  -0.000171  0.869587  0.0  0.310154  -0.0  0.932014  0.0  0.317075  -3.6e-05  0.926976  0.0  0.30535  0.30514  4.2e-05  0.935817  0.0
H  H10  1  0.31676921  0.97244661  0.92905495  1  0.329852  -0.000172  0.869576  0.0  0.310187  -0.0  0.932014  0.0  0.317094  -3.6e-05  0.92698  0.0  0.305396  0.305177  4.2e-05  0.935809  0.0
H  H11  1  0.68322283  0.47244380  0.07094271  1  0.32981  -0.000171  0.869571  0.0  0.310082  0.0  0.932052  0.0  0.317009  -3.6e-05  0.927015  0.0  0.305321  0.305073  4.2e-05  0.935847  0.0
H  H12  1  0.80793126  0.84396599  0.46320215  1  0.337303  -0.000331  0.88095  0.0  0.315326  -0.000146  0.946513  0.0  0.324045  -0.000153  0.93905  0.0  0.299883  0.309075  -0.000122  0.951897  0.0
H  H13  1  0.19206546  0.34397109  0.53679761  1  0.337337  -0.000331  0.880979  0.0  0.315352  -0.000146  0.946529  0.0  0.324081  -0.000153  0.939063  0.0  0.299932  0.309102  -0.000122  0.951909  0.0
H  H14  1  0.30793059  0.84397045  0.03679856  1  0.337264  -0.000331  0.880876  0.0  0.315302  -0.000146  0.946435  0.0  0.324016  -0.000153  0.938977  0.0  0.299895  0.309053  -0.000122  0.951807  0.0
H  H15  1  0.69206614  0.34396926  0.96320042  1  0.337372  -0.00033  0.881011  0.0  0.315382  -0.000146  0.946559  0.0  0.324117  -0.000153  0.939091  0.0  0.299952  0.309133  -0.000122  0.951939  0.0
H  H16  1  0.37481662  0.66220019  0.60955987  1  0.129174  0.000951  0.94165  0.0  0.141613  0.001246  1.003876  0.001  0.14537  0.000895  1.001284  0.0  0.096116  0.138774  0.001586  1.006056  0.001
H  H17  1  0.62518334  0.16220818  0.39043878  1  0.129168  0.00095  0.941664  0.0  0.141601  0.001246  1.00388  0.001  0.145359  0.000895  1.001285  0.0  0.096112  0.138765  0.001587  1.006063  0.001
H  H18  1  0.87481671  0.66220460  0.89043988  1  0.129178  0.00095  0.941675  0.0  0.14161  0.001246  1.003893  0.001  0.145366  0.000895  1.001304  0.0  0.096108  0.13877  0.001586  1.006074  0.001
H  H19  1  0.12518324  0.16220377  0.10956345  1  0.129213  0.00095  0.941608  0.0  0.141625  0.001246  1.003854  0.001  0.145382  0.000895  1.001264  0.0  0.096116  0.138784  0.001586  1.006035  0.001
H  H20  1  0.42356757  0.88702245  0.59623232  1  0.1256  -0.000346  0.943981  -0.001  0.136293  0.000179  1.008421  0.0  0.139583  7.1e-05  1.006804  0.0  0.095291  0.133771  0.000298  1.009863  0.0
H  H21  1  0.57643213  0.38702528  0.40376830  1  0.125601  -0.000351  0.943957  -0.001  0.136304  0.000178  1.008377  0.0  0.139596  7.1e-05  1.006756  0.0  0.095293  0.13378  0.000298  1.00982  0.0
H  H22  1  0.92356324  0.88702560  0.90376872  1  0.125608  -0.000349  0.94397  -0.001  0.136313  0.000179  1.008385  0.0  0.139605  7.1e-05  1.006765  0.0  0.095281  0.13379  0.000298  1.009825  0.0
H  H23  1  0.07643041  0.38702476  0.09623034  1  0.12563  -0.000349  0.943975  -0.001  0.136334  0.000179  1.008398  0.0  0.139626  7.1e-05  1.006775  0.0  0.095293  0.133809  0.000298  1.009843  0.0
H  H24  1  0.71250691  0.72786062  0.67876834  1  0.079762  0.001171  0.954026  0.0  0.094254  0.001204  1.016248  0.0  0.096615  0.000859  1.014208  0.0  0.095467  0.092366  0.001539  1.018138  0.001
H  H25  1  0.28749448  0.22786462  0.32123355  1  0.079736  0.001172  0.954038  0.0  0.094244  0.001204  1.016253  0.0  0.096604  0.000859  1.014213  0.0  0.095452  0.092359  0.001539  1.018142  0.001
H  H26  1  0.21250548  0.72786644  0.82123199  1  0.079747  0.001172  0.953964  0.0  0.094243  0.001204  1.016174  0.0  0.096601  0.000859  1.014135  0.0  0.095465  0.092345  0.001539  1.018074  0.001
H  H27  1  0.78748987  0.22786670  0.17876678  1  0.079789  0.00117  0.953953  0.0  0.09429  0.001204  1.016163  0.0  0.096652  0.000859  1.014121  0.0  0.095487  0.09241  0.001539  1.018044  0.001
H  H28  1  0.73526887  0.58691550  0.56932141  1  0.075292  -2.9e-05  0.921975  0.0  0.0881  5.3e-05  0.986154  0.0  0.088441  9e-06  0.986572  0.0  0.104893  0.08774  0.000111  0.986018  0.0
H  H29  1  0.26473420  0.08691872  0.43068101  1  0.075283  -2.8e-05  0.922001  0.0  0.088109  5.3e-05  0.986176  0.0  0.08845  9e-06  0.986592  0.0  0.10489  0.087753  0.000111  0.986041  0.0
H  H30  1  0.23526680  0.58692184  0.93067949  1  0.075296  -2.8e-05  0.92201  0.0  0.088104  5.3e-05  0.986183  0.0  0.088443  9e-06  0.9866  0.0  0.104886  0.087742  0.000111  0.986045  0.0
H  H31  1  0.76473173  0.08691896  0.06931902  1  0.075289  -3e-05  0.922017  0.0  0.0881  5.3e-05  0.986195  0.0  0.088443  9e-06  0.986609  0.0  0.104882  0.087738  0.000111  0.986057  0.0
C  C32  1  0.42539935  0.74661317  0.45058212  1  0.703487  -0.009787  3.791699  -0.008  0.667938  -0.001643  4.09009  -0.001  0.706971  -0.001748  4.083456  -0.001  0.214075  0.640201  -0.001381  4.094042  -0.001
C  C33  1  0.57460352  0.24661274  0.54941590  1  0.703656  -0.009795  3.791595  -0.008  0.668134  -0.001644  4.089923  -0.001  0.707168  -0.001749  4.083283  -0.001  0.214146  0.640394  -0.001381  4.093877  -0.001
C  C34  1  0.92540731  0.74661068  0.04941944  1  0.703758  -0.009792  3.791483  -0.008  0.668223  -0.001645  4.089802  -0.001  0.707257  -0.001749  4.083162  -0.001  0.214237  0.640479  -0.001382  4.093758  -0.001
C  C35  1  0.07459557  0.24661523  0.95058249  1  0.703769  -0.009794  3.791348  -0.008  0.668224  -0.001645  4.089736  -0.001  0.707259  -0.001749  4.083091  -0.001  0.214202  0.64048  -0.001382  4.093691  -0.001
C  C36  1  0.47030512  0.75662063  0.56698182  1  -0.31132  0.01116  3.631063  0.015  -0.346505  0.00732  3.873643  0.009  -0.354132  0.005048  3.878118  0.007  -0.172402  -0.340749  0.009549  3.870461  0.012
C  C37  1  0.52969473  0.25662363  0.43301856  1  -0.311367  0.011168  3.631074  0.015  -0.346518  0.00732  3.8736  0.009  -0.354149  0.005047  3.878079  0.007  -0.172397  -0.340761  0.009548  3.870426  0.012
C  C38  1  0.97030253  0.75662523  0.93301986  1  -0.311469  0.011167  3.631102  0.015  -0.34664  0.00732  3.873643  0.009  -0.354277  0.005047  3.878125  0.007  -0.172419  -0.340878  0.009549  3.870454  0.012
C  C39  1  0.02969278  0.25662298  0.06698287  1  -0.311424  0.011165  3.631006  0.015  -0.346579  0.00732  3.873543  0.009  -0.354203  0.005047  3.878009  0.007  -0.172388  -0.340818  0.009548  3.870357  0.012
C  C40  1  0.69015664  0.71915680  0.59439740  1  0.102179  0.00102  3.547333  0.001  0.04031  0.001467  3.807594  0.002  0.046228  0.000969  3.815236  0.001  -0.071234  0.036367  0.001983  3.80236  0.002
C  C41  1  0.30984476  0.21915986  0.40560369  1  0.102212  0.001016  3.547372  0.001  0.040261  0.001467  3.807688  0.002  0.046195  0.00097  3.815331  0.001  -0.071233  0.036313  0.001983  3.80246  0.002
C  C42  1  0.19015135  0.71916039  0.90560365  1  0.102229  0.001016  3.547236  0.001  0.04038  0.001467  3.807472  0.002  0.0463  0.00097  3.81509  0.001  -0.071221  0.03644  0.001982  3.802238  0.002
C  C43  1  0.80984249  0.21916022  0.09439589  1  0.1021  0.001023  3.547432  0.001  0.040191  0.001467  3.807671  0.002  0.046131  0.000969  3.815322  0.001  -0.07129  0.03625  0.001983  3.802428  0.002
N  N44  1  0.83357449  0.84477069  0.54350166  1  -0.4887  0.000946  3.198377  0.001  -0.435432  0.001101  3.396326  0.001  -0.448568  0.000712  3.390354  0.001  -0.614113  -0.426315  0.001519  3.400882  0.001
N  N45  1  0.16642827  0.34477149  0.45649967  1  -0.488627  0.000944  3.198417  0.001  -0.435297  0.0011  3.396343  0.001  -0.44848  0.000712  3.390404  0.001  -0.614095  -0.426186  0.001519  3.400894  0.001
N  N46  1  0.33357112  0.84477584  0.95649835  1  -0.488571  0.000946  3.198217  0.001  -0.435349  0.001101  3.396195  0.001  -0.448463  0.000712  3.390204  0.001  -0.614116  -0.426234  0.001519  3.400734  0.001
N  N47  1  0.66642409  0.34477292  0.04349829  1  -0.488583  0.000941  3.198457  0.001  -0.435188  0.0011  3.396376  0.001  -0.448401  0.000712  3.390461  0.001  -0.614052  -0.426085  0.001518  3.400925  0.001
Cl  Cl48  1  0.41079888  0.96320134  0.20287472  1  -0.464801  0.116365  1.162117  0.167  -0.483644  0.080262  1.463187  0.114  -0.525734  0.058036  1.436116  0.087  -0.235015  -0.453931  0.098334  1.482645  0.134
Cl  Cl49  1  0.58919921  0.46320076  0.79712682  1  -0.464803  0.116366  1.162139  0.167  -0.483649  0.080262  1.463206  0.114  -0.525742  0.058035  1.436134  0.087  -0.235017  -0.45394  0.098333  1.482647  0.134
Cl  Cl50  1  0.91079975  0.96320267  0.29712642  1  -0.464799  0.116361  1.162093  0.167  -0.483635  0.08026  1.463159  0.114  -0.525724  0.058033  1.436088  0.087  -0.235011  -0.45393  0.098329  1.48263  0.134
Cl  Cl51  1  0.08919684  0.46320339  0.70287356  1  -0.46481  0.116363  1.162095  0.167  -0.483651  0.080261  1.463161  0.114  -0.525744  0.058034  1.436091  0.087  -0.235026  -0.453938  0.098331  1.482595  0.134
Cl  Cl52  1  0.39806684  0.52967756  0.21253049  1  -0.464565  0.123219  1.18249  0.178  -0.483916  0.085209  1.483213  0.122  -0.526852  0.061692  1.455723  0.093  -0.243272  -0.453802  0.10421  1.503022  0.142
Cl  Cl53  1  0.60193327  0.02967692  0.78747104  1  -0.464581  0.123217  1.182492  0.178  -0.483916  0.085207  1.483184  0.122  -0.526855  0.061689  1.455698  0.093  -0.243275  -0.453814  0.104206  1.502995  0.142
Cl  Cl54  1  0.89807518  0.52967620  0.28746905  1  -0.464543  0.123214  1.182432  0.178  -0.48391  0.085207  1.483186  0.122  -0.526845  0.061689  1.455694  0.093  -0.243256  -0.453798  0.104204  1.503002  0.142
Cl  Cl55  1  0.10192946  0.02967696  0.71253014  1  -0.464564  0.123214  1.182462  0.178  -0.483921  0.085206  1.483191  0.122  -0.526859  0.061689  1.455705  0.093  -0.243268  -0.453819  0.104204  1.503001  0.142
O  O56  1  0.57897108  0.75559179  0.39184405  1  -0.611786  0.041167  2.260835  0.07  -0.572307  0.028701  2.525723  0.05  -0.616389  0.021226  2.522285  0.039  -0.311522  -0.540887  0.035192  2.527503  0.058
O  O57  1  0.42103632  0.25560363  0.60815399  1  -0.611837  0.041165  2.260865  0.07  -0.572354  0.028699  2.525721  0.05  -0.616435  0.021226  2.522278  0.039  -0.311545  -0.540934  0.035191  2.527486  0.058
O  O58  1  0.07897400  0.75559528  0.10815136  1  -0.611831  0.041162  2.260952  0.07  -0.572349  0.028699  2.525817  0.05  -0.616427  0.021225  2.522376  0.039  -0.31159  -0.540927  0.035195  2.527581  0.058
O  O59  1  0.92103189  0.25559355  0.89184590  1  -0.61186  0.041163  2.260975  0.07  -0.572402  0.0287  2.52588  0.05  -0.61648  0.021226  2.522431  0.039  -0.311604  -0.540981  0.035194  2.527642  0.058
O  O60  1  0.24153795  0.73152469  0.42031169  1  -0.632426  0.03658  2.073003  0.063  -0.605133  0.025025  2.340335  0.044  -0.643987  0.018065  2.330006  0.034  -0.321531  -0.577212  0.031303  2.346983  0.052
O  O61  1  0.75846797  0.23152424  0.57968553  1  -0.632528  0.036584  2.072871  0.063  -0.605273  0.025026  2.340201  0.044  -0.644133  0.018065  2.32988  0.034  -0.321553  -0.577354  0.031303  2.346856  0.052
O  O62  1  0.74153406  0.73151839  0.07968791  1  -0.632546  0.036587  2.072823  0.063  -0.605271  0.025028  2.340152  0.044  -0.644127  0.018067  2.329817  0.034  -0.321565  -0.577347  0.031304  2.34681  0.052
O  O63  1  0.25847035  0.23152132  0.92031399  1  -0.632621  0.036589  2.072778  0.063  -0.605334  0.025028  2.340091  0.044  -0.644205  0.018067  2.329786  0.034  -0.321557  -0.577414  0.031305  2.346745  0.052
