# generated using pymatgen
data_Cd3H8C4S2(N5O3)2
_symmetry_space_group_name_H-M   'P 1'
_cell_length_a   8.60290817
_cell_length_b   10.60525630
_cell_length_c   17.23624528
_cell_angle_alpha   95.92694578
_cell_angle_beta   89.99984720
_cell_angle_gamma   90.00009826
_symmetry_Int_Tables_number   1
_chemical_formula_structural   Cd3H8C4S2(N5O3)2
_chemical_formula_sum   'Cd12 H32 C16 S8 N40 O24'
_cell_volume   1564.16049820
_cell_formula_units_Z   4
loop_
 _symmetry_equiv_pos_site_id
 _symmetry_equiv_pos_as_xyz
  1  'x, y, z'
loop_
 _atom_site_type_symbol
 _atom_site_label
 _atom_site_symmetry_multiplicity
 _atom_site_fract_x
 _atom_site_fract_y
 _atom_site_fract_z
 _atom_site_occupancy
 _atom_site_hle17_bader_spin_density
 _atom_site_hle17_ddec_charge
 _atom_site_hle17_ddec_spin_density
 _atom_site_hle17_ddec_sum_bond_order
 _atom_site_hle17_magmom
 _atom_site_hse06_10hf_bader_spin_density
 _atom_site_hse06_10hf_ddec_charge
 _atom_site_hse06_10hf_ddec_spin_density
 _atom_site_hse06_10hf_ddec_sum_bond_order
 _atom_site_hse06_10hf_magmom
 _atom_site_hse06_bader_spin_density
 _atom_site_hse06_ddec_charge
 _atom_site_hse06_ddec_spin_density
 _atom_site_hse06_ddec_sum_bond_order
 _atom_site_hse06_magmom
 _atom_site_pbe_bader_spin_density
 _atom_site_pbe_cm5_charge
 _atom_site_pbe_ddec_charge
 _atom_site_pbe_ddec_spin_density
 _atom_site_pbe_ddec_sum_bond_order
 _atom_site_pbe_magmom
Cd  Cd0  1  0.85711132  0.18334772  0.94524009  1  0  1.098525  0  1.790303  0  0  0.909844  0  2.243629  0  0  0.958807  0  2.197067  0  0  0.786539  0.874854  0  2.275421  0
Cd  Cd1  1  0.35711001  0.81665235  0.55475856  1  0  1.098553  0  1.790326  0  0  0.909877  0  2.243636  0  0  0.958836  0  2.197085  0  0  0.786557  0.874898  0  2.275417  0
Cd  Cd2  1  0.14288960  0.81665148  0.05475929  1  0  1.098556  0  1.790324  0  0  0.909886  0  2.243647  0  0  0.958849  0  2.197084  0  0  0.78656  0.874897  0  2.275438  0
Cd  Cd3  1  0.64288974  0.18334684  0.44524024  1  0  1.09851  0  1.790304  0  0  0.909826  0  2.243622  0  0  0.958788  0  2.197069  0  0  0.786535  0.874843  0  2.275398  0
Cd  Cd4  1  0.56635395  0.33864174  0.08875634  1  0  1.173145  0  1.665201  0  0  0.9849  0  2.107819  0  0  1.038788  0  2.056251  0  0  0.776529  0.946615  0  2.14271  0
Cd  Cd5  1  0.06635042  0.66135649  0.41124270  1  0  1.173158  0  1.66522  0  0  0.984902  0  2.107851  0  0  1.038792  0  2.05628  0  0  0.776509  0.946619  0  2.142745  0
Cd  Cd6  1  0.43364697  0.66135746  0.91124304  1  0  1.173117  0  1.665247  0  0  0.984872  0  2.107876  0  0  1.038762  0  2.056305  0  0  0.776498  0.946587  0  2.142768  0
Cd  Cd7  1  0.93364585  0.33864272  0.58875783  1  0  1.173159  0  1.665217  0  0  0.984925  0  2.107838  0  0  1.038812  0  2.056266  0  0  0.776511  0.946641  0  2.14273  0
Cd  Cd8  1  0.23783605  0.36652830  0.94134238  1  0  1.19862  0  1.698399  0  0  1.007033  0  2.15589  0  0  1.059531  0  2.103449  0  0  0.770849  0.969313  0  2.191995  0
Cd  Cd9  1  0.73783455  0.63347164  0.55865815  1  0  1.198634  0  1.698374  0  0  1.007049  0  2.155863  0  0  1.059546  0  2.103424  0  0  0.77086  0.969331  0  2.191971  0
Cd  Cd10  1  0.76216371  0.63347089  0.05865699  1  0  1.198651  0  1.698364  0  0  1.007053  0  2.155884  0  0  1.059552  0  2.103445  0  0  0.770856  0.969335  0  2.191989  0
Cd  Cd11  1  0.26216404  0.36652851  0.44134186  1  0  1.198673  0  1.698336  0  0  1.007097  0  2.155826  0  0  1.059595  0  2.103382  0  0  0.770888  0.969378  0  2.191937  0
H  H12  1  0.87136411  0.90842452  0.12363110  1  0  0.322339  0  0.902209  0  0  0.306491  0  0.963054  0  0  0.313605  0  0.957339  0  0  0.303384  0.301592  0  0.96692  0
H  H13  1  0.37136188  0.09157692  0.37636948  1  0  0.322321  0  0.902257  0  0  0.30642  0  0.963148  0  0  0.313535  0  0.957434  0  0  0.303355  0.301525  0  0.967006  0
H  H14  1  0.12863681  0.09157467  0.87636712  1  0  0.322311  0  0.902216  0  0  0.306463  0  0.963065  0  0  0.313578  0  0.957351  0  0  0.30337  0.301565  0  0.966931  0
H  H15  1  0.62863671  0.90842514  0.62363240  1  0  0.322281  0  0.90227  0  0  0.306399  0  0.963152  0  0  0.313515  0  0.957437  0  0  0.303362  0.301503  0  0.967009  0
H  H16  1  0.91519615  0.04550574  0.08582179  1  0  0.345567  0  0.911341  0  0  0.329382  0  0.97074  0  0  0.336727  0  0.964762  0  0  0.296527  0.324183  0  0.974936  0
H  H17  1  0.41519554  0.95449386  0.41417862  1  0  0.345597  0  0.911302  0  0  0.329407  0  0.97071  0  0  0.336754  0  0.964731  0  0  0.29654  0.324209  0  0.97491  0
H  H18  1  0.08480593  0.95449535  0.91417713  1  0  0.345573  0  0.911315  0  0  0.329391  0  0.970712  0  0  0.336736  0  0.964735  0  0  0.296552  0.324192  0  0.974908  0
H  H19  1  0.58480421  0.04550630  0.58582256  1  0  0.345604  0  0.911223  0  0  0.329469  0  0.970561  0  0  0.336814  0  0.964584  0  0  0.296569  0.32427  0  0.974758  0
H  H20  1  0.45024650  0.95273588  0.84167243  1  0  0.315238  0  0.91751  0  0  0.300608  0  0.983579  0  0  0.306874  0  0.978337  0  0  0.2928  0.29627  0  0.987136  0
H  H21  1  0.95024556  0.04726337  0.65832778  1  0  0.315229  0  0.917536  0  0  0.300595  0  0.98361  0  0  0.306861  0  0.978368  0  0  0.292795  0.296256  0  0.987165  0
H  H22  1  0.54975326  0.04726237  0.15832631  1  0  0.315268  0  0.917504  0  0  0.300639  0  0.983559  0  0  0.306905  0  0.978318  0  0  0.292817  0.2963  0  0.987119  0
H  H23  1  0.04975187  0.95273679  0.34167398  1  0  0.315251  0  0.917531  0  0  0.300619  0  0.983595  0  0  0.306884  0  0.978356  0  0  0.292798  0.29628  0  0.987153  0
H  H24  1  0.50669500  0.09474965  0.88498499  1  0  0.320796  0  0.893305  0  0  0.308644  0  0.954194  0  0  0.314945  0  0.948833  0  0  0.299647  0.304266  0  0.9579  0
H  H25  1  0.00669472  0.90525001  0.61501468  1  0  0.320772  0  0.893257  0  0  0.308616  0  0.954156  0  0  0.314917  0  0.948793  0  0  0.299623  0.304239  0  0.957862  0
H  H26  1  0.49330476  0.90524860  0.11501375  1  0  0.320797  0  0.893354  0  0  0.308639  0  0.954247  0  0  0.31494  0  0.948886  0  0  0.299655  0.304262  0  0.957951  0
H  H27  1  0.99330504  0.09475109  0.38498656  1  0  0.320831  0  0.893346  0  0  0.308677  0  0.954224  0  0  0.314979  0  0.948862  0  0  0.299679  0.304299  0  0.95793  0
H  H28  1  0.69828866  0.12035659  0.77639200  1  0  0.312444  0  0.913049  0  0  0.297541  0  0.980893  0  0  0.304522  0  0.974278  0  0  0.290786  0.292533  0  0.985695  0
H  H29  1  0.19828659  0.87964236  0.72360795  1  0  0.312415  0  0.91308  0  0  0.29751  0  0.98093  0  0  0.304492  0  0.974316  0  0  0.29077  0.292501  0  0.985736  0
H  H30  1  0.30170877  0.87964072  0.22360842  1  0  0.312466  0  0.913037  0  0  0.297567  0  0.980877  0  0  0.304549  0  0.974261  0  0  0.290791  0.292558  0  0.985683  0
H  H31  1  0.80171317  0.12035589  0.27639137  1  0  0.312433  0  0.913076  0  0  0.297567  0  0.980898  0  0  0.304537  0  0.974294  0  0  0.290791  0.292555  0  0.985709  0
H  H32  1  0.69584793  0.19414746  0.69159070  1  0  0.336051  0  0.934954  0  0  0.317449  0  1.000185  0  0  0.325727  0  0.992486  0  0  0.285706  0.311564  0  1.005667  0
H  H33  1  0.19584409  0.80585242  0.80840815  1  0  0.336086  0  0.934901  0  0  0.317493  0  1.000115  0  0  0.32577  0  0.992416  0  0  0.285723  0.311607  0  1.005599  0
H  H34  1  0.30415299  0.80585080  0.30840978  1  0  0.336093  0  0.934887  0  0  0.317495  0  1.000114  0  0  0.325773  0  0.992414  0  0  0.285714  0.311607  0  1.005604  0
H  H35  1  0.80415450  0.19414583  0.19159117  1  0  0.336092  0  0.934913  0  0  0.317498  0  1.000122  0  0  0.325775  0  0.992423  0  0  0.285716  0.311614  0  1.005602  0
H  H36  1  0.32789447  0.39981803  0.76832290  1  0  0.348237  0  0.903787  0  0  0.330142  0  0.967673  0  0  0.337684  0  0.960985  0  0  0.296136  0.324845  0  0.972276  0
H  H37  1  0.82789546  0.60018296  0.73167642  1  0  0.34825  0  0.903732  0  0  0.330156  0  0.967608  0  0  0.337695  0  0.960932  0  0  0.296149  0.324859  0  0.97221  0
H  H38  1  0.67210181  0.60018023  0.23167758  1  0  0.348223  0  0.903813  0  0  0.330122  0  0.967705  0  0  0.337666  0  0.96101  0  0  0.296132  0.324824  0  0.972308  0
H  H39  1  0.17210662  0.39981909  0.26832429  1  0  0.348222  0  0.903825  0  0  0.330122  0  0.967711  0  0  0.33766  0  0.961038  0  0  0.296107  0.324824  0  0.972314  0
H  H40  1  0.24973858  0.38907203  0.67459184  1  0  0.314997  0  0.945325  0  0  0.290743  0  1.029153  0  0  0.296858  0  1.024812  0  0  0.288873  0.286384  0  1.032299  0
H  H41  1  0.74973561  0.61093077  0.82540827  1  0  0.314947  0  0.945396  0  0  0.290694  0  1.029213  0  0  0.29681  0  1.024869  0  0  0.288858  0.286334  0  1.032357  0
H  H42  1  0.75026118  0.61092908  0.32540939  1  0  0.314904  0  0.945416  0  0  0.290658  0  1.029238  0  0  0.296773  0  1.024885  0  0  0.288846  0.286298  0  1.032383  0
H  H43  1  0.25026648  0.38907032  0.17459122  1  0  0.314958  0  0.945359  0  0  0.290703  0  1.029181  0  0  0.29682  0  1.024837  0  0  0.28884  0.286343  0  1.032326  0
C  C44  1  0.77259315  0.92761540  0.01994638  1  0  0.577685  0  3.863988  0  0  0.527045  0  4.14879  0  0  0.551377  0  4.158411  0  0  0.307282  0.510545  0  4.141968  0
C  C45  1  0.27258917  0.07238498  0.48005484  1  0  0.577588  0  3.864114  0  0  0.526961  0  4.148891  0  0  0.551294  0  4.158512  0  0  0.30724  0.510459  0  4.142082  0
C  C46  1  0.22740777  0.07238284  0.98005236  1  0  0.577662  0  3.86385  0  0  0.527009  0  4.148679  0  0  0.551355  0  4.158284  0  0  0.307261  0.510504  0  4.141864  0
C  C47  1  0.72740826  0.92761709  0.51994761  1  0  0.577733  0  3.863808  0  0  0.527024  0  4.148701  0  0  0.55136  0  4.158322  0  0  0.307291  0.510517  0  4.141892  0
C  C48  1  0.61422338  0.94866561  0.92629029  1  0  0.586623  0  3.824093  0  0  0.538497  0  4.109904  0  0  0.562691  0  4.118999  0  0  0.310418  0.522207  0  4.103286  0
C  C49  1  0.11422152  0.05133513  0.57370987  1  0  0.5867  0  3.823937  0  0  0.538494  0  4.109851  0  0  0.562689  0  4.118943  0  0  0.310415  0.522205  0  4.103235  0
C  C50  1  0.38577754  0.05133264  0.07370844  1  0  0.586435  0  3.82421  0  0  0.538294  0  4.110044  0  0  0.562487  0  4.119141  0  0  0.310303  0.522004  0  4.103423  0
C  C51  1  0.88577823  0.94866598  0.42629136  1  0  0.58648  0  3.824207  0  0  0.538317  0  4.110062  0  0  0.562511  0  4.11916  0  0  0.310351  0.522026  0  4.103442  0
C  C52  1  0.89047615  0.22675717  0.76037629  1  0  0.582793  0  3.924243  0  0  0.528877  0  4.217318  0  0  0.554719  0  4.226571  0  0  0.304046  0.511502  0  4.210515  0
C  C53  1  0.39047261  0.77324105  0.73962278  1  0  0.582897  0  3.924111  0  0  0.529004  0  4.21717  0  0  0.554847  0  4.226421  0  0  0.304089  0.511629  0  4.210368  0
C  C54  1  0.10952477  0.77324014  0.23962471  1  0  0.582901  0  3.92422  0  0  0.528968  0  4.21731  0  0  0.554811  0  4.226561  0  0  0.304047  0.511593  0  4.210506  0
C  C55  1  0.60952715  0.22675910  0.26037665  1  0  0.582822  0  3.92402  0  0  0.528921  0  4.2171  0  0  0.554763  0  4.226352  0  0  0.304051  0.511547  0  4.210296  0
C  C56  1  0.11023778  0.32319423  0.75790280  1  0  0.627887  0  3.845938  0  0  0.578821  0  4.125574  0  0  0.606202  0  4.131457  0  0  0.313289  0.560365  0  4.121076  0
C  C57  1  0.61023656  0.67681124  0.74209708  1  0  0.627764  0  3.845941  0  0  0.578699  0  4.125592  0  0  0.606079  0  4.13148  0  0  0.313228  0.560245  0  4.121091  0
C  C58  1  0.88975384  0.67680685  0.24209553  1  0  0.62791  0  3.845902  0  0  0.578868  0  4.125512  0  0  0.606247  0  4.131395  0  0  0.313284  0.560411  0  4.121015  0
C  C59  1  0.38976552  0.32319080  0.25790247  1  0  0.627725  0  3.845965  0  0  0.578683  0  4.125602  0  0  0.606063  0  4.13149  0  0  0.313209  0.560229  0  4.121099  0
S  S60  1  0.62739984  0.40597418  0.89049111  1  0  0.957261  0  4.396173  0  0  0.849457  0  4.899724  0  0  0.888904  0  4.880697  0  0  0.362414  0.821703  0  4.91175  0
S  S61  1  0.12739894  0.59402563  0.60950899  1  0  0.95729  0  4.396083  0  0  0.849496  0  4.899622  0  0  0.888947  0  4.88059  0  0  0.362471  0.821746  0  4.911647  0
S  S62  1  0.37260108  0.59402692  0.10950897  1  0  0.957237  0  4.396056  0  0  0.849435  0  4.899602  0  0  0.888885  0  4.880574  0  0  0.362439  0.821682  0  4.911625  0
S  S63  1  0.87260198  0.40597452  0.39049161  1  0  0.957262  0  4.396141  0  0  0.849463  0  4.899687  0  0  0.888911  0  4.880657  0  0  0.362437  0.821711  0  4.911708  0
S  S64  1  0.95790295  0.35375548  0.09178264  1  0  0.974328  0  4.357579  0  0  0.873597  0  4.838103  0  0  0.913721  0  4.819051  0  0  0.37648  0.845511  0  4.85026  0
S  S65  1  0.45790637  0.64624132  0.40821696  1  0  0.974293  0  4.357419  0  0  0.873575  0  4.837963  0  0  0.913694  0  4.818914  0  0  0.376444  0.845491  0  4.850119  0
S  S66  1  0.04209449  0.64624182  0.90821662  1  0  0.974257  0  4.357498  0  0  0.873541  0  4.838024  0  0  0.913665  0  4.818973  0  0  0.376423  0.845455  0  4.850182  0
S  S67  1  0.54209803  0.35375693  0.59178236  1  0  0.974319  0  4.357558  0  0  0.8736  0  4.838093  0  0  0.913721  0  4.819044  0  0  0.376466  0.845513  0  4.850254  0
N  N68  1  0.73219169  0.00937527  0.96792483  1  0  -0.624703  0  3.120706  0  0  -0.542129  0  3.405067  0  0  -0.570173  0  3.412151  0  0  -0.389816  -0.522802  0  3.399702  0
N  N69  1  0.23218971  0.99062467  0.53207571  1  0  -0.6247  0  3.120727  0  0  -0.542103  0  3.405105  0  0  -0.570149  0  3.41219  0  0  -0.389817  -0.52278  0  3.399747  0
N  N70  1  0.26780923  0.99062203  0.03207443  1  0  -0.624715  0  3.120776  0  0  -0.542147  0  3.405171  0  0  -0.570191  0  3.412241  0  0  -0.389803  -0.522819  0  3.399809  0
N  N71  1  0.76780889  0.00937645  0.46792668  1  0  -0.624728  0  3.120728  0  0  -0.542129  0  3.405122  0  0  -0.570177  0  3.412206  0  0  -0.38982  -0.522796  0  3.399757  0
N  N72  1  0.68887719  0.82164902  0.01118979  1  0  -0.433323  0  3.137788  0  0  -0.37326  0  3.427701  0  0  -0.39393  0  3.443115  0  0  -0.290682  -0.359199  0  3.417274  0
N  N73  1  0.18887571  0.17835125  0.48881037  1  0  -0.433238  0  3.137708  0  0  -0.373188  0  3.427622  0  0  -0.393858  0  3.443034  0  0  -0.290654  -0.359129  0  3.4172  0
N  N74  1  0.31112489  0.17835207  0.98880912  1  0  -0.433235  0  3.137615  0  0  -0.373156  0  3.427519  0  0  -0.393831  0  3.442929  0  0  -0.290647  -0.359092  0  3.417093  0
N  N75  1  0.81112289  0.82165175  0.51119098  1  0  -0.433266  0  3.137607  0  0  -0.37317  0  3.427534  0  0  -0.39384  0  3.442948  0  0  -0.29066  -0.359103  0  3.417107  0
N  N76  1  0.58472619  0.83591366  0.95073727  1  0  -0.40175  0  3.114972  0  0  -0.344518  0  3.403145  0  0  -0.365514  0  3.420138  0  0  -0.281864  -0.330285  0  3.391411  0
N  N77  1  0.08472587  0.16408705  0.54926352  1  0  -0.401802  0  3.114935  0  0  -0.344542  0  3.403132  0  0  -0.365537  0  3.420124  0  0  -0.28188  -0.330309  0  3.3914  0
N  N78  1  0.41527589  0.16408553  0.04926095  1  0  -0.401701  0  3.11485  0  0  -0.344452  0  3.403012  0  0  -0.365448  0  3.420008  0  0  -0.281819  -0.330219  0  3.391276  0
N  N79  1  0.91527505  0.83591311  0.45073766  1  0  -0.401723  0  3.114919  0  0  -0.344482  0  3.403097  0  0  -0.365477  0  3.420091  0  0  -0.281861  -0.33025  0  3.391364  0
N  N80  1  0.89113318  0.95034214  0.07376095  1  0  -0.725481  0  3.080804  0  0  -0.675392  0  3.321623  0  0  -0.695829  0  3.314126  0  0  -0.602449  -0.66086  0  3.326171  0
N  N81  1  0.39113177  0.04965838  0.42624070  1  0  -0.725456  0  3.080824  0  0  -0.675306  0  3.321706  0  0  -0.695743  0  3.314208  0  0  -0.60241  -0.660753  0  3.326212  0
N  N82  1  0.10886774  0.04965706  0.92623843  1  0  -0.725367  0  3.080658  0  0  -0.675327  0  3.321579  0  0  -0.695762  0  3.314065  0  0  -0.602425  -0.660794  0  3.326132  0
N  N83  1  0.60886799  0.95034367  0.57376059  1  0  -0.725429  0  3.080738  0  0  -0.67532  0  3.321553  0  0  -0.69575  0  3.314039  0  0  -0.602432  -0.66079  0  3.326112  0
N  N84  1  0.54104031  0.00415810  0.86675860  1  0  -0.697928  0  2.990786  0  0  -0.664616  0  3.215782  0  0  -0.681487  0  3.209124  0  0  -0.592417  -0.652666  0  3.219984  0
N  N85  1  0.04103897  0.99584161  0.63324160  1  0  -0.697928  0  2.990729  0  0  -0.664584  0  3.215746  0  0  -0.681455  0  3.209086  0  0  -0.592369  -0.652633  0  3.219948  0
N  N86  1  0.45896177  0.99584109  0.13323961  1  0  -0.697907  0  2.990841  0  0  -0.664583  0  3.215842  0  0  -0.681456  0  3.209184  0  0  -0.592429  -0.652634  0  3.220044  0
N  N87  1  0.95896079  0.00415855  0.36675957  1  0  -0.697949  0  2.990883  0  0  -0.664618  0  3.215898  0  0  -0.68149  0  3.209236  0  0  -0.59244  -0.652666  0  3.220102  0
N  N88  1  0.98208258  0.29009341  0.71290883  1  0  -0.640579  0  3.023451  0  0  -0.557271  0  3.295729  0  0  -0.586082  0  3.301467  0  0  -0.383223  -0.537608  0  3.291196  0
N  N89  1  0.48208097  0.70990777  0.78709203  1  0  -0.640473  0  3.023291  0  0  -0.557176  0  3.295561  0  0  -0.585987  0  3.301302  0  0  -0.383168  -0.537512  0  3.291025  0
N  N90  1  0.01791834  0.70990865  0.28709304  1  0  -0.640585  0  3.023308  0  0  -0.557253  0  3.295556  0  0  -0.586065  0  3.301293  0  0  -0.38316  -0.53759  0  3.291024  0
N  N91  1  0.51791995  0.29009237  0.21290740  1  0  -0.640409  0  3.023249  0  0  -0.557113  0  3.295516  0  0  -0.585922  0  3.301258  0  0  -0.38315  -0.537449  0  3.290978  0
N  N92  1  0.95235620  0.22472983  0.83090677  1  0  -0.468885  0  3.225654  0  0  -0.398033  0  3.513614  0  0  -0.421703  0  3.531013  0  0  -0.319635  -0.381922  0  3.501462  0
N  N93  1  0.45235653  0.77527036  0.66909234  1  0  -0.468952  0  3.225708  0  0  -0.398113  0  3.513665  0  0  -0.421782  0  3.531062  0  0  -0.319629  -0.382004  0  3.501519  0
N  N94  1  0.04764239  0.77526651  0.16909069  1  0  -0.468977  0  3.225583  0  0  -0.398131  0  3.513561  0  0  -0.421802  0  3.530957  0  0  -0.319671  -0.382018  0  3.501407  0
N  N95  1  0.54764323  0.22473074  0.33090716  1  0  -0.468895  0  3.22564  0  0  -0.398046  0  3.513591  0  0  -0.421715  0  3.530988  0  0  -0.319613  -0.38194  0  3.501447  0
N  N96  1  0.09788940  0.28560225  0.82967972  1  0  -0.462642  0  3.059721  0  0  -0.402217  0  3.342113  0  0  -0.423613  0  3.355706  0  0  -0.304978  -0.387865  0  3.332534  0
N  N97  1  0.59788864  0.71439753  0.67032099  1  0  -0.462634  0  3.059752  0  0  -0.402212  0  3.342141  0  0  -0.423607  0  3.355734  0  0  -0.305018  -0.387864  0  3.332567  0
N  N98  1  0.90210919  0.71439695  0.17032081  1  0  -0.462694  0  3.059865  0  0  -0.402291  0  3.342273  0  0  -0.423685  0  3.355864  0  0  -0.305032  -0.38794  0  3.332693  0
N  N99  1  0.40211112  0.28560357  0.32967850  1  0  -0.462694  0  3.059781  0  0  -0.402294  0  3.342171  0  0  -0.423687  0  3.35576  0  0  -0.30507  -0.387949  0  3.332601  0
N  N100  1  0.76110013  0.15938558  0.73475962  1  0  -0.722476  0  3.064897  0  0  -0.686024  0  3.299197  0  0  -0.704327  0  3.290805  0  0  -0.596903  -0.673185  0  3.304861  0
N  N101  1  0.26109892  0.84061629  0.76524100  1  0  -0.72255  0  3.064852  0  0  -0.686109  0  3.299134  0  0  -0.704411  0  3.29074  0  0  -0.59693  -0.673269  0  3.304801  0
N  N102  1  0.23889614  0.84061363  0.26524092  1  0  -0.722569  0  3.064912  0  0  -0.686108  0  3.29917  0  0  -0.70441  0  3.290776  0  0  -0.59689  -0.673269  0  3.30484  0
N  N103  1  0.73890084  0.15938196  0.23475832  1  0  -0.722528  0  3.064795  0  0  -0.686136  0  3.299033  0  0  -0.704423  0  3.290662  0  0  -0.596905  -0.673296  0  3.304699  0
N  N104  1  0.23320099  0.38710507  0.73276011  1  0  -0.71951  0  3.104546  0  0  -0.687411  0  3.347917  0  0  -0.707207  0  3.342188  0  0  -0.595057  -0.673501  0  3.351547  0
N  N105  1  0.73320066  0.61289582  0.76724107  1  0  -0.719422  0  3.104465  0  0  -0.687318  0  3.347845  0  0  -0.707116  0  3.342117  0  0  -0.595029  -0.673406  0  3.351471  0
N  N106  1  0.76679877  0.61289318  0.26723921  1  0  -0.719382  0  3.10472  0  0  -0.6873  0  3.348072  0  0  -0.707088  0  3.342345  0  0  -0.595013  -0.673388  0  3.351698  0
N  N107  1  0.26680143  0.38710812  0.23275917  1  0  -0.719398  0  3.104478  0  0  -0.68728  0  3.347814  0  0  -0.707081  0  3.342085  0  0  -0.594952  -0.673369  0  3.351439  0
O  O108  1  0.63284541  0.30974491  0.95284465  1  0  -0.757805  0  2.119523  0  0  -0.667671  0  2.431103  0  0  -0.696279  0  2.412402  0  0  -0.387151  -0.646721  0  2.442494  0
O  O109  1  0.13284737  0.69025680  0.54715556  1  0  -0.757783  0  2.119475  0  0  -0.667651  0  2.431059  0  0  -0.696261  0  2.412359  0  0  -0.387169  -0.646705  0  2.442453  0
O  O110  1  0.36715435  0.69025618  0.04715484  1  0  -0.757788  0  2.119521  0  0  -0.667661  0  2.431113  0  0  -0.696271  0  2.412413  0  0  -0.387151  -0.646713  0  2.442504  0
O  O111  1  0.86715472  0.30974431  0.45284626  1  0  -0.757806  0  2.119504  0  0  -0.66768  0  2.431094  0  0  -0.696288  0  2.412393  0  0  -0.387153  -0.646733  0  2.442486  0
O  O112  1  0.45517559  0.41195626  0.86636448  1  0  -0.738721  0  2.068836  0  0  -0.648654  0  2.353297  0  0  -0.676619  0  2.336313  0  0  -0.377514  -0.628804  0  2.364088  0
O  O113  1  0.95517360  0.58804299  0.63363456  1  0  -0.738779  0  2.068893  0  0  -0.648718  0  2.353356  0  0  -0.676681  0  2.33637  0  0  -0.377553  -0.628868  0  2.364147  0
O  O114  1  0.54482416  0.58804294  0.13363489  1  0  -0.738744  0  2.068841  0  0  -0.648675  0  2.353296  0  0  -0.67664  0  2.336316  0  0  -0.377532  -0.628826  0  2.364087  0
O  O115  1  0.04482732  0.41195622  0.36636539  1  0  -0.738753  0  2.068878  0  0  -0.64869  0  2.353334  0  0  -0.676652  0  2.336349  0  0  -0.377542  -0.628839  0  2.364122  0
O  O116  1  0.65359449  0.53959242  0.93630298  1  0  -0.765163  0  2.06212  0  0  -0.672706  0  2.366255  0  0  -0.701591  0  2.347807  0  0  -0.390053  -0.652324  0  2.378202  0
O  O117  1  0.15359355  0.46040932  0.56369719  1  0  -0.765198  0  2.062147  0  0  -0.67276  0  2.366302  0  0  -0.701647  0  2.347857  0  0  -0.390069  -0.652378  0  2.37825  0
O  O118  1  0.34640875  0.46040679  0.06369756  1  0  -0.765155  0  2.062055  0  0  -0.672704  0  2.366183  0  0  -0.701592  0  2.347746  0  0  -0.390085  -0.652321  0  2.378127  0
O  O119  1  0.84640737  0.53959178  0.43630346  1  0  -0.765165  0  2.062171  0  0  -0.672705  0  2.366293  0  0  -0.701601  0  2.347871  0  0  -0.390056  -0.652324  0  2.378239  0
O  O120  1  0.80583931  0.43323984  0.10070807  1  0  -0.747815  0  2.151143  0  0  -0.648211  0  2.45112  0  0  -0.680016  0  2.435646  0  0  -0.386086  -0.625601  0  2.460772  0
O  O121  1  0.30583913  0.56675962  0.39929131  1  0  -0.747833  0  2.151186  0  0  -0.648217  0  2.451096  0  0  -0.680015  0  2.435607  0  0  -0.386085  -0.625606  0  2.460746  0
O  O122  1  0.19416044  0.56676030  0.89929137  1  0  -0.74782  0  2.151207  0  0  -0.648211  0  2.451136  0  0  -0.680009  0  2.435646  0  0  -0.386075  -0.6256  0  2.460788  0
O  O123  1  0.69416179  0.43324148  0.60070934  1  0  -0.747875  0  2.151208  0  0  -0.648279  0  2.451181  0  0  -0.680073  0  2.43568  0  0  -0.386131  -0.625669  0  2.460834  0
O  O124  1  0.99910204  0.34886364  0.00372891  1  0  -0.737787  0  2.122641  0  0  -0.643657  0  2.426511  0  0  -0.673656  0  2.409905  0  0  -0.388266  -0.62233  0  2.437192  0
O  O125  1  0.49910035  0.65113701  0.49627087  1  0  -0.737727  0  2.122564  0  0  -0.643611  0  2.426438  0  0  -0.673607  0  2.40983  0  0  -0.388216  -0.622284  0  2.43712  0
O  O126  1  0.00089888  0.65113651  0.99627053  1  0  -0.73772  0  2.122592  0  0  -0.64359  0  2.426456  0  0  -0.673591  0  2.40985  0  0  -0.388206  -0.622262  0  2.437136  0
O  O127  1  0.50089824  0.34886409  0.50372920  1  0  -0.737719  0  2.12253  0  0  -0.643593  0  2.426399  0  0  -0.673591  0  2.409793  0  0  -0.388234  -0.622266  0  2.437081  0
O  O128  1  0.89840895  0.21853409  0.09897259  1  0  -0.74801  0  2.015854  0  0  -0.66733  0  2.276111  0  0  -0.693694  0  2.261302  0  0  -0.375605  -0.648616  0  2.285564  0
O  O129  1  0.39841851  0.78146356  0.40102250  1  0  -0.748012  0  2.015728  0  0  -0.667348  0  2.275979  0  0  -0.693712  0  2.261175  0  0  -0.375622  -0.648637  0  2.285436  0
O  O130  1  0.10158151  0.78146413  0.90102209  1  0  -0.747992  0  2.015758  0  0  -0.667322  0  2.276005  0  0  -0.693688  0  2.261201  0  0  -0.375622  -0.648607  0  2.28546  0
O  O131  1  0.60159055  0.21853656  0.59897346  1  0  -0.747991  0  2.015851  0  0  -0.667335  0  2.276121  0  0  -0.693699  0  2.261312  0  0  -0.375587  -0.648621  0  2.285576  0
