# generated using pymatgen
data_YbH14(C3O2)5
_symmetry_space_group_name_H-M   'P 1'
_cell_length_a   6.04643501
_cell_length_b   10.58402644
_cell_length_c   13.41505143
_cell_angle_alpha   112.54278997
_cell_angle_beta   96.88675310
_cell_angle_gamma   97.72803914
_symmetry_Int_Tables_number   1
_chemical_formula_structural   YbH14(C3O2)5
_chemical_formula_sum   'Yb2 H28 C30 O20'
_cell_volume   771.79595153
_cell_formula_units_Z   2
loop_
 _symmetry_equiv_pos_site_id
 _symmetry_equiv_pos_as_xyz
  1  'x, y, z'
loop_
 _atom_site_type_symbol
 _atom_site_label
 _atom_site_symmetry_multiplicity
 _atom_site_fract_x
 _atom_site_fract_y
 _atom_site_fract_z
 _atom_site_occupancy
 _atom_site_hle17_bader_spin_density
 _atom_site_hle17_ddec_charge
 _atom_site_hle17_ddec_spin_density
 _atom_site_hle17_ddec_sum_bond_order
 _atom_site_hle17_magmom
 _atom_site_hse06_10hf_bader_spin_density
 _atom_site_hse06_10hf_ddec_charge
 _atom_site_hse06_10hf_ddec_spin_density
 _atom_site_hse06_10hf_ddec_sum_bond_order
 _atom_site_hse06_10hf_magmom
 _atom_site_hse06_bader_spin_density
 _atom_site_hse06_ddec_charge
 _atom_site_hse06_ddec_spin_density
 _atom_site_hse06_ddec_sum_bond_order
 _atom_site_hse06_magmom
 _atom_site_pbe_bader_spin_density
 _atom_site_pbe_cm5_charge
 _atom_site_pbe_ddec_charge
 _atom_site_pbe_ddec_spin_density
 _atom_site_pbe_ddec_sum_bond_order
 _atom_site_pbe_magmom
Yb  Yb0  1  0.08364023  0.13192606  0.21083663  1  0  2.145145  0  1.797647  0  0  2.071964  0  2.116905  0  0  2.131357  0  2.068294  0  0  1.583007  2.036166  0  2.14501  0
Yb  Yb1  1  0.91635945  0.86807431  0.78916479  1  0  2.145048  0  1.797804  0  0  2.071906  0  2.117005  0  0  2.131273  0  2.068452  0  0  1.582984  2.036129  0  2.145092  0
H  H2  1  0.53206758  0.96195949  0.37438872  1  0  0.10369  0  0.931384  0  0  0.111205  0  0.998578  0  0  0.112368  0  0.999315  0  0  0.114045  0.110492  0  0.997974  0
H  H3  1  0.46792958  0.03803908  0.62561105  1  0  0.103721  0  0.93138  0  0  0.111203  0  0.998606  0  0  0.112367  0  0.999343  0  0  0.11404  0.110489  0  0.997997  0
H  H4  1  0.54100910  0.14141881  0.45771330  1  0  0.109744  0  0.919378  0  0  0.118363  0  0.984015  0  0  0.120602  0  0.982371  0  0  0.11964  0.116916  0  0.98511  0
H  H5  1  0.45898994  0.85858072  0.54228648  1  0  0.109748  0  0.919375  0  0  0.118367  0  0.984006  0  0  0.120606  0  0.982365  0  0  0.119644  0.11692  0  0.985104  0
H  H6  1  0.22813733  0.23250035  0.53784868  1  0  0.115986  0  0.965521  0  0  0.124079  0  1.02993  0  0  0.126969  0  1.028469  0  0  0.106209  0.122178  0  1.030647  0
H  H7  1  0.77186351  0.76750068  0.46215028  1  0  0.115976  0  0.965578  0  0  0.124083  0  1.029963  0  0  0.126972  0  1.028505  0  0  0.106214  0.122186  0  1.030683  0
H  H8  1  0.98264642  0.79973754  0.32243331  1  0  0.119427  0  0.969964  0  0  0.125381  0  1.037254  0  0  0.128273  0  1.035821  0  0  0.109067  0.123304  0  1.03843  0
H  H9  1  0.01735330  0.20026486  0.67756647  1  0  0.11942  0  0.969999  0  0  0.125344  0  1.037339  0  0  0.128236  0  1.035908  0  0  0.109017  0.123278  0  1.038477  0
H  H10  1  0.63896309  0.62092757  0.93472676  1  0  0.090507  0  0.960992  0  0  0.0952  0  1.03426  0  0  0.09596  0  1.035344  0  0  0.109536  0.094783  0  1.033372  0
H  H11  1  0.36103761  0.37907196  0.06527301  1  0  0.090482  0  0.961012  0  0  0.095178  0  1.034277  0  0  0.095939  0  1.035359  0  0  0.109531  0.094761  0  1.03339  0
H  H12  1  0.92634178  0.61777621  0.92322436  1  0  0.130052  0  0.911376  0  0  0.139511  0  0.971791  0  0  0.141914  0  0.969793  0  0  0.128356  0.137989  0  0.972962  0
H  H13  1  0.07366143  0.38222511  0.07677706  1  0  0.130028  0  0.91139  0  0  0.13948  0  0.971825  0  0  0.141882  0  0.969826  0  0  0.128348  0.137956  0  0.972994  0
H  H14  1  0.86663238  0.49713194  0.19978254  1  0  0.127437  0  0.968942  0  0  0.133992  0  1.033426  0  0  0.138942  0  1.029335  0  0  0.106207  0.130606  0  1.036312  0
H  H15  1  0.13336823  0.50286813  0.80021642  1  0  0.127454  0  0.968914  0  0  0.133999  0  1.033411  0  0  0.138949  0  1.02932  0  0  0.106203  0.13061  0  1.036303  0
H  H16  1  0.61151351  0.50272219  0.32958031  1  0  0.104208  0  0.952482  0  0  0.118194  0  1.006384  0  0  0.121224  0  1.004716  0  0  0.105363  0.116121  0  1.007446  0
H  H17  1  0.38848334  0.49727597  0.67041864  1  0  0.104222  0  0.95248  0  0  0.118203  0  1.006381  0  0  0.121233  0  1.004712  0  0  0.105362  0.116128  0  1.007447  0
H  H18  1  0.22880889  0.74852965  0.20908333  1  0  0.122414  0  0.951775  0  0  0.128928  0  1.016909  0  0  0.133563  0  1.012726  0  0  0.108617  0.125654  0  1.020019  0
H  H19  1  0.77119150  0.25146946  0.79091562  1  0  0.122409  0  0.951774  0  0  0.128922  0  1.016912  0  0  0.133558  0  1.012729  0  0  0.108616  0.125645  0  1.020024  0
H  H20  1  0.48346714  0.74300759  0.07923405  1  0  0.11054  0  0.944013  0  0  0.12577  0  0.995339  0  0  0.12927  0  0.99314  0  0  0.106023  0.123363  0  0.996782  0
H  H21  1  0.51653302  0.25699057  0.92076490  1  0  0.110487  0  0.944113  0  0  0.125748  0  0.9954  0  0  0.129227  0  0.993228  0  0  0.106008  0.123339  0  0.996846  0
H  H22  1  0.13944298  0.59459484  0.47032083  1  0  0.108336  0  0.889301  0  0  0.125532  0  0.939237  0  0  0.127148  0  0.938433  0  0  0.122599  0.124502  0  0.939675  0
H  H23  1  0.86055982  0.40540660  0.52967895  1  0  0.108368  0  0.889271  0  0  0.125536  0  0.939233  0  0  0.127152  0  0.938429  0  0  0.122585  0.124504  0  0.93967  0
H  H24  1  0.43091891  0.58582202  0.46914579  1  0  0.093943  0  0.953701  0  0  0.099856  0  1.026721  0  0  0.103307  0  1.022977  0  0  0.105471  0.097561  0  1.029207  0
H  H25  1  0.56908233  0.41417888  0.53085481  1  0  0.093974  0  0.953693  0  0  0.09986  0  1.026733  0  0  0.103312  0  1.022988  0  0  0.105474  0.097565  0  1.029219  0
H  H26  1  0.62469564  0.12088747  0.12308503  1  0  0.443365  0  0.851475  0  0  0.414322  0  0.910868  0  0  0.426791  0  0.89275  0  0  0.30231  0.406091  0  0.922897  0
H  H27  1  0.37530340  0.87911206  0.87691474  1  0  0.443389  0  0.851436  0  0  0.414345  0  0.910832  0  0  0.426816  0  0.892711  0  0  0.302319  0.406116  0  0.922858  0
H  H28  1  0.74288864  0.02997412  0.02523096  1  0  0.425366  0  0.876445  0  0  0.395159  0  0.940229  0  0  0.40687  0  0.923186  0  0  0.301685  0.387298  0  0.951772  0
H  H29  1  0.25711260  0.97002678  0.97476964  1  0  0.425373  0  0.876425  0  0  0.395164  0  0.940221  0  0  0.406877  0  0.923177  0  0  0.301671  0.387312  0  0.951757  0
C  C30  1  0.58811656  0.09848029  0.29289647  1  0  0.755749  0  3.790015  0  0  0.709426  0  4.086451  0  0  0.746278  0  4.073768  0  0  0.244783  0.685753  0  4.093859  0
C  C31  1  0.41188665  0.90152103  0.70710495  1  0  0.755698  0  3.790072  0  0  0.709313  0  4.086583  0  0  0.746193  0  4.073863  0  0  0.244727  0.685642  0  4.093986  0
C  C32  1  0.47990525  0.05797469  0.37482501  1  0  -0.070442  0  3.587016  0  0  -0.122441  0  3.839026  0  0  -0.119662  0  3.838898  0  0  -0.058113  -0.123922  0  3.839138  0
C  C33  1  0.52009568  0.94202580  0.62517476  1  0  -0.070447  0  3.5871  0  0  -0.122406  0  3.839134  0  0  -0.119636  0  3.839001  0  0  -0.058086  -0.123887  0  3.839246  0
C  C34  1  0.13099243  0.13053098  0.52250184  1  0  -0.153666  0  3.742814  0  0  -0.175282  0  3.99579  0  0  -0.17794  0  4.014329  0  0  -0.09616  -0.173049  0  3.982591  0
C  C35  1  0.86901181  0.86946951  0.47749794  1  0  -0.153744  0  3.742959  0  0  -0.175368  0  3.995972  0  0  -0.178027  0  4.01451  0  0  -0.096187  -0.173139  0  3.982786  0
C  C36  1  0.11993228  0.01719032  0.42370256  1  0  0.248389  0  3.785149  0  0  0.244882  0  4.044481  0  0  0.252614  0  4.060668  0  0  0.073564  0.239726  0  4.033717  0
C  C37  1  0.88006887  0.98281113  0.57629722  1  0  0.248475  0  3.785134  0  0  0.244938  0  4.044506  0  0  0.252675  0  4.060691  0  0  0.073564  0.239781  0  4.033748  0
C  C38  1  0.98965671  0.88701642  0.39993266  1  0  -0.13187  0  3.728142  0  0  -0.158599  0  3.985346  0  0  -0.160638  0  4.003785  0  0  -0.091117  -0.156964  0  3.972531  0
C  C39  1  0.01034412  0.11298461  0.60006630  1  0  -0.13194  0  3.728148  0  0  -0.158651  0  3.985366  0  0  -0.160692  0  4.003805  0  0  -0.091069  -0.157009  0  3.972542  0
C  C40  1  0.86760362  0.81863935  0.01750701  1  0  0.746534  0  3.777678  0  0  0.700609  0  4.075814  0  0  0.737209  0  4.063272  0  0  0.237449  0.677119  0  4.083272  0
C  C41  1  0.13239812  0.18136090  0.98249604  1  0  0.746494  0  3.777658  0  0  0.700605  0  4.075759  0  0  0.737211  0  4.063206  0  0  0.237435  0.677118  0  4.08321  0
C  C42  1  0.81466319  0.66142430  0.98108020  1  0  -0.091997  0  3.644202  0  0  -0.147491  0  3.898668  0  0  -0.145016  0  3.899915  0  0  -0.063073  -0.14881  0  3.896759  0
C  C43  1  0.18533760  0.33857469  0.01892039  1  0  -0.091897  0  3.644083  0  0  -0.147428  0  3.89857  0  0  -0.144953  0  3.89981  0  0  -0.063047  -0.148746  0  3.896662  0
C  C44  1  0.69767319  0.62159987  0.13220694  1  0  0.241554  0  3.825024  0  0  0.229126  0  4.093624  0  0  0.23843  0  4.110011  0  0  0.071593  0.222564  0  4.08258  0
C  C45  1  0.30232366  0.37839829  0.86779201  1  0  0.241565  0  3.825065  0  0  0.229172  0  4.093612  0  0  0.238477  0  4.109994  0  0  0.071619  0.222609  0  4.082569  0
C  C46  1  0.72755247  0.55309239  0.20222092  1  0  -0.15837  0  3.746226  0  0  -0.180137  0  4.003907  0  0  -0.182028  0  4.018676  0  0  -0.103001  -0.178759  0  3.994038  0
C  C47  1  0.27244769  0.44690577  0.79777802  1  0  -0.158411  0  3.746264  0  0  -0.180181  0  4.003926  0  0  -0.182072  0  4.018697  0  0  -0.103029  -0.17881  0  3.994068  0
C  C48  1  0.58272887  0.55730461  0.27634513  1  0  -0.183973  0  3.794016  0  0  -0.200497  0  4.044213  0  0  -0.203469  0  4.062954  0  0  -0.109243  -0.198238  0  4.03131  0
C  C49  1  0.41726986  0.44269450  0.72365382  1  0  -0.183979  0  3.793979  0  0  -0.200494  0  4.044159  0  0  -0.203465  0  4.062899  0  0  -0.109219  -0.198236  0  4.03126  0
C  C50  1  0.40551530  0.63075675  0.28084123  1  0  0.230097  0  3.821372  0  0  0.219912  0  4.088629  0  0  0.228292  0  4.105999  0  0  0.066016  0.213973  0  4.077019  0
C  C51  1  0.59448540  0.36924279  0.71915854  1  0  0.230186  0  3.82126  0  0  0.220001  0  4.088507  0  0  0.22838  0  4.105878  0  0  0.066033  0.214061  0  4.076893  0
C  C52  1  0.37172745  0.69600459  0.20882911  1  0  -0.147789  0  3.737455  0  0  -0.170196  0  3.998476  0  0  -0.171885  0  4.015003  0  0  -0.101241  -0.168993  0  3.987582  0
C  C53  1  0.62827128  0.30399453  0.79116984  1  0  -0.147837  0  3.737499  0  0  -0.170233  0  3.998503  0  0  -0.171921  0  4.015023  0  0  -0.101265  -0.16903  0  3.987603  0
C  C54  1  0.51650781  0.69189481  0.13464391  1  0  -0.166964  0  3.752002  0  0  -0.186762  0  4.003456  0  0  -0.189338  0  4.021517  0  0  -0.105549  -0.184732  0  3.991025  0
C  C55  1  0.48349038  0.30810293  0.86535422  1  0  -0.166929  0  3.752069  0  0  -0.186763  0  4.003509  0  0  -0.189322  0  4.021577  0  0  -0.105548  -0.184734  0  3.991079  0
C  C56  1  0.26369777  0.56344620  0.41619721  1  0  -0.065425  0  3.628215  0  0  -0.120312  0  3.889419  0  0  -0.116854  0  3.888614  0  0  -0.065252  -0.122314  0  3.889302  0
C  C57  1  0.73630370  0.43655567  0.58380340  1  0  -0.065515  0  3.62823  0  0  -0.120348  0  3.889402  0  0  -0.116889  0  3.888597  0  0  -0.065273  -0.12235  0  3.889286  0
C  C58  1  0.19392695  0.40720101  0.34629794  1  0  0.640676  0  3.918346  0  0  0.593983  0  4.232515  0  0  0.62678  0  4.227179  0  0  0.183652  0.572123  0  4.236666  0
C  C59  1  0.80606937  0.59280193  0.65370103  1  0  0.640751  0  3.918058  0  0  0.594063  0  4.232217  0  0  0.626862  0  4.226879  0  0  0.183666  0.572207  0  4.236368  0
O  O60  1  0.80162003  0.11627190  0.30369704  1  0  -0.709798  0  2.060699  0  0  -0.671238  0  2.308621  0  0  -0.701774  0  2.301753  0  0  -0.400176  -0.652142  0  2.313082  0
O  O61  1  0.19838272  0.88372751  0.69630437  1  0  -0.709798  0  2.060597  0  0  -0.671216  0  2.308529  0  0  -0.701759  0  2.301652  0  0  -0.40018  -0.652124  0  2.312991  0
O  O62  1  0.45687821  0.11195476  0.21703157  1  0  -0.717478  0  2.077716  0  0  -0.668643  0  2.313196  0  0  -0.697736  0  2.302339  0  0  -0.386669  -0.650384  0  2.320853  0
O  O63  1  0.54312246  0.88804890  0.78297068  1  0  -0.717429  0  2.077807  0  0  -0.668555  0  2.313281  0  0  -0.697656  0  2.302416  0  0  -0.386623  -0.650305  0  2.320943  0
O  O64  1  0.23662067  0.03438047  0.34364170  1  0  -0.370099  0  2.412623  0  0  -0.308883  0  2.659252  0  0  -0.325891  0  2.662387  0  0  -0.234304  -0.298564  0  2.658665  0
O  O65  1  0.76338048  0.96562097  0.65635808  1  0  -0.370084  0  2.412685  0  0  -0.308865  0  2.659294  0  0  -0.325874  0  2.662435  0  0  -0.234288  -0.298547  0  2.658704  0
O  O66  1  0.96896448  0.89746202  0.11426958  1  0  -0.703363  0  2.027399  0  0  -0.67119  0  2.28085  0  0  -0.699081  0  2.270879  0  0  -0.397746  -0.654336  0  2.287863  0
O  O67  1  0.03103309  0.10253643  0.88573182  1  0  -0.703359  0  2.027268  0  0  -0.671212  0  2.280718  0  0  -0.699103  0  2.270747  0  0  -0.397785  -0.654365  0  2.287733  0
O  O68  1  0.80194874  0.86307961  0.94423803  1  0  -0.760107  0  2.092378  0  0  -0.709776  0  2.340996  0  0  -0.739722  0  2.330323  0  0  -0.41006  -0.691014  0  2.349009  0
O  O69  1  0.19805062  0.13692034  0.05576256  1  0  -0.760088  0  2.09249  0  0  -0.709752  0  2.341085  0  0  -0.739701  0  2.330406  0  0  -0.410019  -0.690991  0  2.349098  0
O  O70  1  0.85574317  0.61410591  0.06567785  1  0  -0.248644  0  2.365972  0  0  -0.183818  0  2.60328  0  0  -0.200128  0  2.606731  0  0  -0.179574  -0.172065  0  2.600255  0
O  O71  1  0.14425730  0.38589266  0.93432192  1  0  -0.248655  0  2.36591  0  0  -0.183819  0  2.60319  0  0  -0.200129  0  2.606642  0  0  -0.179591  -0.172072  0  2.60017  0
O  O72  1  0.25780235  0.64589527  0.35402503  1  0  -0.2684  0  2.347986  0  0  -0.203938  0  2.589739  0  0  -0.21977  0  2.592971  0  0  -0.185648  -0.192372  0  2.587063  0
O  O73  1  0.74219661  0.35410480  0.64597393  1  0  -0.268439  0  2.347992  0  0  -0.203968  0  2.589711  0  0  -0.2198  0  2.592943  0  0  -0.185654  -0.192406  0  2.587032  0
O  O74  1  0.07272132  0.36230610  0.25043080  1  0  -0.677663  0  2.021784  0  0  -0.63658  0  2.262893  0  0  -0.66488  0  2.257897  0  0  -0.391436  -0.618917  0  2.267285  0
O  O75  1  0.92727978  0.63769331  0.74957061  1  0  -0.67771  0  2.02155  0  0  -0.636672  0  2.262711  0  0  -0.664973  0  2.25772  0  0  -0.391443  -0.619009  0  2.267102  0
O  O76  1  0.25711002  0.32253360  0.38530702  1  0  -0.693059  0  1.983038  0  0  -0.658221  0  2.22939  0  0  -0.685137  0  2.223289  0  0  -0.378922  -0.641091  0  2.234162  0
O  O77  1  0.74288752  0.67746898  0.61469686  1  0  -0.693027  0  1.983037  0  0  -0.658204  0  2.229405  0  0  -0.685115  0  2.223303  0  0  -0.378897  -0.64108  0  2.234183  0
O  O78  1  0.76095769  0.12125403  0.08826791  1  0  -0.894005  0  1.879253  0  0  -0.851331  0  2.052893  0  0  -0.873147  0  2.019659  0  0  -0.647888  -0.837552  0  2.075258  0
O  O79  1  0.23904341  0.87874539  0.91173350  1  0  -0.894027  0  1.879238  0  0  -0.851355  0  2.052881  0  0  -0.873171  0  2.019649  0  0  -0.647878  -0.837578  0  2.075191  0
