# generated using pymatgen
data_CdH12(C2O)6
_symmetry_space_group_name_H-M   'P 1'
_cell_length_a   5.30354231
_cell_length_b   6.51828818
_cell_length_c   19.16372423
_cell_angle_alpha   90.00007414
_cell_angle_beta   90.00041718
_cell_angle_gamma   114.01884272
_symmetry_Int_Tables_number   1
_chemical_formula_structural   CdH12(C2O)6
_chemical_formula_sum   'Cd2 H24 C24 O12'
_cell_volume   605.12633268
_cell_formula_units_Z   2
loop_
 _symmetry_equiv_pos_site_id
 _symmetry_equiv_pos_as_xyz
  1  'x, y, z'
loop_
 _atom_site_type_symbol
 _atom_site_label
 _atom_site_symmetry_multiplicity
 _atom_site_fract_x
 _atom_site_fract_y
 _atom_site_fract_z
 _atom_site_occupancy
 _atom_site_hle17_bader_spin_density
 _atom_site_hle17_ddec_charge
 _atom_site_hle17_ddec_spin_density
 _atom_site_hle17_ddec_sum_bond_order
 _atom_site_hle17_magmom
 _atom_site_hse06_10hf_bader_spin_density
 _atom_site_hse06_10hf_ddec_charge
 _atom_site_hse06_10hf_ddec_spin_density
 _atom_site_hse06_10hf_ddec_sum_bond_order
 _atom_site_hse06_10hf_magmom
 _atom_site_hse06_bader_spin_density
 _atom_site_hse06_ddec_charge
 _atom_site_hse06_ddec_spin_density
 _atom_site_hse06_ddec_sum_bond_order
 _atom_site_hse06_magmom
 _atom_site_pbe_bader_spin_density
 _atom_site_pbe_cm5_charge
 _atom_site_pbe_ddec_charge
 _atom_site_pbe_ddec_spin_density
 _atom_site_pbe_ddec_sum_bond_order
 _atom_site_pbe_magmom
Cd  Cd0  1  0.94132679  0.00059437  0.00007289  1  0  1.258343  0  1.539021  0  0  1.077311  0  1.985587  0  0  1.1359  0  1.925483  0  0  0.771906  1.035264  0  2.027079  0
Cd  Cd1  1  0.05866270  0.99939257  0.50008104  1  0  1.258358  0  1.538972  0  0  1.077338  0  1.985511  0  0  1.135934  0  1.925398  0  0  0.77191  1.035288  0  2.027009  0
H  H2  1  0.15764378  0.45824420  0.87142950  1  0  0.12107  0  0.967431  0  0  0.132624  0  1.023839  0  0  0.136323  0  1.022705  0  0  0.106818  0.130015  0  1.024779  0
H  H3  1  0.84234926  0.54174023  0.37142453  1  0  0.121063  0  0.967457  0  0  0.132581  0  1.023885  0  0  0.136266  0  1.022785  0  0  0.106779  0.129979  0  1.024801  0
H  H4  1  0.29799262  0.45924116  0.62833910  1  0  0.121296  0  0.967746  0  0  0.132525  0  1.024368  0  0  0.136216  0  1.023223  0  0  0.106608  0.129914  0  1.025313  0
H  H5  1  0.70200193  0.54075621  0.12833856  1  0  0.12138  0  0.967679  0  0  0.132584  0  1.024304  0  0  0.136275  0  1.023156  0  0  0.106645  0.129973  0  1.025247  0
H  H6  1  0.63039296  0.91771466  0.83902664  1  0  0.090343  0  0.961279  0  0  0.101265  0  1.02642  0  0  0.103856  0  1.024248  0  0  0.105009  0.099277  0  1.028263  0
H  H7  1  0.36962847  0.08227934  0.33900075  1  0  0.090208  0  0.961444  0  0  0.101188  0  1.026489  0  0  0.103781  0  1.024316  0  0  0.10494  0.099197  0  1.028334  0
H  H8  1  0.28504602  0.91851444  0.66108700  1  0  0.090093  0  0.962106  0  0  0.101378  0  1.026884  0  0  0.103974  0  1.024699  0  0  0.105057  0.099483  0  1.028517  0
H  H9  1  0.71495834  0.08151200  0.16107898  1  0  0.090095  0  0.962185  0  0  0.101296  0  1.02705  0  0  0.103886  0  1.024877  0  0  0.105061  0.099402  0  1.028681  0
H  H10  1  0.34791638  0.28029001  0.82699100  1  0  0.101669  0  0.963412  0  0  0.113008  0  1.023009  0  0  0.116362  0  1.020691  0  0  0.104111  0.110563  0  1.024776  0
H  H11  1  0.65211425  0.71970044  0.32698157  1  0  0.101705  0  0.963382  0  0  0.11304  0  1.022957  0  0  0.116395  0  1.020641  0  0  0.104101  0.110594  0  1.024724  0
H  H12  1  0.93075202  0.28084612  0.67300425  1  0  0.10161  0  0.9642  0  0  0.112826  0  1.023918  0  0  0.11619  0  1.021589  0  0  0.104109  0.110416  0  1.025607  0
H  H13  1  0.06924142  0.71915028  0.17300939  1  0  0.101615  0  0.964446  0  0  0.112792  0  1.024187  0  0  0.116155  0  1.021857  0  0  0.104059  0.110381  0  1.025874  0
H  H14  1  0.53854543  0.07839492  0.74999201  1  0  0.082588  0  0.982878  0  0  0.093728  0  1.045435  0  0  0.095611  0  1.045495  0  0  0.0992  0.092315  0  1.04566  0
H  H15  1  0.46147050  0.92161950  0.24999014  1  0  0.082558  0  0.982892  0  0  0.093703  0  1.045447  0  0  0.095587  0  1.045506  0  0  0.099169  0.092287  0  1.045672  0
H  H16  1  0.95389147  0.91157069  0.74992735  1  0  0.098974  0  0.941133  0  0  0.112678  0  1.000229  0  0  0.115199  0  0.999872  0  0  0.104245  0.11084  0  1.000627  0
H  H17  1  0.04610704  0.08842021  0.24991912  1  0  0.098737  0  0.940779  0  0  0.112502  0  0.999897  0  0  0.115022  0  0.99954  0  0  0.104192  0.110665  0  1.000294  0
H  H18  1  0.43549675  0.86264696  0.07155453  1  0  0.429351  0  0.878773  0  0  0.396333  0  0.945637  0  0  0.407538  0  0.929632  0  0  0.28746  0.388372  0  0.956984  0
H  H19  1  0.56451255  0.13738310  0.57156169  1  0  0.429529  0  0.878498  0  0  0.396495  0  0.945383  0  0  0.407701  0  0.929377  0  0  0.287589  0.388535  0  0.956729  0
H  H20  1  0.42844631  0.86332226  0.42857334  1  0  0.430485  0  0.877208  0  0  0.39744  0  0.943946  0  0  0.408639  0  0.927944  0  0  0.287784  0.3895  0  0.955272  0
H  H21  1  0.57154924  0.13668659  0.92857373  1  0  0.430481  0  0.8772  0  0  0.397382  0  0.943987  0  0  0.408585  0  0.927982  0  0  0.287776  0.389447  0  0.955304  0
H  H22  1  0.45397108  0.62472048  0.05054919  1  0  0.440478  0  0.858849  0  0  0.406996  0  0.92484  0  0  0.41932  0  0.907251  0  0  0.288297  0.398215  0  0.937342  0
H  H23  1  0.54601650  0.37529749  0.55055224  1  0  0.440387  0  0.859  0  0  0.40694  0  0.92492  0  0  0.419263  0  0.907334  0  0  0.288294  0.398164  0  0.937415  0
H  H24  1  0.17252630  0.62475288  0.44939311  1  0  0.441435  0  0.857911  0  0  0.407839  0  0.924086  0  0  0.420187  0  0.906473  0  0  0.28836  0.399041  0  0.936595  0
H  H25  1  0.82747084  0.37525798  0.94939982  1  0  0.441339  0  0.858037  0  0  0.407883  0  0.92401  0  0  0.420217  0  0.906414  0  0  0.288362  0.399099  0  0.936504  0
C  C26  1  0.15256331  0.76202935  0.91465551  1  0  0.675443  0  3.917185  0  0  0.625941  0  4.204486  0  0  0.661491  0  4.198721  0  0  0.196772  0.601974  0  4.207245  0
C  C27  1  0.84741749  0.23798095  0.41465041  1  0  0.675441  0  3.916989  0  0  0.625943  0  4.204266  0  0  0.661497  0  4.198491  0  0  0.196743  0.601974  0  4.207026  0
C  C28  1  0.60783273  0.76302293  0.58546313  1  0  0.675724  0  3.916454  0  0  0.626087  0  4.203625  0  0  0.661604  0  4.197877  0  0  0.196762  0.602125  0  4.206425  0
C  C29  1  0.39222275  0.23701575  0.08545093  1  0  0.675825  0  3.916217  0  0  0.626096  0  4.203467  0  0  0.661613  0  4.197726  0  0  0.196792  0.602135  0  4.206259  0
C  C30  1  0.27698006  0.63946620  0.87241955  1  0  -0.23986  0  3.674657  0  0  -0.251863  0  3.92874  0  0  -0.264872  0  3.94716  0  0  -0.101051  -0.243353  0  3.916311  0
C  C31  1  0.72305660  0.36051489  0.37241114  1  0  -0.239861  0  3.675082  0  0  -0.251801  0  3.929144  0  0  -0.264824  0  3.947562  0  0  -0.101005  -0.243284  0  3.916718  0
C  C32  1  0.36025546  0.64047022  0.62749437  1  0  -0.240435  0  3.675339  0  0  -0.25178  0  3.929208  0  0  -0.264757  0  3.947609  0  0  -0.100862  -0.243296  0  3.91683  0
C  C33  1  0.63969778  0.35952377  0.12749468  1  0  -0.240753  0  3.675927  0  0  -0.251992  0  3.929732  0  0  -0.264975  0  3.94813  0  0  -0.100967  -0.243505  0  3.91735  0
C  C34  1  0.51614148  0.73538324  0.83666474  1  0  -0.028004  0  3.704203  0  0  -0.055655  0  3.958433  0  0  -0.050627  0  3.976022  0  0  -0.06921  -0.058868  0  3.946612  0
C  C35  1  0.48389116  0.26459560  0.33665324  1  0  -0.027695  0  3.704416  0  0  -0.055386  0  3.958662  0  0  -0.050344  0  3.976231  0  0  -0.069034  -0.058604  0  3.946843  0
C  C36  1  0.21691233  0.73618955  0.66329471  1  0  -0.027857  0  3.70472  0  0  -0.056169  0  3.958684  0  0  -0.051127  0  3.976278  0  0  -0.069103  -0.059397  0  3.946736  0
C  C37  1  0.78306065  0.26381173  0.16328899  1  0  -0.027626  0  3.704942  0  0  -0.055946  0  3.958845  0  0  -0.05089  0  3.976421  0  0  -0.068991  -0.059181  0  3.946901  0
C  C38  1  0.63405827  0.61220449  0.79334130  1  0  0.074007  0  3.812964  0  0  0.095383  0  4.046406  0  0  0.092775  0  4.072443  0  0  -0.01218  0.097031  0  4.028772  0
C  C39  1  0.36596610  0.38777535  0.29334111  1  0  0.073944  0  3.812708  0  0  0.095225  0  4.046316  0  0  0.092615  0  4.072342  0  0  -0.012215  0.096876  0  4.028682  0
C  C40  1  0.97547191  0.61267508  0.70650829  1  0  0.073487  0  3.811459  0  0  0.095265  0  4.044627  0  0  0.092602  0  4.070737  0  0  -0.011936  0.096977  0  4.026786  0
C  C41  1  0.02448417  0.38730505  0.20650537  1  0  0.073549  0  3.811695  0  0  0.095484  0  4.044649  0  0  0.092817  0  4.070753  0  0  -0.011996  0.097197  0  4.026807  0
C  C42  1  0.52023317  0.37588527  0.79298526  1  0  -0.080782  0  3.680872  0  0  -0.104081  0  3.925708  0  0  -0.104796  0  3.945689  0  0  -0.078318  -0.103221  0  3.911957  0
C  C43  1  0.47977925  0.62410464  0.29298278  1  0  -0.080816  0  3.680554  0  0  -0.104051  0  3.925374  0  0  -0.104755  0  3.945345  0  0  -0.078289  -0.103198  0  3.911627  0
C  C44  1  0.85377515  0.37629262  0.70698611  1  0  -0.080344  0  3.680148  0  0  -0.103678  0  3.924832  0  0  -0.104368  0  3.944804  0  0  -0.078432  -0.102692  0  3.910912  0
C  C45  1  0.14618535  0.62369255  0.20698405  1  0  -0.080489  0  3.679781  0  0  -0.103852  0  3.924441  0  0  -0.104534  0  3.944403  0  0  -0.078367  -0.102868  0  3.910519  0
C  C46  1  0.62951927  0.26100015  0.74996134  1  0  -0.071644  0  3.794996  0  0  -0.08468  0  4.051255  0  0  -0.087925  0  4.07287  0  0  -0.091963  -0.08254  0  4.036521  0
C  C47  1  0.37050064  0.73901091  0.24995975  1  0  -0.071396  0  3.794283  0  0  -0.08443  0  4.050512  0  0  -0.087677  0  4.072119  0  0  -0.091807  -0.082287  0  4.035776  0
C  C48  1  0.86239065  0.72797954  0.74993766  1  0  -0.136663  0  3.645962  0  0  -0.163807  0  3.888243  0  0  -0.166954  0  3.910988  0  0  -0.076614  -0.161816  0  3.873069  0
C  C49  1  0.13761019  0.27203488  0.24993021  1  0  -0.136476  0  3.645504  0  0  -0.163733  0  3.887839  0  0  -0.166878  0  3.910594  0  0  -0.076577  -0.161743  0  3.872654  0
O  O50  1  0.24481974  0.97817690  0.91299782  1  0  -0.676758  0  2.015486  0  0  -0.599301  0  2.250664  0  0  -0.630013  0  2.239871  0  0  -0.324879  -0.577775  0  2.257317  0
O  O51  1  0.75519596  0.02180147  0.41299611  1  0  -0.676851  0  2.014676  0  0  -0.599507  0  2.24993  0  0  -0.630221  0  2.239132  0  0  -0.325044  -0.577976  0  2.256586  0
O  O52  1  0.73245713  0.97902895  0.58719521  1  0  -0.676936  0  2.015243  0  0  -0.599475  0  2.250139  0  0  -0.630085  0  2.239289  0  0  -0.324913  -0.577947  0  2.256737  0
O  O53  1  0.26751519  0.02096776  0.08718790  1  0  -0.677045  0  2.014305  0  0  -0.599544  0  2.249217  0  0  -0.630168  0  2.238382  0  0  -0.324991  -0.578007  0  2.25581  0
O  O54  1  0.94457594  0.64943772  0.95327554  1  0  -0.638602  0  1.96121  0  0  -0.564784  0  2.183195  0  0  -0.594383  0  2.173313  0  0  -0.310519  -0.54393  0  2.189072  0
O  O55  1  0.05540475  0.35053625  0.45327006  1  0  -0.638651  0  1.961049  0  0  -0.564722  0  2.182973  0  0  -0.594313  0  2.173096  0  0  -0.310431  -0.543869  0  2.188851  0
O  O56  1  0.70321498  0.65032086  0.54686371  1  0  -0.638539  0  1.960224  0  0  -0.564621  0  2.182283  0  0  -0.594306  0  2.17243  0  0  -0.310566  -0.543825  0  2.188316  0
O  O57  1  0.29679885  0.34968193  0.04685816  1  0  -0.638529  0  1.960378  0  0  -0.564574  0  2.182485  0  0  -0.59426  0  2.172644  0  0  -0.310583  -0.54378  0  2.188513  0
O  O58  1  0.56326600  0.78958824  0.05992694  1  0  -0.883657  0  1.885838  0  0  -0.813242  0  2.102975  0  0  -0.838653  0  2.065635  0  0  -0.595645  -0.795241  0  2.128931  0
O  O59  1  0.43673198  0.21043491  0.55992502  1  0  -0.883737  0  1.885787  0  0  -0.813323  0  2.102951  0  0  -0.838735  0  2.065615  0  0  -0.595754  -0.795309  0  2.128876  0
O  O60  1  0.22760270  0.78973043  0.44013926  1  0  -0.886358  0  1.883475  0  0  -0.815575  0  2.100666  0  0  -0.84102  0  2.063335  0  0  -0.596362  -0.797519  0  2.126708  0
O  O61  1  0.77240627  0.21028197  0.94014371  1  0  -0.886245  0  1.883613  0  0  -0.815525  0  2.1008  0  0  -0.840935  0  2.063446  0  0  -0.596307  -0.797481  0  2.126809  0
