# generated using pymatgen
data_TbH16C13(NO3)3
_symmetry_space_group_name_H-M   'P 1'
_cell_length_a   9.26527830
_cell_length_b   14.58823982
_cell_length_c   14.94644239
_cell_angle_alpha   89.99985960
_cell_angle_beta   90.00039679
_cell_angle_gamma   98.27795732
_symmetry_Int_Tables_number   1
_chemical_formula_structural   TbH16C13(NO3)3
_chemical_formula_sum   'Tb4 H64 C52 N12 O36'
_cell_volume   1999.17427195
_cell_formula_units_Z   4
loop_
 _symmetry_equiv_pos_site_id
 _symmetry_equiv_pos_as_xyz
  1  'x, y, z'
loop_
 _atom_site_type_symbol
 _atom_site_label
 _atom_site_symmetry_multiplicity
 _atom_site_fract_x
 _atom_site_fract_y
 _atom_site_fract_z
 _atom_site_occupancy
 _atom_site_pbe_bader_charge
 _atom_site_pbe_bader_spin_density
 _atom_site_pbe_cm5_charge
 _atom_site_pbe_ddec_charge
 _atom_site_pbe_ddec_spin_density
 _atom_site_pbe_ddec_sum_bond_order
 _atom_site_pbe_magmom
Tb  Tb0  1  0.51168762  0.53206750  0.79441630  1  2.174915  0  1.500189  2.049762  0  2.170366  0
Tb  Tb1  1  0.48831532  0.96793345  0.29441382  1  2.174921  0  1.500181  2.04978  0  2.170312  0
Tb  Tb2  1  0.48832336  0.46793418  0.20558924  1  2.174835  0  1.500129  2.04979  0  2.170309  0
Tb  Tb3  1  0.51167989  0.03206559  0.70558771  1  2.174785  0  1.500147  2.049835  0  2.170179  0
H  H4  1  0.69514350  0.37576823  0.74706982  1  0.640631  0  0.295775  0.375467  0  0.970033  0
H  H5  1  0.30486502  0.12423350  0.24706199  1  0.640701  0  0.295765  0.375437  0  0.97005  0
H  H6  1  0.30486210  0.62423349  0.25293037  1  0.640653  0  0.295764  0.375472  0  0.970029  0
H  H7  1  0.69514256  0.87576751  0.75293754  1  0.640583  0  0.295758  0.37546  0  0.970028  0
H  H8  1  0.52188362  0.34117604  0.75366102  1  0.646614  0  0.299603  0.399985  0  0.93346  0
H  H9  1  0.47812446  0.15882360  0.25365452  1  0.646324  0  0.299595  0.399929  0  0.93352  0
H  H10  1  0.47812112  0.65882222  0.24633716  1  0.646493  0  0.299606  0.399983  0  0.933451  0
H  H11  1  0.52188329  0.84117810  0.74633965  1  0.646447  0  0.299606  0.399986  0  0.933456  0
H  H12  1  0.31633255  0.68661953  0.80638377  1  0.66792  0  0.297173  0.40097  0  0.942716  0
H  H13  1  0.68367018  0.81338002  0.30638182  1  0.667933  0  0.297154  0.400962  0  0.942724  0
H  H14  1  0.68367628  0.31338217  0.19361709  1  0.667919  0  0.297156  0.400984  0  0.942704  0
H  H15  1  0.31633383  0.18661964  0.69361369  1  0.667894  0  0.2972  0.401047  0  0.942618  0
H  H16  1  0.24374150  0.59995499  0.86895177  1  0.614592  0  0.339855  0.43016  0  0.848216  0
H  H17  1  0.75626797  0.90004718  0.36894727  1  0.614271  0  0.339819  0.430146  0  0.848219  0
H  H18  1  0.75626082  0.40005093  0.13104775  1  0.614544  0  0.339829  0.43013  0  0.848258  0
H  H19  1  0.24373728  0.09995316  0.63104556  1  0.614515  0  0.339863  0.430197  0  0.848171  0
H  H20  1  0.06594284  0.66843492  0.75050507  1  0.143855  0  0.114288  0.14061  0  1.03072  0
H  H21  1  0.93405446  0.83156269  0.25051286  1  0.143824  0  0.114309  0.140673  0  1.030723  0
H  H22  1  0.93406280  0.33156265  0.24948777  1  0.143893  0  0.114334  0.140698  0  1.03073  0
H  H23  1  0.06594153  0.16843079  0.74949603  1  0.143798  0  0.114272  0.140621  0  1.030721  0
H  H24  1  0.93122202  0.00937451  0.77293242  1  0.143123  0  0.121687  0.130576  0  1.014761  0
H  H25  1  0.06878213  0.49062583  0.27293277  1  0.143078  0  0.121679  0.130549  0  1.014851  0
H  H26  1  0.06878289  0.99062444  0.22706576  1  0.143051  0  0.121659  0.130542  0  1.014858  0
H  H27  1  0.93122907  0.50937237  0.72706542  1  0.143465  0  0.121661  0.130527  0  1.014945  0
H  H28  1  0.12468555  0.00749725  0.77984336  1  0.130471  0  0.117723  0.113273  0  1.038611  0
H  H29  1  0.87531656  0.49249894  0.27984184  1  0.130777  0  0.117721  0.113283  0  1.038578  0
H  H30  1  0.87532009  0.99250032  0.22015750  1  0.130653  0  0.11771  0.113278  0  1.038618  0
H  H31  1  0.12469128  0.50749444  0.72015434  1  0.130443  0  0.117736  0.113289  0  1.038636  0
H  H32  1  0.20975664  0.93589331  0.93353726  1  0.067063  0  0.099923  0.099857  0  1.032217  0
H  H33  1  0.79024724  0.56410951  0.43353500  1  0.067138  0  0.099891  0.099873  0  1.032118  0
H  H34  1  0.79024448  0.06410777  0.06646427  1  0.067068  0  0.099911  0.099854  0  1.032155  0
H  H35  1  0.20974910  0.43588536  0.56645917  1  0.067  0  0.099877  0.099861  0  1.032305  0
H  H36  1  0.80799729  0.04775580  0.90105558  1  0.10148  0  0.106406  0.114488  0  1.025291  0
H  H37  1  0.19199915  0.45223817  0.40105520  1  0.100908  0  0.106392  0.114449  0  1.025316  0
H  H38  1  0.19200314  0.95224251  0.09894328  1  0.101457  0  0.106389  0.114454  0  1.02535  0
H  H39  1  0.80800529  0.54775454  0.59894231  1  0.101423  0  0.106424  0.114524  0  1.025346  0
H  H40  1  0.30222521  0.64383736  0.65414689  1  0.097897  0  0.126493  0.042685  0  1.023455  0
H  H41  1  0.69775188  0.85617446  0.15414624  1  0.097933  0  0.126526  0.042716  0  1.023555  0
H  H42  1  0.69777620  0.35616926  0.34585866  1  0.097664  0  0.126565  0.042783  0  1.023459  0
H  H43  1  0.30222558  0.14384001  0.84584993  1  0.097853  0  0.12655  0.042758  0  1.023366  0
H  H44  1  0.22101634  0.66942603  0.44286697  1  0.082644  0  0.098882  0.111817  0  1.038001  0
H  H45  1  0.77898548  0.83057679  0.94287661  1  0.083225  0  0.098944  0.111859  0  1.038133  0
H  H46  1  0.77897775  0.33057719  0.55713522  1  0.08305  0  0.098888  0.111868  0  1.038076  0
H  H47  1  0.22101400  0.16942638  0.05713027  1  0.082672  0  0.09891  0.111878  0  1.037946  0
H  H48  1  0.32262266  0.77807977  0.47371789  1  0.134565  0  0.109004  0.140105  0  1.007758  0
H  H49  1  0.67738108  0.72192507  0.97372399  1  0.134592  0  0.109023  0.140153  0  1.007921  0
H  H50  1  0.67738130  0.22192405  0.52628498  1  0.134625  0  0.109015  0.14015  0  1.007832  0
H  H51  1  0.32262055  0.27807808  0.02628021  1  0.134454  0  0.108991  0.140099  0  1.007854  0
H  H52  1  0.20198048  0.71501824  0.55272513  1  0.062583  0  0.107745  0.120688  0  0.994512  0
H  H53  1  0.79800952  0.78499362  0.05273846  1  0.062872  0  0.107758  0.120815  0  0.994322  0
H  H54  1  0.79802088  0.28499255  0.44727774  1  0.06311  0  0.107729  0.120663  0  0.994475  0
H  H55  1  0.20198250  0.21501864  0.94727310  1  0.062617  0  0.107729  0.120677  0  0.994502  0
H  H56  1  0.61308802  0.64519647  0.50572629  1  0.078694  0  0.109309  0.126018  0  0.992191  0
H  H57  1  0.38690283  0.85480782  0.00571360  1  0.078732  0  0.109338  0.126079  0  0.992096  0
H  H58  1  0.38690896  0.35480533  0.49427591  1  0.078746  0  0.109354  0.12609  0  0.992099  0
H  H59  1  0.61308860  0.14519334  0.99427121  1  0.078666  0  0.109304  0.126014  0  0.992176  0
H  H60  1  0.52387736  0.70094631  0.41846045  1  0.091458  0  0.11331  0.133156  0  1.006323  0
H  H61  1  0.47612385  0.79905516  0.91845480  1  0.09171  0  0.113313  0.133173  0  1.00638  0
H  H62  1  0.47612177  0.29905547  0.58154175  1  0.091437  0  0.113293  0.13314  0  1.00638  0
H  H63  1  0.52387920  0.20094937  0.08153736  1  0.091701  0  0.113277  0.133104  0  1.006421  0
H  H64  1  0.48494152  0.57853988  0.43352763  1  0.108359  0  0.110655  0.127552  0  1.000446  0
H  H65  1  0.51505451  0.92145746  0.93352054  1  0.10813  0  0.110662  0.127493  0  1.000556  0
H  H66  1  0.51505279  0.42145987  0.56647590  1  0.108244  0  0.110652  0.127509  0  1.000489  0
H  H67  1  0.48493639  0.07854162  0.06647363  1  0.108411  0  0.110644  0.127583  0  1.000468  0
C  C68  1  0.74350925  0.67159034  0.77023898  1  1.589947  0  0.19594  0.564837  0  4.247407  0
C  C69  1  0.25649059  0.82840791  0.27023448  1  1.590578  0  0.196065  0.565185  0  4.247134  0
C  C70  1  0.25649855  0.32840721  0.22976522  1  1.590526  0  0.195966  0.564862  0  4.247345  0
C  C71  1  0.74350423  0.17159391  0.72976905  1  1.589682  0  0.19594  0.564833  0  4.247479  0
C  C72  1  0.87404011  0.74338970  0.76913725  1  0.456432  0  0.091748  0.053756  0  4.01493  0
C  C73  1  0.12596007  0.75660993  0.26913168  1  0.455982  0  0.091779  0.053731  0  4.014957  0
C  C74  1  0.12596446  0.25660787  0.23086763  1  0.455966  0  0.091747  0.053886  0  4.0148  0
C  C75  1  0.87403838  0.24338909  0.73087253  1  0.455871  0  0.091797  0.05399  0  4.014787  0
C  C76  1  0.02160526  0.73216069  0.76179053  1  -0.091344  0  -0.09712  -0.231063  0  3.970927  0
C  C77  1  0.97839108  0.76783691  0.26179263  1  -0.091034  0  -0.097185  -0.231267  0  3.97124  0
C  C78  1  0.97839538  0.26783415  0.23820431  1  -0.091114  0  -0.097215  -0.231422  0  3.971433  0
C  C79  1  0.02160469  0.23216004  0.73821291  1  -0.091019  0  -0.097098  -0.231161  0  3.971046  0
C  C80  1  0.09954235  0.82075823  0.77111656  1  0.378923  0  0.088184  -0.037196  0  3.946852  0
C  C81  1  0.90046396  0.67923995  0.27111987  1  0.378501  0  0.088279  -0.036974  0  3.946996  0
C  C82  1  0.90046566  0.17923584  0.22887761  1  0.378736  0  0.088195  -0.036945  0  3.946872  0
C  C83  1  0.09954168  0.32075761  0.72888434  1  0.378629  0  0.088111  -0.037335  0  3.946756  0
C  C84  1  0.25992034  0.84976414  0.76691654  1  1.61259  0  0.229915  0.597946  0  4.226095  0
C  C85  1  0.74008179  0.65023478  0.26692123  1  1.612605  0  0.229859  0.597958  0  4.226275  0
C  C86  1  0.74007974  0.15023277  0.23307897  1  1.61265  0  0.229767  0.597705  0  4.226352  0
C  C87  1  0.25992833  0.34976343  0.73308230  1  1.612395  0  0.230003  0.598129  0  4.225908  0
C  C88  1  0.01770824  0.97799933  0.80611784  1  0.243817  0  -0.055615  -0.181247  0  3.87985  0
C  C89  1  0.98229521  0.52199883  0.30611518  1  0.243463  0  -0.055631  -0.181163  0  3.879907  0
C  C90  1  0.98229615  0.02199755  0.19388503  1  0.243714  0  -0.055642  -0.18127  0  3.879945  0
C  C91  1  0.01771258  0.47799871  0.69388100  1  0.243548  0  -0.055577  -0.181196  0  3.880121  0
C  C92  1  0.00968875  0.99035622  0.90647413  1  -0.080167  0  -0.014067  0.090298  0  3.977859  0
C  C93  1  0.99031402  0.50963902  0.40647153  1  -0.080207  0  -0.01398  0.090223  0  3.978191  0
C  C94  1  0.99031276  0.00964208  0.09352606  1  -0.080149  0  -0.014016  0.090327  0  3.977858  0
C  C95  1  0.00969206  0.49035160  0.59352732  1  -0.080055  0  -0.014104  0.090233  0  3.977989  0
C  C96  1  0.11713591  0.96354530  0.96273661  1  -0.083794  0  -0.09549  -0.138932  0  3.992998  0
C  C97  1  0.88287206  0.53645536  0.46273482  1  -0.083909  0  -0.09553  -0.138989  0  3.993046  0
C  C98  1  0.88286878  0.03645713  0.03726425  1  -0.08397  0  -0.095524  -0.138984  0  3.993069  0
C  C99  1  0.11713418  0.46353595  0.53726135  1  -0.084028  0  -0.095478  -0.138923  0  3.993026  0
C  C100  1  0.89220300  0.02706159  0.94461331  1  -0.00027  0  -0.089147  -0.131078  0  3.970437  0
C  C101  1  0.10779304  0.47292885  0.44461051  1  0.000172  0  -0.089103  -0.130939  0  3.970384  0
C  C102  1  0.10779725  0.97293602  0.05538755  1  -0.000477  0  -0.089135  -0.131052  0  3.970463  0
C  C103  1  0.89220390  0.52705977  0.55538834  1  -0.000221  0  -0.089168  -0.131151  0  3.970493  0
C  C104  1  0.57647739  0.52940945  0.00454687  1  1.596035  0  0.209614  0.493177  0  4.268971  0
C  C105  1  0.42352460  0.97059197  0.50454596  1  1.595849  0  0.209578  0.493006  0  4.268945  0
C  C106  1  0.42352312  0.47059788  0.99545532  1  1.57438  0  0.209478  0.492815  0  4.26903  0
C  C107  1  0.57647837  0.02940354  0.49545624  1  1.57475  0  0.209649  0.493181  0  4.269376  0
C  C108  1  0.39349552  0.62704634  0.61303030  1  1.370607  0  0.18408  0.323592  0  4.096041  0
C  C109  1  0.60648781  0.87296201  0.11302454  1  1.369711  0  0.183956  0.323343  0  4.09591  0
C  C110  1  0.60650594  0.37295612  0.38697659  1  1.370929  0  0.184028  0.32349  0  4.095503  0
C  C111  1  0.39349417  0.12704895  0.88696897  1  1.370468  0  0.18407  0.323557  0  4.095838  0
C  C112  1  0.27865632  0.70872798  0.49797983  1  0.221747  0  -0.132209  -0.276459  0  3.87684  0
C  C113  1  0.72134100  0.79128035  0.99798463  1  0.221043  0  -0.132238  -0.276674  0  3.877105  0
C  C114  1  0.72134531  0.29127518  0.50202504  1  0.220789  0  -0.132172  -0.27653  0  3.876959  0
C  C115  1  0.27865537  0.20872770  0.00201957  1  0.2218  0  -0.1322  -0.276522  0  3.876955  0
C  C116  1  0.51134965  0.64535179  0.46826632  1  0.204043  0  -0.129101  -0.267807  0  3.851205  0
C  C117  1  0.48864745  0.85464825  0.96825993  1  0.203853  0  -0.129159  -0.267883  0  3.851369  0
C  C118  1  0.48865022  0.35464860  0.53173655  1  0.204088  0  -0.129138  -0.267852  0  3.851235  0
C  C119  1  0.51134488  0.14535220  0.03173157  1  0.203903  0  -0.129074  -0.267838  0  3.851434  0
N  N120  1  0.86118480  0.83365877  0.78134537  1  -0.649165  0  -0.189419  -0.218524  0  3.184625  0
N  N121  1  0.13881374  0.66633808  0.28133940  1  -0.648539  0  -0.189416  -0.218491  0  3.184554  0
N  N122  1  0.13881335  0.16633469  0.21866285  1  -0.648558  0  -0.189436  -0.218633  0  3.184675  0
N  N123  1  0.86118901  0.33366090  0.71866414  1  -0.648532  0  -0.189423  -0.218669  0  3.184628  0
N  N124  1  0.99714467  0.87949364  0.78183001  1  -0.758048  0  -0.114813  0.202385  0  3.686874  0
N  N125  1  0.00285422  0.62050460  0.28182891  1  -0.758159  0  -0.114832  0.20228  0  3.687208  0
N  N126  1  0.00285706  0.12050118  0.21817152  1  -0.758391  0  -0.11472  0.202495  0  3.687272  0
N  N127  1  0.99714797  0.37949647  0.71817329  1  -0.758103  0  -0.114809  0.202498  0  3.68692  0
N  N128  1  0.39581575  0.66060366  0.53038719  1  -1.210512  0  -0.271299  0.04519  0  3.704052  0
N  N129  1  0.60417837  0.83940403  0.03038551  1  -1.210571  0  -0.271331  0.045384  0  3.704056  0
N  N130  1  0.60418713  0.33940017  0.46961635  1  -1.210544  0  -0.27132  0.045345  0  3.703876  0
N  N131  1  0.39581098  0.16060617  0.96961134  1  -1.21048  0  -0.271311  0.045269  0  3.704121  0
O  O132  1  0.75981091  0.58744930  0.75390078  1  -1.16636  0  -0.382895  -0.620544  0  2.214256  0
O  O133  1  0.24019018  0.91255035  0.25390070  1  -1.166326  0  -0.382989  -0.62071  0  2.214169  0
O  O134  1  0.24019830  0.41254962  0.24610611  1  -1.167094  0  -0.382919  -0.620577  0  2.214135  0
O  O135  1  0.75980556  0.08745078  0.74610752  1  -1.1663  0  -0.382956  -0.62062  0  2.214183  0
O  O136  1  0.61960173  0.69407806  0.79003738  1  -1.168463  0  -0.374425  -0.609577  0  2.215977  0
O  O137  1  0.38040151  0.80592429  0.29003146  1  -1.169085  0  -0.374501  -0.609759  0  2.215904  0
O  O138  1  0.38040124  0.30591744  0.20996415  1  -1.168337  0  -0.374402  -0.60955  0  2.215845  0
O  O139  1  0.61960348  0.19408369  0.70996405  1  -1.168266  0  -0.374352  -0.609545  0  2.215956  0
O  O140  1  0.34037968  0.78588003  0.76435297  1  -1.176509  0  -0.292311  -0.540975  0  2.238484  0
O  O141  1  0.65962247  0.71411474  0.26435583  1  -1.176432  0  -0.292251  -0.540978  0  2.238677  0
O  O142  1  0.65962080  0.21411411  0.23564053  1  -1.1764  0  -0.292226  -0.540866  0  2.238699  0
O  O143  1  0.34038145  0.28587590  0.73564236  1  -1.176327  0  -0.292359  -0.541075  0  2.238488  0
O  O144  1  0.30832419  0.93557049  0.76552157  1  -1.179124  0  -0.388129  -0.639939  0  2.352619  0
O  O145  1  0.69167357  0.56443264  0.26552892  1  -1.179162  0  -0.388178  -0.640008  0  2.352779  0
O  O146  1  0.69167029  0.06442995  0.23447060  1  -1.179294  0  -0.388053  -0.639847  0  2.352831  0
O  O147  1  0.30832862  0.43556842  0.73447729  1  -1.179178  0  -0.388105  -0.639961  0  2.352684  0
O  O148  1  0.63673115  0.56102128  0.93272704  1  -1.181155  0  -0.37827  -0.610927  0  2.296244  0
O  O149  1  0.36326311  0.93897330  0.43272610  1  -1.181253  0  -0.378117  -0.610818  0  2.296063  0
O  O150  1  0.36325170  0.43897579  0.06727181  1  -1.181496  0  -0.378086  -0.610767  0  2.295822  0
O  O151  1  0.63674292  0.06102149  0.56726673  1  -1.181744  0  -0.378226  -0.610967  0  2.296407  0
O  O152  1  0.60011417  0.39377542  0.76694790  1  -1.280906  0  -0.666452  -0.884107  0  2.106353  0
O  O153  1  0.39989082  0.10622423  0.26693985  1  -1.280677  0  -0.666466  -0.884045  0  2.106438  0
O  O154  1  0.39988626  0.60622288  0.23305095  1  -1.280785  0  -0.666444  -0.884093  0  2.106354  0
O  O155  1  0.60011478  0.89377750  0.73305766  1  -1.280681  0  -0.666455  -0.884114  0  2.106345  0
O  O156  1  0.62774827  0.54092722  0.08293619  1  -1.177165  0  -0.380791  -0.602138  0  2.260148  0
O  O157  1  0.37225658  0.95906919  0.58292906  1  -1.177025  0  -0.38087  -0.602124  0  2.260232  0
O  O158  1  0.37224944  0.45907319  0.91707604  1  -1.177022  0  -0.380812  -0.601993  0  2.260318  0
O  O159  1  0.62775173  0.04093043  0.41707715  1  -1.177052  0  -0.380868  -0.602139  0  2.260182  0
O  O160  1  0.31766536  0.61955551  0.82429446  1  -1.264981  0  -0.63829  -0.867999  0  2.083573  0
O  O161  1  0.68233790  0.88044540  0.32429169  1  -1.264655  0  -0.63824  -0.867986  0  2.083546  0
O  O162  1  0.68233967  0.38044830  0.17570774  1  -1.264923  0  -0.638274  -0.868039  0  2.08362  0
O  O163  1  0.31766576  0.11955288  0.67570181  1  -1.264896  0  -0.638326  -0.868134  0  2.083504  0
O  O164  1  0.48704000  0.58085835  0.64405265  1  -1.181828  0  -0.377641  -0.569796  0  2.365496  0
O  O165  1  0.51293290  0.91915005  0.14404437  1  -1.181038  0  -0.377533  -0.569685  0  2.365156  0
O  O166  1  0.51294695  0.41914216  0.35594821  1  -1.181826  0  -0.377639  -0.569878  0  2.364935  0
O  O167  1  0.48703995  0.08085891  0.85594712  1  -1.181704  0  -0.377669  -0.569842  0  2.36542  0
