# generated using pymatgen
data_MgH2(C2O)3
_symmetry_space_group_name_H-M   'P 1'
_cell_length_a   6.86901288
_cell_length_b   19.42787901
_cell_length_c   19.43241205
_cell_angle_alpha   118.63296271
_cell_angle_beta   96.77162306
_cell_angle_gamma   96.75992371
_symmetry_Int_Tables_number   1
_chemical_formula_structural   MgH2(C2O)3
_chemical_formula_sum   'Mg6 H12 C36 O18'
_cell_volume   2214.63629877
_cell_formula_units_Z   6
loop_
 _symmetry_equiv_pos_site_id
 _symmetry_equiv_pos_as_xyz
  1  'x, y, z'
loop_
 _atom_site_type_symbol
 _atom_site_label
 _atom_site_symmetry_multiplicity
 _atom_site_fract_x
 _atom_site_fract_y
 _atom_site_fract_z
 _atom_site_occupancy
 _atom_site_pbe_bader_charge
 _atom_site_pbe_bader_spin_density
 _atom_site_pbe_cm5_charge
 _atom_site_pbe_ddec_charge
 _atom_site_pbe_ddec_spin_density
 _atom_site_pbe_ddec_sum_bond_order
 _atom_site_pbe_magmom
Mg  Mg0  1  0.90696381  0.39620831  0.68678419  1  1.685104  0  0.909375  1.415801  0  1.316556  0
Mg  Mg1  1  0.51083975  0.29066933  0.60385945  1  1.68577  0  0.909221  1.415929  0  1.316631  0
Mg  Mg2  1  0.22014926  0.31322477  0.70937907  1  1.685728  0  0.909214  1.416995  0  1.315111  0
Mg  Mg3  1  0.20061351  0.71173837  0.31679795  1  1.684755  0  0.90906  1.414628  0  1.319028  0
Mg  Mg4  1  0.48887185  0.60503124  0.28821015  1  1.683549  0  0.908873  1.413523  0  1.320897  0
Mg  Mg5  1  0.88376508  0.68309955  0.39488918  1  1.68476  0  0.90895  1.414141  0  1.320526  0
H  H6  1  0.30121041  0.47721239  0.92472885  1  0.060928  0  0.102956  0.12751  0  1.002447  0
H  H7  1  0.82411228  0.44756340  0.52280776  1  0.078019  0  0.102893  0.126549  0  1.002338  0
H  H8  1  0.37668250  0.07515816  0.55249250  1  0.062929  0  0.10298  0.12748  0  1.002113  0
H  H9  1  0.64716002  0.47842764  0.06973341  1  0.071956  0  0.109063  0.112422  0  1.006941  0
H  H10  1  0.16869038  0.59129251  0.52147782  1  0.10813  0  0.109474  0.113194  0  1.006798  0
H  H11  1  0.57744193  0.93025937  0.40884472  1  0.091244  0  0.109088  0.11279  0  1.006919  0
H  H12  1  0.37065782  0.55700097  0.07919550  1  0.06482  0  0.103085  0.127637  0  1.003975  0
H  H13  1  0.81376708  0.52228731  0.44301153  1  0.067905  0  0.10319  0.127387  0  1.003189  0
H  H14  1  0.29147566  0.92069938  0.47783711  1  0.066833  0  0.103275  0.127495  0  1.00408  0
H  H15  1  0.58228994  0.40246016  0.92463612  1  0.092695  0  0.109111  0.111841  0  1.00902  0
H  H16  1  0.17978166  0.52218011  0.59740644  1  0.091465  0  0.109267  0.112598  0  1.009001  0
H  H17  1  0.65785919  0.07538369  0.47788940  1  0.086598  0  0.108784  0.111825  0  1.008882  0
C  C18  1  0.00997156  0.41597140  0.85248245  1  0.593068  0  0.091489  0.368407  0  4.099114  0
C  C19  1  0.59412093  0.43659765  0.58406120  1  0.583209  0  0.090983  0.367252  0  4.100371  0
C  C20  1  0.15779119  0.14750696  0.56348538  1  0.602079  0  0.091418  0.368478  0  4.098401  0
C  C21  1  0.14449357  0.46098372  0.92582992  1  -0.019782  0  -0.117838  -0.296485  0  3.920439  0
C  C22  1  0.68367488  0.46496564  0.53908138  1  -0.019765  0  -0.117831  -0.294949  0  3.92018  0
C  C23  1  0.21886461  0.07411307  0.53516147  1  -0.038987  0  -0.117326  -0.295508  0  3.920206  0
C  C24  1  0.08284357  0.48854899  0.00030546  1  -0.073276  0  -0.000276  0.137456  0  4.039746  0
C  C25  1  0.59448273  0.51188416  0.51151047  1  -0.006573  0  -0.000336  0.137252  0  4.039987  0
C  C26  1  0.08263124  0.99963193  0.48830016  1  0.009553  0  -9.3e-05  0.136933  0  4.041188  0
C  C27  1  0.87436697  0.46632623  0.99904969  1  0.01627  0  -0.024945  0.028416  0  4.071377  0
C  C28  1  0.40817765  0.53281264  0.53368734  1  -0.034325  0  -0.025607  0.028928  0  4.072168  0
C  C29  1  0.87538076  0.00091306  0.46739318  1  0.018153  0  -0.025104  0.029379  0  4.072647  0
C  C30  1  0.80549435  0.49509188  0.07109544  1  0.035427  0  -0.070081  -0.087755  0  3.97298  0
C  C31  1  0.31046316  0.57606835  0.50489924  1  -0.032568  0  -0.070584  -0.089304  0  3.97414  0
C  C32  1  0.73440101  0.92887870  0.42411187  1  -0.095974  0  -0.070587  -0.089097  0  3.974054  0
C  C33  1  0.93103334  0.54585043  0.14456376  1  -0.067335  0  -0.043093  -0.207113  0  3.981734  0
C  C34  1  0.38526875  0.59879573  0.45416051  1  -0.010298  0  -0.042476  -0.206253  0  3.978891  0
C  C35  1  0.78647245  0.85536983  0.40125876  1  -0.029979  0  -0.042769  -0.207339  0  3.979609  0
C  C36  1  0.14298686  0.56878418  0.14780647  1  0.56307  0  0.092216  0.368827  0  4.093711  0
C  C37  1  0.57423611  0.57906252  0.43121338  1  0.589809  0  0.091655  0.367738  0  4.095986  0
C  C38  1  0.99519842  0.85210464  0.42094463  1  0.586877  0  0.092069  0.368492  0  4.094304  0
C  C39  1  0.21188622  0.53871059  0.07592741  1  0.03872  0  -0.117889  -0.296839  0  3.92366  0
C  C40  1  0.67322361  0.53727134  0.46128922  1  -0.015111  0  -0.117274  -0.295585  0  3.922639  0
C  C41  1  0.13595825  0.92397978  0.46282630  1  0.008  0  -0.11809  -0.296064  0  3.923948  0
C  C42  1  0.83562836  0.57461394  0.21472222  1  1.515511  0  0.23752  0.677993  0  4.128723  0
C  C43  1  0.26100792  0.64013616  0.42534102  1  1.503381  0  0.238499  0.679849  0  4.124838  0
C  C44  1  0.62089277  0.78520710  0.35985743  1  1.517404  0  0.238299  0.681046  0  4.125261  0
C  C45  1  0.74033508  0.41900832  0.92557781  1  -0.054555  0  -0.070639  -0.088547  0  3.975477  0
C  C46  1  0.32129779  0.50657169  0.58091347  1  -0.067878  0  -0.070494  -0.089209  0  3.974799  0
C  C47  1  0.81492922  0.07440881  0.49353463  1  -0.085089  0  -0.070276  -0.0883  0  3.975059  0
C  C48  1  0.80028634  0.39439667  0.85321976  1  -0.012055  0  -0.042151  -0.206446  0  3.984445  0
C  C49  1  0.40586805  0.45884241  0.60555639  1  -0.000949  0  -0.042665  -0.207434  0  3.982065  0
C  C50  1  0.94727508  0.14677347  0.54121836  1  0.012765  0  -0.042519  -0.208464  0  3.982418  0
C  C51  1  0.63973209  0.35147083  0.78143233  1  1.51224  0  0.237917  0.67987  0  4.127489  0
C  C52  1  0.28820105  0.43001253  0.64852117  1  1.501033  0  0.238437  0.681248  0  4.125556  0
C  C53  1  0.85832489  0.21855735  0.57002370  1  1.531101  0  0.237626  0.681289  0  4.124893  0
O  O54  1  0.46326587  0.32846216  0.78636226  1  -1.243704  0  -0.362761  -0.649899  0  2.152527  0
O  O55  1  0.13471204  0.45796645  0.67147844  1  -1.243418  0  -0.362865  -0.650007  0  2.153112  0
O  O56  1  0.67690200  0.21358753  0.54210752  1  -1.248089  0  -0.362543  -0.649854  0  2.153098  0
O  O57  1  0.68104146  0.34072162  0.71416531  1  -1.291585  0  -0.406246  -0.767236  0  2.429954  0
O  O58  1  0.34036789  0.37356160  0.65937851  1  -1.294595  0  -0.405985  -0.767904  0  2.4301  0
O  O59  1  0.96691849  0.28586865  0.62648524  1  -1.304046  0  -0.40605  -0.768092  0  2.429326  0
O  O60  1  0.07228533  0.39460363  0.78324164  1  -1.311916  0  -0.438844  -0.778469  0  2.290263  0
O  O61  1  0.67774051  0.38869139  0.60541276  1  -1.313608  0  -0.438381  -0.777409  0  2.290884  0
O  O62  1  0.28929477  0.21677658  0.61132765  1  -1.321246  0  -0.438734  -0.778329  0  2.28994  0
O  O63  1  0.65237481  0.54702241  0.20762350  1  -1.245517  0  -0.360111  -0.64768  0  2.155179  0
O  O64  1  0.10527043  0.66057700  0.45291729  1  -1.240465  0  -0.360705  -0.648791  0  2.154821  0
O  O65  1  0.44472351  0.79234768  0.33941014  1  -1.240857  0  -0.360601  -0.649113  0  2.153808  0
O  O66  1  0.94111071  0.63000534  0.28326552  1  -1.302116  0  -0.405475  -0.766976  0  2.428015  0
O  O67  1  0.31093265  0.65318777  0.36987400  1  -1.29865  0  -0.406052  -0.767992  0  2.427208  0
O  O68  1  0.65780433  0.71664984  0.34672064  1  -1.294482  0  -0.405507  -0.768422  0  2.428557  0
O  O69  1  0.27015809  0.61837929  0.21784387  1  -1.314409  0  -0.441175  -0.776917  0  2.291624  0
O  O70  1  0.65172782  0.59946145  0.38158040  1  -1.311058  0  -0.441283  -0.777165  0  2.293315  0
O  O71  1  0.05225780  0.78204312  0.40048086  1  -1.306597  0  -0.441729  -0.777655  0  2.29372  0
