# generated using pymatgen
data_NdP2H17C16O11
_symmetry_space_group_name_H-M   'P 1'
_cell_length_a   5.63664956
_cell_length_b   9.45998816
_cell_length_c   18.31585331
_cell_angle_alpha   105.21222593
_cell_angle_beta   91.92628224
_cell_angle_gamma   96.05104664
_symmetry_Int_Tables_number   1
_chemical_formula_structural   NdP2H17C16O11
_chemical_formula_sum   'Nd2 P4 H34 C32 O22'
_cell_volume   935.26488806
_cell_formula_units_Z   2
loop_
 _symmetry_equiv_pos_site_id
 _symmetry_equiv_pos_as_xyz
  1  'x, y, z'
loop_
 _atom_site_type_symbol
 _atom_site_label
 _atom_site_symmetry_multiplicity
 _atom_site_fract_x
 _atom_site_fract_y
 _atom_site_fract_z
 _atom_site_occupancy
 _atom_site_hle17_bader_spin_density
 _atom_site_hle17_ddec_charge
 _atom_site_hle17_ddec_spin_density
 _atom_site_hle17_ddec_sum_bond_order
 _atom_site_hle17_magmom
 _atom_site_hse06_10hf_bader_spin_density
 _atom_site_hse06_10hf_ddec_charge
 _atom_site_hse06_10hf_ddec_spin_density
 _atom_site_hse06_10hf_ddec_sum_bond_order
 _atom_site_hse06_10hf_magmom
 _atom_site_hse06_bader_spin_density
 _atom_site_hse06_ddec_charge
 _atom_site_hse06_ddec_spin_density
 _atom_site_hse06_ddec_sum_bond_order
 _atom_site_hse06_magmom
 _atom_site_pbe_bader_spin_density
 _atom_site_pbe_cm5_charge
 _atom_site_pbe_ddec_charge
 _atom_site_pbe_ddec_spin_density
 _atom_site_pbe_ddec_sum_bond_order
 _atom_site_pbe_magmom
Nd  Nd0  1  0.12294401  0.80334630  0.00284432  1  0  2.405203  0  1.64226  0  0  2.268221  0  2.081797  0  0  2.342779  0  1.966436  0  0  1.571585  2.242282  0  2.113842  0
Nd  Nd1  1  0.87704301  0.19664806  0.99715328  1  0  2.4052  0  1.642195  0  0  2.268203  0  2.08175  0  0  2.342776  0  1.966363  0  0  1.571608  2.24226  0  2.11379  0
P  P2  1  0.38410210  0.10166321  0.10880532  1  0  1.551551  0  4.83823  0  0  1.397869  0  5.347952  0  0  1.445961  0  5.314829  0  0  0.329665  1.363929  0  5.375966  0
P  P3  1  0.61590135  0.89833324  0.89119221  1  0  1.551362  0  4.838491  0  0  1.397676  0  5.348214  0  0  1.445762  0  5.315114  0  0  0.329563  1.363736  0  5.37623  0
P  P4  1  0.26026699  0.53341440  0.10934151  1  0  1.585142  0  4.720378  0  0  1.438543  0  5.216432  0  0  1.487555  0  5.178336  0  0  0.386737  1.405192  0  5.243381  0
P  P5  1  0.73973688  0.46658427  0.89065851  1  0  1.585073  0  4.720473  0  0  1.438462  0  5.216571  0  0  1.487447  0  5.178551  0  0  0.386723  1.405115  0  5.243519  0
H  H6  1  0.59675989  0.14553120  0.32029351  1  0  0.094618  0  0.989831  0  0  0.10286  0  1.05781  0  0  0.105881  0  1.056802  0  0  0.098119  0.100887  0  1.0584  0
H  H7  1  0.40323152  0.85446758  0.67970909  1  0  0.094547  0  0.989919  0  0  0.102794  0  1.057904  0  0  0.10581  0  1.056895  0  0  0.098129  0.100821  0  1.058491  0
H  H8  1  0.47829535  0.00491548  0.41156327  1  0  0.117797  0  0.9453  0  0  0.126531  0  1.006241  0  0  0.130396  0  1.002964  0  0  0.111549  0.123928  0  1.008358  0
H  H9  1  0.52170786  0.99508874  0.58844021  1  0  0.117846  0  0.945206  0  0  0.126572  0  1.006153  0  0  0.130437  0  1.002877  0  0  0.111547  0.123967  0  1.008276  0
H  H10  1  0.77547041  0.88548016  0.29936654  1  0  0.090878  0  0.954985  0  0  0.1014  0  1.018385  0  0  0.104277  0  1.016526  0  0  0.103946  0.099425  0  1.019833  0
H  H11  1  0.22452346  0.11452192  0.70063708  1  0  0.090921  0  0.954982  0  0  0.101396  0  1.018431  0  0  0.104284  0  1.016546  0  0  0.103927  0.099422  0  1.019881  0
H  H12  1  0.89140341  0.02902629  0.20750987  1  0  0.101621  0  0.943809  0  0  0.115493  0  0.998759  0  0  0.11878  0  0.997548  0  0  0.10615  0.11337  0  0.99945  0
H  H13  1  0.10859558  0.97097464  0.79249203  1  0  0.101648  0  0.943773  0  0  0.115533  0  0.998698  0  0  0.118818  0  0.997493  0  0  0.106158  0.113407  0  0.999392  0
H  H14  1  0.49791709  0.26188483  0.23000646  1  0  0.137547  0  0.948825  0  0  0.152081  0  1.005237  0  0  0.153975  0  1.005508  0  0  0.111156  0.150848  0  1.00505  0
H  H15  1  0.50209148  0.73811934  0.76999544  1  0  0.137577  0  0.948776  0  0  0.152074  0  1.005248  0  0  0.153967  0  1.00552  0  0  0.111158  0.150839  0  1.00506  0
H  H16  1  0.19740324  0.26781148  0.20172924  1  0  0.151268  0  0.950073  0  0  0.164016  0  1.007648  0  0  0.166004  0  1.008772  0  0  0.116332  0.162346  0  1.007575  0
H  H17  1  0.80261679  0.73218818  0.79827220  1  0  0.151368  0  0.950157  0  0  0.164116  0  1.00771  0  0  0.166104  0  1.008835  0  0  0.116356  0.162443  0  1.007639  0
H  H18  1  0.52702181  0.65184019  0.31585842  1  0  0.103614  0  0.961104  0  0  0.111712  0  1.027404  0  0  0.115215  0  1.025849  0  0  0.100899  0.109351  0  1.028633  0
H  H19  1  0.47298359  0.34816624  0.68414756  1  0  0.103614  0  0.96116  0  0  0.111749  0  1.0274  0  0  0.11525  0  1.025848  0  0  0.100931  0.109387  0  1.028631  0
H  H20  1  0.47000865  0.51872181  0.41507144  1  0  0.11329  0  0.956237  0  0  0.12156  0  1.019063  0  0  0.125185  0  1.016016  0  0  0.109898  0.119111  0  1.021114  0
H  H21  1  0.52996639  0.48127487  0.58492850  1  0  0.113334  0  0.955991  0  0  0.121547  0  1.018904  0  0  0.125175  0  1.015853  0  0  0.109852  0.119097  0  1.020953  0
H  H22  1  0.74952668  0.36020663  0.32598765  1  0  0.087279  0  0.986269  0  0  0.095938  0  1.054553  0  0  0.098825  0  1.052483  0  0  0.102076  0.093896  0  1.05616  0
H  H23  1  0.25046477  0.63978327  0.67400722  1  0  0.087203  0  0.986418  0  0  0.09591  0  1.054672  0  0  0.098797  0  1.052603  0  0  0.102073  0.093867  0  1.05628  0
H  H24  1  0.80561382  0.48904517  0.22390806  1  0  0.102452  0  0.963351  0  0  0.112737  0  1.02548  0  0  0.115897  0  1.024169  0  0  0.101728  0.110569  0  1.026181  0
H  H25  1  0.19439077  0.51094794  0.77608577  1  0  0.102479  0  0.96336  0  0  0.112756  0  1.025496  0  0  0.115918  0  1.024183  0  0  0.101741  0.110587  0  1.026196  0
H  H26  1  0.34781139  0.74473033  0.21469235  1  0  0.148696  0  0.925074  0  0  0.164126  0  0.976819  0  0  0.166351  0  0.977187  0  0  0.115088  0.162305  0  0.977137  0
H  H27  1  0.65218667  0.25526618  0.78530840  1  0  0.148656  0  0.924965  0  0  0.164124  0  0.976693  0  0  0.166349  0  0.977061  0  0  0.115102  0.162306  0  0.977013  0
H  H28  1  0.03836567  0.70084196  0.18952935  1  0  0.14372  0  0.955261  0  0  0.156216  0  1.014912  0  0  0.158617  0  1.014748  0  0  0.114566  0.15436  0  1.015654  0
H  H29  1  0.96164156  0.29915556  0.81046837  1  0  0.143693  0  0.955212  0  0  0.156205  0  1.014898  0  0  0.158605  0  1.014735  0  0  0.114549  0.154352  0  1.01564  0
H  H30  1  0.17084325  0.81343099  0.51149892  1  0  0.394478  0  0.908553  0  0  0.362754  0  0.986824  0  0  0.375803  0  0.969689  0  0  0.30301  0.353563  0  0.996312  0
H  H31  1  0.82914988  0.18657549  0.48850091  1  0  0.394619  0  0.908376  0  0  0.362903  0  0.986617  0  0  0.37596  0  0.96948  0  0  0.303019  0.35371  0  0.996108  0
H  H32  1  0.54294486  0.38779138  0.10709276  1  0  0.435635  0  0.865425  0  0  0.403457  0  0.932081  0  0  0.414266  0  0.916584  0  0  0.318237  0.395842  0  0.943165  0
H  H33  1  0.45707587  0.61221159  0.89290913  1  0  0.435641  0  0.865461  0  0  0.403488  0  0.93203  0  0  0.41429  0  0.916548  0  0  0.318235  0.395875  0  0.943112  0
H  H34  1  0.19742007  0.30071389  0.52307464  1  0  0.395523  0  0.888315  0  0  0.36375  0  0.967485  0  0  0.377023  0  0.953591  0  0  0.304028  0.354399  0  0.977266  0
H  H35  1  0.80256910  0.69929039  0.47692213  1  0  0.395499  0  0.888279  0  0  0.363671  0  0.967578  0  0  0.376945  0  0.953681  0  0  0.303969  0.354318  0  0.977364  0
H  H36  1  0.71428013  0.67085208  0.08447136  1  0  0.454546  0  0.820636  0  0  0.428463  0  0.876677  0  0  0.437791  0  0.862963  0  0  0.323115  0.421915  0  0.886422  0
H  H37  1  0.28572597  0.32914879  0.91552952  1  0  0.454515  0  0.820636  0  0  0.428445  0  0.876687  0  0  0.437771  0  0.862975  0  0  0.323097  0.421898  0  0.88643  0
H  H38  1  0.66797875  0.83729251  0.09253834  1  0  0.465789  0  0.82594  0  0  0.43366  0  0.890444  0  0  0.444436  0  0.874892  0  0  0.30586  0.425818  0  0.901942  0
H  H39  1  0.33203469  0.16270940  0.90746168  1  0  0.465782  0  0.825966  0  0  0.433654  0  0.890467  0  0  0.444431  0  0.874915  0  0  0.305861  0.425813  0  0.901965  0
C  C40  1  0.25326221  0.09754083  0.25714835  1  0  0.167987  0  3.753763  0  0  0.185293  0  3.987012  0  0  0.188932  0  4.011816  0  0  0.002587  0.183008  0  3.971538  0
C  C41  1  0.74673167  0.90246125  0.74285472  1  0  0.16808  0  3.753615  0  0  0.185384  0  3.98688  0  0  0.189025  0  4.011682  0  0  0.002621  0.183098  0  3.971407  0
C  C42  1  0.41662236  0.08790145  0.31450047  1  0  -0.13424  0  3.722253  0  0  -0.155655  0  3.97486  0  0  -0.161413  0  3.996346  0  0  -0.094334  -0.151621  0  3.96023  0
C  C43  1  0.58336509  0.91209514  0.68549962  1  0  -0.134196  0  3.722165  0  0  -0.155625  0  3.974778  0  0  -0.161377  0  3.996261  0  0  -0.094306  -0.151589  0  3.960145  0
C  C44  1  0.35115271  0.00955163  0.36643709  1  0  -0.042379  0  3.703424  0  0  -0.070326  0  3.955463  0  0  -0.067419  0  3.973309  0  0  -0.077751  -0.071679  0  3.943278  0
C  C45  1  0.64884318  0.99045154  0.63356616  1  0  -0.042453  0  3.703255  0  0  -0.070377  0  3.955249  0  0  -0.067471  0  3.973094  0  0  -0.077804  -0.07173  0  3.943065  0
C  C46  1  0.11906719  0.93656448  0.36138614  1  0  -0.094158  0  3.780704  0  0  -0.074051  0  4.020016  0  0  -0.084592  0  4.044692  0  0  -0.022913  -0.067196  0  4.005623  0
C  C47  1  0.88093762  0.06343859  0.63861393  1  0  -0.094112  0  3.780577  0  0  -0.073966  0  4.01984  0  0  -0.084507  0  4.044521  0  0  -0.022852  -0.06711  0  4.005448  0
C  C48  1  0.95568075  0.94241006  0.30308141  1  0  -0.042131  0  3.728641  0  0  -0.067811  0  3.981303  0  0  -0.065222  0  4.000451  0  0  -0.076305  -0.069765  0  3.969429  0
C  C49  1  0.04430673  0.05759539  0.69692259  1  0  -0.042171  0  3.728654  0  0  -0.06782  0  3.9813  0  0  -0.065228  0  4.000452  0  0  -0.076322  -0.069776  0  3.969427  0
C  C50  1  0.02165300  0.02283216  0.25168155  1  0  -0.138152  0  3.702471  0  0  -0.157834  0  3.955302  0  0  -0.163311  0  3.975938  0  0  -0.089772  -0.154398  0  3.942363  0
C  C51  1  0.97833580  0.97717107  0.74832162  1  0  -0.138222  0  3.702431  0  0  -0.157902  0  3.95524  0  0  -0.163382  0  3.975879  0  0  -0.089792  -0.154465  0  3.942306  0
C  C52  1  0.33032928  0.19266047  0.20620154  1  0  -0.488282  0  3.66979  0  0  -0.504864  0  3.89335  0  0  -0.514563  0  3.90072  0  0  -0.158778  -0.498028  0  3.888569  0
C  C53  1  0.66967918  0.80733486  0.79379918  1  0  -0.488362  0  3.67005  0  0  -0.504911  0  3.893607  0  0  -0.514611  0  3.900978  0  0  -0.158787  -0.498071  0  3.888816  0
C  C54  1  0.05137083  0.85680502  0.41861295  1  0  0.657758  0  3.816035  0  0  0.602663  0  4.120085  0  0  0.636825  0  4.112132  0  0  0.235234  0.578571  0  4.126948  0
C  C55  1  0.94862890  0.14319920  0.58138721  1  0  0.657709  0  3.815931  0  0  0.602552  0  4.120078  0  0  0.636711  0  4.112132  0  0  0.235196  0.57846  0  4.126941  0
C  C56  1  0.17147279  0.57683022  0.26184919  1  0  0.162422  0  3.759374  0  0  0.178526  0  3.993409  0  0  0.181964  0  4.017772  0  0  0.000562  0.175691  0  3.97942  0
C  C57  1  0.82853287  0.42316843  0.73814976  1  0  0.162606  0  3.75924  0  0  0.178663  0  3.99336  0  0  0.182103  0  4.017719  0  0  0.000619  0.175833  0  3.97937  0
C  C58  1  0.35720137  0.58523271  0.31623781  1  0  -0.128897  0  3.694111  0  0  -0.148838  0  3.947318  0  0  -0.154555  0  3.968621  0  0  -0.090131  -0.144768  0  3.934195  0
C  C59  1  0.64280766  0.41476478  0.68375829  1  0  -0.129092  0  3.694329  0  0  -0.149033  0  3.947519  0  0  -0.154752  0  3.968824  0  0  -0.090238  -0.14496  0  3.934388  0
C  C60  1  0.32640152  0.51148467  0.37255636  1  0  -0.038272  0  3.68979  0  0  -0.06474  0  3.940353  0  0  -0.061904  0  3.958843  0  0  -0.076884  -0.066909  0  3.928078  0
C  C61  1  0.67359457  0.48851074  0.62744258  1  0  -0.038224  0  3.689767  0  0  -0.064645  0  3.940335  0  0  -0.061805  0  3.958817  0  0  -0.076865  -0.066824  0  3.928084  0
C  C62  1  0.10776661  0.42827926  0.37518380  1  0  -0.094837  0  3.79385  0  0  -0.074494  0  4.032927  0  0  -0.085165  0  4.057871  0  0  -0.023548  -0.066823  0  4.017279  0
C  C63  1  0.89221712  0.57171623  0.62481282  1  0  -0.094808  0  3.793605  0  0  -0.074452  0  4.032661  0  0  -0.085125  0  4.05761  0  0  -0.02343  -0.066784  0  4.017004  0
C  C64  1  0.92039993  0.42148913  0.32153764  1  0  -0.057633  0  3.748563  0  0  -0.085952  0  4.003572  0  0  -0.083977  0  4.023237  0  0  -0.082005  -0.087122  0  3.990753  0
C  C65  1  0.07960035  0.57850071  0.67845843  1  0  -0.057479  0  3.748434  0  0  -0.085863  0  4.003434  0  0  -0.08389  0  4.0231  0  0  -0.082002  -0.087033  0  3.990613  0
C  C66  1  0.95195769  0.49408710  0.26529955  1  0  -0.125748  0  3.708321  0  0  -0.143827  0  3.958559  0  0  -0.148329  0  3.978114  0  0  -0.090431  -0.140464  0  3.945424  0
C  C67  1  0.04804530  0.50590714  0.73469714  1  0  -0.125905  0  3.708403  0  0  -0.143959  0  3.95867  0  0  -0.148464  0  3.978223  0  0  -0.090457  -0.140594  0  3.945532  0
C  C68  1  0.20179692  0.65348548  0.20017182  1  0  -0.511347  0  3.719158  0  0  -0.530264  0  3.948445  0  0  -0.540775  0  3.95691  0  0  -0.158996  -0.523347  0  3.943687  0
C  C69  1  0.79820724  0.34651428  0.79982561  1  0  -0.511289  0  3.718981  0  0  -0.530312  0  3.948379  0  0  -0.540821  0  3.95685  0  0  -0.159034  -0.52341  0  3.943647  0
C  C70  1  0.06575926  0.34643348  0.43293054  1  0  0.66051  0  3.801469  0  0  0.605507  0  4.103101  0  0  0.639724  0  4.094893  0  0  0.240526  0.58166  0  4.108831  0
C  C71  1  0.93423228  0.65357413  0.56707161  1  0  0.660378  0  3.801925  0  0  0.605411  0  4.103511  0  0  0.639621  0  4.095311  0  0  0.240475  0.581585  0  4.10922  0
O  O72  1  0.46206890  0.94704140  0.09864165  1  0  -0.958122  0  1.945266  0  0  -0.879804  0  2.203701  0  0  -0.908842  0  2.184202  0  0  -0.414552  -0.862163  0  2.217382  0
O  O73  1  0.53793785  0.05295392  0.90135632  1  0  -0.958045  0  1.945307  0  0  -0.879726  0  2.203745  0  0  -0.908766  0  2.184246  0  0  -0.414544  -0.86209  0  2.217422  0
O  O74  1  0.14220396  0.07340455  0.06028858  1  0  -1.068304  0  2.030934  0  0  -0.98821  0  2.317032  0  0  -1.021877  0  2.29456  0  0  -0.527715  -0.971489  0  2.332261  0
O  O75  1  0.85779971  0.92659300  0.93970965  1  0  -1.068274  0  2.030981  0  0  -0.988205  0  2.317138  0  0  -1.021849  0  2.294609  0  0  -0.527746  -0.971444  0  2.332275  0
O  O76  1  0.57069336  0.20944102  0.08422173  1  0  -0.964943  0  1.971667  0  0  -0.884695  0  2.244615  0  0  -0.914035  0  2.220444  0  0  -0.456005  -0.86804  0  2.261102  0
O  O77  1  0.42929912  0.79056213  0.91577492  1  0  -0.9649  0  1.971751  0  0  -0.88465  0  2.244672  0  0  -0.913988  0  2.220511  0  0  -0.455919  -0.867993  0  2.261155  0
O  O78  1  0.21809470  0.87545527  0.47364187  1  0  -0.539262  0  2.117755  0  0  -0.488451  0  2.340449  0  0  -0.511062  0  2.324132  0  0  -0.321723  -0.472575  0  2.349825  0
O  O79  1  0.78191895  0.12453888  0.52635385  1  0  -0.539293  0  2.117712  0  0  -0.488503  0  2.340402  0  0  -0.511121  0  2.324079  0  0  -0.3217  -0.472629  0  2.349782  0
O  O80  1  0.85410884  0.77999494  0.41477629  1  0  -0.570222  0  1.992469  0  0  -0.516763  0  2.211588  0  0  -0.540171  0  2.20413  0  0  -0.284047  -0.501006  0  2.217511  0
O  O81  1  0.14589739  0.22001475  0.58522413  1  0  -0.570295  0  1.99227  0  0  -0.516819  0  2.21139  0  0  -0.540228  0  2.203934  0  0  -0.284124  -0.501059  0  2.217309  0
O  O82  1  0.26011008  0.62269380  0.05134754  1  0  -0.977806  0  1.968932  0  0  -0.904758  0  2.251042  0  0  -0.934808  0  2.226795  0  0  -0.488147  -0.888252  0  2.265859  0
O  O83  1  0.73991352  0.37730582  0.94865285  1  0  -0.977712  0  1.969  0  0  -0.904611  0  2.251037  0  0  -0.934659  0  2.226805  0  0  -0.488121  -0.888102  0  2.265848  0
O  O84  1  0.52887029  0.49717458  0.12041954  1  0  -0.760332  0  1.983473  0  0  -0.685788  0  2.200441  0  0  -0.706209  0  2.174766  0  0  -0.374414  -0.671493  0  2.217696  0
O  O85  1  0.47113604  0.50282739  0.87958204  1  0  -0.760337  0  1.983506  0  0  -0.685792  0  2.200444  0  0  -0.7062  0  2.17478  0  0  -0.374419  -0.671497  0  2.2177  0
O  O86  1  0.08927802  0.39183675  0.09048953  1  0  -0.964234  0  1.964015  0  0  -0.890955  0  2.242614  0  0  -0.920482  0  2.219653  0  0  -0.472664  -0.874198  0  2.256549  0
O  O87  1  0.91072389  0.60816081  0.90950813  1  0  -0.964267  0  1.964174  0  0  -0.89097  0  2.242767  0  0  -0.920487  0  2.219814  0  0  -0.472686  -0.874228  0  2.256734  0
O  O88  1  0.24179927  0.36167995  0.48477113  1  0  -0.529629  0  2.106133  0  0  -0.47758  0  2.326599  0  0  -0.500041  0  2.312535  0  0  -0.315553  -0.461547  0  2.335948  0
O  O89  1  0.75819268  0.63832102  0.51522850  1  0  -0.529577  0  2.106156  0  0  -0.477549  0  2.326712  0  0  -0.500011  0  2.312653  0  0  -0.315509  -0.461517  0  2.336054  0
O  O90  1  0.87134663  0.26800835  0.43110713  1  0  -0.562271  0  2.029558  0  0  -0.506633  0  2.24783  0  0  -0.52993  0  2.239542  0  0  -0.280155  -0.490222  0  2.253026  0
O  O91  1  0.12863161  0.73200380  0.56889819  1  0  -0.562151  0  2.029888  0  0  -0.506531  0  2.248181  0  0  -0.529812  0  2.239889  0  0  -0.280193  -0.490139  0  2.253376  0
O  O92  1  0.79426777  0.76807306  0.08443959  1  0  -0.938147  0  1.779953  0  0  -0.891066  0  1.975339  0  0  -0.913785  0  1.940311  0  0  -0.635753  -0.879148  0  1.998456  0
O  O93  1  0.20574339  0.23192667  0.91556229  1  0  -0.938162  0  1.779992  0  0  -0.891081  0  1.9754  0  0  -0.913801  0  1.940373  0  0  -0.635735  -0.879164  0  1.998516  0
