# generated using pymatgen
data_Mn2MoH42C37N17
_symmetry_space_group_name_H-M   'P 1'
_cell_length_a   12.54377674
_cell_length_b   17.38280621
_cell_length_c   17.38560325
_cell_angle_alpha   114.41047588
_cell_angle_beta   103.92042055
_cell_angle_gamma   103.89721549
_symmetry_Int_Tables_number   1
_chemical_formula_structural   Mn2MoH42C37N17
_chemical_formula_sum   'Mn6 Mo3 H126 C111 N51'
_cell_volume   3093.41257329
_cell_formula_units_Z   3
loop_
 _symmetry_equiv_pos_site_id
 _symmetry_equiv_pos_as_xyz
  1  'x, y, z'
loop_
 _atom_site_type_symbol
 _atom_site_label
 _atom_site_symmetry_multiplicity
 _atom_site_fract_x
 _atom_site_fract_y
 _atom_site_fract_z
 _atom_site_occupancy
 _atom_site_pbe_bader_charge
 _atom_site_pbe_bader_spin_density
 _atom_site_pbe_cm5_charge
 _atom_site_pbe_ddec_charge
 _atom_site_pbe_ddec_spin_density
 _atom_site_pbe_ddec_sum_bond_order
 _atom_site_pbe_magmom
Mn  Mn0  1  0.00473112  0.47421786  0.18013104  1  1.585521  2.41095  0.921443  0.808365  2.566968  3.513267  2.396
Mn  Mn1  1  0.39771375  0.58412226  0.81845856  1  1.583952  2.406145  0.890374  0.793718  2.561834  3.470326  2.39
Mn  Mn2  1  0.53038036  0.70587888  0.52568692  1  1.585832  2.409107  0.921757  0.808076  2.565666  3.511742  2.394
Mn  Mn3  1  0.81370780  0.23447574  0.41583601  1  1.585157  2.406837  0.890815  0.793937  2.56233  3.470854  2.391
Mn  Mn4  1  0.82422916  0.81978889  0.29407299  1  1.593029  2.409455  0.921562  0.807365  2.565919  3.513376  2.395
Mn  Mn5  1  0.57949094  0.18149325  0.76586981  1  1.585375  2.407086  0.890884  0.793771  2.562011  3.471439  2.391
Mo  Mo6  1  0.71148049  0.52789001  0.99426725  1  1.687433  -0.604293  0.821773  0.581264  -0.722165  5.388463  -0.602
Mo  Mo7  1  0.18349635  0.46625608  0.47203806  1  1.688358  -0.603599  0.821871  0.58164  -0.721983  5.3858  -0.602
Mo  Mo8  1  0.71706656  0.00599494  0.53380648  1  1.691402  -0.60396  0.821815  0.580658  -0.722274  5.388694  -0.602
H  H9  1  0.76746226  0.37176494  0.24443424  1  0.025731  0.002053  0.095779  0.070194  0.001029  0.988369  0.002
H  H10  1  0.72021469  0.39843656  0.15594842  1  0.093536  0.016621  0.099909  0.091516  0.010025  1.004051  0.011
H  H11  1  0.79753429  0.54657000  0.29079853  1  0.02083  -0.000725  0.100356  0.078456  -0.000563  1.001278  0.0
H  H12  1  0.91633040  0.52511151  0.34789335  1  0.063648  0.015449  0.098818  0.075108  0.00963  0.990484  0.009
H  H13  1  0.07098104  0.66228268  0.36615945  1  0.047458  0.014603  0.096755  0.071198  0.008747  0.993761  0.008
H  H14  1  0.94626299  0.68309934  0.31775693  1  0.082926  -0.002786  0.110263  0.089345  -0.002411  1.043568  -0.002
H  H15  1  0.67385538  0.70534925  0.90001289  1  0.053375  0.014704  0.099115  0.076714  0.008971  0.979568  0.009
H  H16  1  0.66016070  0.75831651  0.83120674  1  0.012147  -0.002281  0.092726  0.060401  -0.001928  1.017351  -0.001
H  H17  1  0.97026504  0.44504759  0.92706748  1  0.110164  0.000118  0.114551  0.118248  -6.4e-05  1.01023  0.0
H  H18  1  0.35391191  0.62594366  0.08158936  1  0.094957  0.000685  0.111558  0.116213  0.000307  1.016445  0.0
H  H19  1  0.53934910  0.43393826  0.68879331  1  0.072589  -0.001275  0.105573  0.091593  -0.001313  1.003895  -0.001
H  H20  1  0.40000667  0.43124525  0.62861687  1  0.072867  0.018628  0.100902  0.082701  0.011409  1.03576  0.013
H  H21  1  0.00757189  0.69395700  0.20288461  1  0.107354  0.000104  0.117203  0.111396  -2.2e-05  0.990406  0.0
H  H22  1  0.14461153  0.74958475  0.29869938  1  0.037724  -0.000456  0.105105  0.083596  -0.000481  1.002733  0.0
H  H23  1  0.41645671  0.49488123  0.02368627  1  0.141487  0.000307  0.112796  0.121149  0.000236  1.005097  0.0
H  H24  1  0.15332131  0.74155585  0.14617308  1  0.08533  5.3e-05  0.101168  0.153709  -0.000207  1.016625  0.0
H  H25  1  0.27243996  0.71714791  0.11653629  1  0.018242  0.000555  0.090976  0.132299  0.000295  1.018244  0.0
H  H26  1  0.29363745  0.77632446  0.23314151  1  0.102682  0.000675  0.100991  0.159928  0.000392  1.026274  0.0
H  H27  1  0.33914288  0.32084033  0.67124152  1  0.070588  -0.000935  0.10517  0.08447  -0.000835  1.015877  -0.001
H  H28  1  0.46365151  0.38252122  0.77810209  1  0.104676  -0.000297  0.111397  0.098287  -0.000242  1.007795  0.0
H  H29  1  0.54739102  0.61017250  0.69133301  1  0.068265  0.019675  0.099565  0.083992  0.011944  1.003999  0.013
H  H30  1  0.66280640  0.59033245  0.75596972  1  0.054066  0.001035  0.10272  0.087349  0.000147  1.015251  0.001
H  H31  1  0.00228963  0.27186729  0.18591313  1  0.090797  0.00038  0.117922  0.109068  0.000244  0.970123  0.0
H  H32  1  0.94104895  0.19645847  0.06474826  1  0.022501  0.00068  0.097751  0.066255  0.000203  0.999358  0.0
H  H33  1  0.32071167  0.35552131  0.02848217  1  0.094018  0.000676  0.110456  0.117166  0.000355  1.01111  0.0
H  H34  1  0.14134883  0.21343839  0.10221437  1  0.071522  0.000106  0.103931  0.153473  -5.9e-05  0.997642  0.0
H  H35  1  0.25762503  0.26496250  0.07657602  1  0.029953  0.000708  0.101108  0.144671  0.000445  0.999252  0.0
H  H36  1  0.11305050  0.19598326  0.98903941  1  0.027882  0.000171  0.10262  0.147045  4.9e-05  0.980076  0.0
H  H37  1  0.03786146  0.60453387  0.95778550  1  0.149562  0.000363  0.113249  0.130633  4e-05  1.024515  0.0
H  H38  1  0.13847328  0.25617479  0.74678779  1  0.135681  0.000154  0.101944  0.16003  -4.6e-05  1.039543  0.0
H  H39  1  0.24901780  0.30694570  0.85707416  1  0.050592  0.001186  0.099959  0.147499  0.000746  0.986503  0.001
H  H40  1  0.29067080  0.27174685  0.76120088  1  0.048689  0.000189  0.097943  0.144703  -4e-05  1.035461  0.0
H  H41  1  0.56319628  0.84345400  0.91199186  1  0.021074  -0.003021  0.097842  0.069624  -0.002628  0.977904  -0.002
H  H42  1  0.55500635  0.79469224  0.98371945  1  0.025687  0.013025  0.093818  0.061889  0.007624  1.01289  0.007
H  H43  1  0.06603052  0.34125855  0.84969405  1  0.11961  0.000495  0.111141  0.117227  0.000217  1.04255  0.0
H  H44  1  0.24902429  0.81711019  0.01950485  1  0.058575  0.000303  0.100393  0.141539  0.000148  0.987548  0.0
H  H45  1  0.10547181  0.73180670  0.97734957  1  0.10607  0.000418  0.098648  0.15084  0.00023  1.043824  0.0
H  H46  1  0.14614840  0.77641600  0.90844867  1  0.047669  0.000221  0.101744  0.146243  8.9e-05  0.977843  0.0
H  H47  1  0.79926927  0.27169349  0.04404522  1  0.086263  0.015571  0.104304  0.086348  0.009921  0.987903  0.008
H  H48  1  0.79013840  0.24618919  0.13211974  1  0.033962  -0.001976  0.097389  0.067812  -0.001658  1.014959  -0.002
H  H49  1  0.38701849  0.84451827  0.96325478  1  0.037277  0.001275  0.097522  0.063439  0.000721  0.994663  0.001
H  H50  1  0.34448885  0.78521518  0.84160562  1  0.0872  0.00046  0.117663  0.104091  0.000204  0.943009  0.0
H  H51  1  0.39565621  0.87274535  0.62811136  1  0.007018  0.002087  0.095129  0.068573  0.001032  0.989186  0.002
H  H52  1  0.32156654  0.75758345  0.60134336  1  0.075125  0.016787  0.099691  0.091329  0.010029  1.00419  0.011
H  H53  1  0.25111803  0.74446274  0.45326432  1  0.006597  -0.000711  0.099801  0.078012  -0.000553  1.001707  0.0
H  H54  1  0.39144903  0.82291681  0.47480493  1  0.06161  0.01551  0.099163  0.076314  0.009645  0.98902  0.009
H  H55  1  0.40868525  0.70380512  0.33753142  1  0.010107  0.01484  0.096701  0.070423  0.00878  0.995275  0.008
H  H56  1  0.26317833  0.63473892  0.31682064  1  0.058485  -0.002809  0.110372  0.088537  -0.002385  1.042675  -0.002
H  H57  1  0.96874207  0.19477790  0.29462861  1  0.051842  0.014729  0.09858  0.077197  0.008974  0.978882  0.009
H  H58  1  0.90204225  0.07300098  0.24164580  1  0.020637  -0.002254  0.092187  0.060407  -0.001923  1.01887  -0.001
H  H59  1  0.52487012  0.48190837  0.55489244  1  0.105406  0.000118  0.113761  0.116524  -6.2e-05  1.008935  0.0
H  H60  1  0.72780743  0.45547972  0.37360663  1  0.09055  0.000689  0.112082  0.117344  0.000308  1.014156  0.0
H  H61  1  0.10561471  0.25516342  0.56601870  1  0.044616  -0.001297  0.105106  0.090549  -0.001306  1.005607  -0.001
H  H62  1  0.96911551  0.19739265  0.56865557  1  0.071119  0.018624  0.101275  0.083193  0.011384  1.034789  0.013
H  H63  1  0.31345675  0.50887743  0.30585305  1  0.099815  0.000105  0.117424  0.111295  -2.1e-05  0.991162  0.0
H  H64  1  0.39493700  0.54905862  0.25025048  1  0.047875  -0.000442  0.104784  0.0825  -0.000474  1.003772  0.0
H  H65  1  0.92147800  0.52873584  0.50460503  1  0.125336  0.000312  0.111804  0.119056  0.000241  1.005876  0.0
H  H66  1  0.41137571  0.40447357  0.25823778  1  0.094133  4.6e-05  0.100418  0.152605  -0.00021  1.017168  0.0
H  H67  1  0.55478369  0.39903481  0.28264048  1  0.016311  0.000561  0.092397  0.134286  0.000297  1.019527  0.0
H  H68  1  0.51707991  0.45652899  0.22345306  1  0.130361  0.000662  0.100981  0.160994  0.00039  1.026241  0.0
H  H69  1  0.01781948  0.35016382  0.67908026  1  0.063387  -0.000949  0.10496  0.084058  -0.000839  1.015378  -0.001
H  H70  1  0.08095702  0.39573165  0.61777026  1  0.100236  -0.000292  0.111098  0.097648  -0.000241  1.008399  0.0
H  H71  1  0.93721379  0.08124967  0.38979335  1  0.050996  0.019839  0.100005  0.085158  0.011896  1.00267  0.013
H  H72  1  0.07252206  0.16558951  0.40959882  1  0.069175  0.00096  0.102949  0.088655  9.6e-05  1.014817  0.001
H  H73  1  0.73013885  0.91379805  0.72802102  1  0.092931  0.000373  0.118278  0.109542  0.000244  0.97019  0.0
H  H74  1  0.74416721  0.86796227  0.80337621  1  0.026956  0.000679  0.098259  0.066522  0.000196  0.999112  0.0
H  H75  1  0.96489806  0.67274165  0.64400093  1  0.102986  0.000668  0.110056  0.115912  0.000351  1.011421  0.0
H  H76  1  0.92733885  0.88844561  0.78622024  1  0.079041  0.000109  0.10402  0.152707  -5.8e-05  1.000052  0.0
H  H77  1  0.99213438  0.81135622  0.73453428  1  0.047566  0.000705  0.100244  0.143741  0.000447  0.999173  0.0
H  H78  1  0.91684938  0.79272725  0.80365355  1  0.053005  0.000172  0.103427  0.148084  5.3e-05  0.979091  0.0
H  H79  1  0.43337540  0.35333653  0.39534593  1  0.153537  0.000364  0.112646  0.130234  4e-05  1.023705  0.0
H  H80  1  0.88194693  0.49054177  0.74375768  1  0.139719  0.000149  0.101738  0.158988  -4.6e-05  1.038654  0.0
H  H81  1  0.94177888  0.55016992  0.69309720  1  0.046092  0.001186  0.099425  0.146574  0.000747  0.98688  0.001
H  H82  1  0.01864036  0.48946105  0.72827836  1  0.059843  0.000187  0.097747  0.14465  -4e-05  1.033691  0.0
H  H83  1  0.72016206  0.06884682  0.15649391  1  0.02296  -0.003036  0.097597  0.069152  -0.002637  0.978036  -0.002
H  H84  1  0.76050869  0.18932786  0.20532861  1  0.032565  0.012982  0.093482  0.061908  0.007631  1.012586  0.007
H  H85  1  0.72439012  0.50833557  0.65872404  1  0.130318  0.000486  0.110886  0.117684  0.000218  1.042163  0.0
H  H86  1  0.43156281  0.20210090  0.18279526  1  0.043887  0.000306  0.099715  0.140238  0.000149  0.989503  0.0
H  H87  1  0.37362589  0.24553621  0.26826945  1  0.107277  0.000417  0.099835  0.1519  0.000229  1.042464  0.0
H  H88  1  0.36985500  0.13206764  0.22394041  1  0.074674  0.000218  0.102027  0.146263  9e-05  0.978178  0.0
H  H89  1  0.52715132  0.77228873  0.72821129  1  0.05374  0.015805  0.104301  0.085093  0.009956  0.988781  0.008
H  H90  1  0.54366642  0.88590202  0.75369598  1  0.035682  -0.001973  0.097087  0.067066  -0.001659  1.015051  -0.002
H  H91  1  0.54269504  0.11879174  0.15540074  1  0.039943  0.001274  0.09696  0.062713  0.000721  0.996283  0.001
H  H92  1  0.55965986  0.05648950  0.21473348  1  0.057534  0.000466  0.11697  0.10333  0.000206  0.942801  0.0
H  H93  1  0.52258394  0.75590378  0.12759073  1  0.036403  0.001968  0.094723  0.068784  0.000978  0.989364  0.002
H  H94  1  0.56414768  0.84423496  0.24284674  1  0.070934  0.016793  0.100505  0.092111  0.010019  1.003057  0.011
H  H95  1  0.50642301  0.70909113  0.25568805  1  0.029709  -0.000729  0.099699  0.077418  -0.000558  1.001159  0.0
H  H96  1  0.56809331  0.65212056  0.17706573  1  0.042871  0.015694  0.098671  0.075522  0.009654  0.989854  0.009
H  H97  1  0.70443889  0.63364785  0.29599601  1  0.039558  0.014644  0.096669  0.070285  0.008776  0.994956  0.008
H  H98  1  0.62815792  0.68209188  0.36520175  1  0.074591  -0.002778  0.109453  0.087033  -0.002395  1.044062  -0.002
H  H99  1  0.77403947  0.09970814  0.80520803  1  0.030773  0.014788  0.098925  0.076038  0.008956  0.980865  0.009
H  H100  1  0.82927568  0.16840842  0.92699523  1  0.001858  -0.002329  0.092942  0.061143  -0.00195  1.017374  -0.001
H  H101  1  0.04346525  0.07309540  0.51817928  1  0.129915  0.000116  0.114376  0.117111  -5.9e-05  1.009957  0.0
H  H102  1  0.27189847  0.91812171  0.54435418  1  0.095403  0.000685  0.111454  0.116853  0.000307  1.014612  0.0
H  H103  1  0.85073888  0.31114916  0.74534987  1  0.066323  -0.0013  0.105439  0.091978  -0.001322  1.004007  -0.001
H  H104  1  0.77180090  0.37140573  0.80306228  1  0.077779  0.018406  0.100705  0.083042  0.011356  1.035883  0.013
H  H105  1  0.80428286  0.79686659  0.49094480  1  0.099664  0.000106  0.117505  0.111326  -2.2e-05  0.99072  0.0
H  H106  1  0.84553030  0.70102648  0.45071975  1  0.042082  -0.000456  0.105437  0.08363  -0.000482  1.002569  0.0
H  H107  1  0.39230643  0.97611821  0.47121447  1  0.150654  0.000306  0.112574  0.11979  0.000241  1.005962  0.0
H  H108  1  0.00631375  0.85381568  0.59529308  1  0.076001  4.8e-05  0.099682  0.151432  -0.00021  1.017414  0.0
H  H109  1  0.15519097  0.88359559  0.60081801  1  0.040464  0.000558  0.092218  0.13447  0.000299  1.01803  0.0
H  H110  1  0.06004241  0.76693054  0.54341259  1  0.123403  0.000669  0.100908  0.160736  0.000392  1.025387  0.0
H  H111  1  0.66815238  0.32926111  0.65027569  1  0.064983  -0.000939  0.105175  0.083907  -0.000834  1.016079  -0.001
H  H112  1  0.68574003  0.22235648  0.60468686  1  0.08877  -0.000293  0.111165  0.098385  -0.000242  1.008175  0.0
H  H113  1  0.85632842  0.30840595  0.91891733  1  0.046173  0.019853  0.099786  0.084343  0.011878  1.004137  0.013
H  H114  1  0.90703517  0.24381298  0.83436402  1  0.068733  0.000984  0.103007  0.088586  0.000114  1.016168  0.001
H  H115  1  0.81588967  0.81398199  0.08597091  1  0.092637  0.000388  0.118009  0.10886  0.000249  0.970327  0.0
H  H116  1  0.87572790  0.93514747  0.13163883  1  0.025037  0.000689  0.098004  0.06623  0.000207  0.998833  0.0
H  H117  1  0.29175375  0.97143974  0.32716757  1  0.09772  0.000673  0.109627  0.115785  0.000352  1.012238  0.0
H  H118  1  0.03870227  0.89797331  0.11140197  1  0.067462  0.000107  0.104247  0.153265  -5.9e-05  0.999427  0.0
H  H119  1  0.18050979  0.92321356  0.18843911  1  0.069443  0.000694  0.101031  0.144762  0.000446  0.999319  0.0
H  H120  1  0.12386129  0.01103091  0.20726043  1  0.0506  0.000165  0.103096  0.148316  4.8e-05  0.978883  0.0
H  H121  1  0.08042416  0.04229274  0.64688385  1  0.159947  0.000363  0.112229  0.130111  4.2e-05  1.02423  0.0
H  H122  1  0.39186415  0.25332583  0.50953867  1  0.140681  0.000142  0.101015  0.158628  -5.1e-05  1.039437  0.0
H  H123  1  0.39231818  0.14307405  0.45011022  1  0.070506  0.00117  0.099652  0.147494  0.000743  0.98609  0.001
H  H124  1  0.52974012  0.23901185  0.51082476  1  0.051741  0.000187  0.097787  0.144096  -4e-05  1.035215  0.0
H  H125  1  0.65154065  0.08777181  0.93147590  1  0.020622  -0.003039  0.097629  0.069528  -0.002643  0.9771  -0.002
H  H126  1  0.57145060  0.01609818  0.81101497  1  0.018904  0.013073  0.093697  0.062352  0.007603  1.012502  0.007
H  H127  1  0.21656655  0.15054210  0.49182323  1  0.12212  0.000495  0.110907  0.11675  0.000219  1.043623  0.0
H  H128  1  0.22990871  0.98112946  0.79833684  1  0.035951  0.000311  0.100157  0.141364  0.000151  0.988314  0.0
H  H129  1  0.12854329  0.02314208  0.75481673  1  0.10568  0.000412  0.099113  0.150786  0.00023  1.042919  0.0
H  H130  1  0.23812786  0.09233201  0.86828375  1  0.044832  0.000225  0.101683  0.145977  9.2e-05  0.97862  0.0
H  H131  1  0.75474059  0.95591470  0.22759588  1  0.048234  0.015788  0.10404  0.084761  0.009929  0.989787  0.008
H  H132  1  0.65751948  0.86782827  0.11405586  1  0.036476  -0.001963  0.09725  0.067417  -0.001658  1.014998  -0.002
H  H133  1  0.42420310  0.03690090  0.88155441  1  0.026647  0.001249  0.097322  0.063849  0.000703  0.995655  0.0
H  H134  1  0.50350874  0.15852530  0.94377570  1  0.05873  0.000473  0.117165  0.103583  0.000208  0.943166  0.0
C  C135  1  0.79859433  0.41111044  0.21221257  1  0.286688  0.003024  -0.064268  -0.051571  0.003901  3.954479  -0.001
C  C136  1  0.19071814  0.44842809  0.84533787  1  0.529556  0.000582  0.130564  0.152645  0.000278  4.013246  -0.001
C  C137  1  0.86130089  0.51302276  0.28052628  1  0.308237  0.006731  -0.063703  -0.045994  0.006436  3.948865  0.003
C  C138  1  0.13008457  0.32846273  0.08858078  1  0.705516  0.006036  0.167716  0.269093  0.0053  3.898  0.004
C  C139  1  0.18278647  0.63241855  0.16200372  1  0.689021  0.008207  0.164372  0.267013  0.00694  3.897787  0.006
C  C140  1  0.83878769  0.47877196  0.03146660  1  0.671819  0.017322  0.002057  -0.04098  0.020205  3.7243  0.031
C  C141  1  0.20011076  0.40887650  0.08555454  1  0.514636  0.001924  0.128836  0.155342  0.001614  3.992371  0.001
C  C142  1  0.57495002  0.57538727  0.96094572  1  0.658949  0.007294  -0.004426  -0.079968  0.011287  3.67911  0.028
C  C143  1  0.00624330  0.64788871  0.30082718  1  0.254686  0.005662  -0.069505  -0.067179  0.006302  3.965144  0.003
C  C144  1  0.77441718  0.63499276  0.13038661  1  0.762889  0.017145  0.033826  0.02159  0.020492  3.707414  0.015
C  C145  1  0.72722691  0.50843060  0.86864042  1  0.687435  0.008216  -0.012375  -0.059133  0.01115  3.840207  0.014
C  C146  1  0.61433266  0.69996027  0.83774425  1  0.301612  0.006716  -0.06867  -0.04626  0.006437  3.989586  0.003
C  C147  1  0.22856226  0.68464701  0.91830437  1  0.674917  0.00385  0.161099  0.258966  0.003463  3.912467  0.003
C  C148  1  0.04237493  0.46974550  0.90812699  1  0.015835  0.001232  -0.059892  -0.011343  0.00081  3.917442  0.001
C  C149  1  0.31140115  0.56438822  0.08289725  1  -0.029196  0.000128  -0.072326  -0.147751  -2e-06  3.93406  0.0
C  C150  1  0.46016413  0.44807693  0.69607859  1  0.308357  0.004838  -0.067554  -0.063683  0.006843  3.939023  0.0
C  C151  1  0.17563907  0.59042711  0.90252380  1  0.464667  0.0022  0.124561  0.147707  0.001856  4.00492  0.001
C  C152  1  0.06952867  0.68346542  0.25074106  1  0.304063  0.000636  -0.058867  -0.05543  -0.000171  3.919311  0.0
C  C153  1  0.34582531  0.49070327  0.04972930  1  0.018396  0.001406  -0.061777  -0.015865  0.000845  3.944639  0.001
C  C154  1  0.22819792  0.72149538  0.16445802  1  -0.065051  -0.0003  -0.237438  -0.461125  -0.000282  3.903762  -0.001
C  C155  1  0.39768656  0.38940087  0.72930037  1  0.262811  0.003146  -0.058303  -0.049391  0.001763  3.897078  0.002
C  C156  1  0.58449773  0.60876778  0.75511693  1  0.30481  0.004605  -0.066978  -0.058123  0.006033  3.940855  0.0
C  C157  1  0.96131382  0.26622499  0.11905559  1  0.301557  0.003981  -0.05459  -0.05804  0.002894  3.965143  0.003
C  C158  1  0.29091526  0.41188829  0.05169469  1  -0.086555  0.001212  -0.075015  -0.1529  0.000903  3.927634  0.001
C  C159  1  0.16229272  0.24592915  0.06258077  1  -0.022616  0.000535  -0.231254  -0.45411  0.000508  3.942374  0.0
C  C160  1  0.08126614  0.56007051  0.92627632  1  -0.053261  -0.00013  -0.067902  -0.134656  -6.5e-05  3.873601  0.0
C  C161  1  0.23263696  0.30181767  0.78968175  1  -0.08455  -0.000706  -0.238371  -0.456995  -0.000668  3.901344  -0.001
C  C162  1  0.25550917  0.39471014  0.80066418  1  0.667028  0.009336  0.164653  0.267949  0.007962  3.894115  0.007
C  C163  1  0.85981018  0.64105302  0.02043939  1  0.717123  0.002316  -0.004113  -0.026679  0.005136  3.820741  0.02
C  C164  1  0.50939874  0.78505319  0.91522552  1  0.336647  0.006759  -0.064916  -0.046006  0.007605  4.018968  0.004
C  C165  1  0.22245798  0.55733789  0.11835215  1  0.498958  0.001223  0.130277  0.152498  0.000809  4.007319  0.0
C  C166  1  0.61899930  0.47199801  0.06058019  1  0.695057  0.007737  -0.015092  -0.066602  0.009835  3.820358  0.019
C  C167  1  0.09697064  0.41264049  0.86717274  1  -0.030655  0.000405  -0.071122  -0.149392  0.000206  3.915428  0.0
C  C168  1  0.17866842  0.75541529  0.95824335  1  -0.09392  0.000885  -0.231864  -0.451344  0.000827  3.927401  0.0
C  C169  1  0.84981396  0.28817097  0.11449291  1  0.287001  0.006819  -0.060913  -0.052977  0.008282  3.972569  0.002
C  C170  1  0.38499822  0.78433888  0.90497611  1  0.277618  0.001498  -0.057036  -0.052819  0.000929  3.99144  0.001
C  C171  1  0.61759277  0.38297080  0.89807508  1  0.729583  0.011957  0.029686  0.002743  0.015663  3.65588  0.019
C  C172  1  0.38735595  0.80115946  0.58872309  1  0.332471  0.002867  -0.063654  -0.048962  0.003928  3.952686  -0.001
C  C173  1  0.74221283  0.39701467  0.55149945  1  0.525935  0.000569  0.130899  0.153946  0.000269  4.010626  -0.001
C  C174  1  0.34836406  0.76763832  0.48685866  1  0.323989  0.006637  -0.065001  -0.049581  0.006467  3.950168  0.003
C  C175  1  0.80117139  0.75978511  0.67126080  1  0.683437  0.006131  0.166543  0.268452  0.005376  3.901541  0.005
C  C176  1  0.55007778  0.52933588  0.36731395  1  0.683839  0.008175  0.163015  0.265623  0.006905  3.897041  0.006
C  C177  1  0.35985224  0.55251962  0.52100943  1  0.691995  0.016847  8.9e-05  -0.042267  0.020119  3.721906  0.031
C  C178  1  0.79083382  0.67636479  0.59080252  1  0.54955  0.001861  0.128762  0.154699  0.001612  3.997408  0.001
C  C179  1  0.99954912  0.38562143  0.42463338  1  0.668515  0.007319  -0.00467  -0.08242  0.011357  3.681105  0.028
C  C180  1  0.35832059  0.65294868  0.35197646  1  0.345342  0.005315  -0.068732  -0.064578  0.006312  3.961629  0.003
C  C181  1  0.13935787  0.49541651  0.36503139  1  0.754661  0.017059  0.032162  0.020648  0.020497  3.706438  0.015
C  C182  1  0.21889713  0.35998861  0.49122495  1  0.693161  0.008117  -0.013266  -0.061117  0.011135  3.839992  0.014
C  C183  1  0.91456740  0.13790051  0.30000887  1  0.286772  0.006703  -0.068902  -0.048504  0.006436  3.992504  0.003
C  C184  1  0.54399817  0.23375840  0.31529938  1  0.688611  0.003832  0.161392  0.260215  0.003465  3.915194  0.003
C  C185  1  0.57244070  0.43837031  0.53017822  1  0.0532  0.001221  -0.059237  -0.008108  0.000803  3.913219  0.001
C  C186  1  0.74678109  0.51830470  0.43521481  1  -0.019783  0.000138  -0.07248  -0.149359  8e-06  3.932542  0.0
C  C187  1  0.01221450  0.24812952  0.55186847  1  0.335942  0.004775  -0.066788  -0.063117  0.006817  3.939292  0.0
C  C188  1  0.58529466  0.31223355  0.40948126  1  0.490453  0.002194  0.124256  0.145167  0.00186  4.007582  0.001
C  C189  1  0.38593104  0.56720415  0.31635416  1  0.289419  0.000633  -0.059533  -0.055222  -0.000164  3.91681  0.0
C  C190  1  0.85490545  0.55884811  0.50883786  1  -0.024616  0.001413  -0.061641  -0.013605  0.000851  3.945158  0.001
C  C191  1  0.50633258  0.44270055  0.27828545  1  -0.112605  -0.000287  -0.238026  -0.463044  -0.000277  3.904952  -0.001
C  C192  1  0.00813138  0.33991106  0.61062704  1  0.274823  0.003079  -0.058665  -0.048368  0.001703  3.896566  0.002
C  C193  1  0.97582087  0.14643073  0.39118060  1  0.303583  0.004379  -0.067424  -0.061262  0.006032  3.94419  0.0
C  C194  1  0.69472687  0.85258023  0.73363138  1  0.303328  0.004  -0.055548  -0.059787  0.002907  3.964464  0.003
C  C195  1  0.87869946  0.63957194  0.58770520  1  -0.028201  0.001213  -0.072903  -0.14981  0.000898  3.926873  0.001
C  C196  1  0.91591054  0.81633272  0.75370062  1  -0.072821  0.00054  -0.23134  -0.453466  0.000503  3.945065  0.0
C  C197  1  0.52119926  0.36629813  0.43983777  1  -0.091176  -9.5e-05  -0.067194  -0.133784  -5e-05  3.872823  0.0
C  C198  1  0.93055365  0.48787500  0.69817360  1  -0.096334  -0.000698  -0.237466  -0.45563  -0.000675  3.896895  -0.001
C  C199  1  0.86065022  0.40601242  0.60523247  1  0.666086  0.009355  0.165513  0.270408  0.007975  3.887669  0.007
C  C200  1  0.21847641  0.37926505  0.35870688  1  0.719466  0.002154  -0.004947  -0.027443  0.005139  3.821948  0.02
C  C201  1  0.72461819  0.13039721  0.21490849  1  0.325013  0.006783  -0.065055  -0.046393  0.007601  4.018024  0.004
C  C202  1  0.66482399  0.56074852  0.44235128  1  0.494903  0.001213  0.129726  0.151152  0.000815  4.005326  0.0
C  C203  1  0.14723449  0.58864908  0.52838062  1  0.694579  0.007661  -0.015359  -0.064723  0.009853  3.818134  0.019
C  C204  1  0.68411305  0.45452599  0.58729936  1  -0.051667  0.000422  -0.071256  -0.152446  0.000213  3.916463  0.0
C  C205  1  0.42322622  0.20277728  0.24464325  1  -0.123531  0.000898  -0.233163  -0.451521  0.000829  3.929918  0.0
C  C206  1  0.56130512  0.82621504  0.71171575  1  0.328839  0.006416  -0.060267  -0.049055  0.008249  3.971073  0.002
C  C207  1  0.60089984  0.12075515  0.21557876  1  0.30374  0.00153  -0.055252  -0.050089  0.000949  3.990568  0.001
C  C208  1  0.23443842  0.51473401  0.61692654  1  0.719356  0.011764  0.031804  0.00576  0.015614  3.652648  0.019
C  C209  1  0.58604758  0.78791758  0.19905899  1  0.295876  0.002899  -0.063319  -0.049953  0.003949  3.952089  -0.001
C  C210  1  0.34565732  0.15477939  0.60327710  1  0.520663  0.000593  0.130445  0.15108  0.000274  4.012207  -0.001
C  C211  1  0.58043234  0.71943851  0.23243533  1  0.310279  0.006642  -0.063853  -0.046885  0.006487  3.948082  0.003
C  C212  1  0.04106462  0.91141581  0.23998488  1  0.708764  0.005964  0.167009  0.271161  0.005294  3.897751  0.004
C  C213  1  0.02035367  0.83787404  0.47043722  1  0.697808  0.008224  0.162976  0.264307  0.006974  3.898134  0.006
C  C214  1  0.80718609  0.96859946  0.44749403  1  0.679629  0.016972  0.000752  -0.041881  0.020129  3.721317  0.031
C  C215  1  0.11410224  0.91439400  0.32342561  1  0.570817  0.001897  0.129679  0.15501  0.001613  3.995679  0.001
C  C216  1  0.61389386  0.03925693  0.61450623  1  0.638514  0.007795  -0.003772  -0.080915  0.011554  3.682385  0.028
C  C217  1  0.70504938  0.69898039  0.34693062  1  0.29168  0.005454  -0.068899  -0.063678  0.006325  3.962316  0.003
C  C218  1  0.64377084  0.86976894  0.50465135  1  0.753558  0.016916  0.032053  0.018048  0.020293  3.709081  0.015
C  C219  1  0.85872230  0.13141308  0.63994954  1  0.698849  0.008014  -0.011505  -0.057944  0.011173  3.840356  0.014
C  C220  1  0.77685588  0.16196912  0.86216128  1  0.3225  0.006605  -0.069231  -0.047971  0.006443  3.993281  0.003
C  C221  1  0.31064328  0.08188981  0.76656975  1  0.662088  0.003957  0.161036  0.260183  0.003516  3.913728  0.003
C  C222  1  0.13453992  0.09199167  0.56179518  1  -0.045099  0.001225  -0.059417  -0.009517  0.000803  3.917186  0.001
C  C223  1  0.22806784  0.91688810  0.48151454  1  0.050308  0.0001  -0.07163  -0.148977  1.1e-05  3.931596  0.0
C  C224  1  0.76433482  0.30394469  0.75227972  1  0.317072  0.004929  -0.067626  -0.064694  0.006825  3.938357  0.0
C  C225  1  0.27343685  0.09757909  0.68806857  1  0.501186  0.002153  0.126305  0.149928  0.001836  3.99931  0.001
C  C226  1  0.81840080  0.74902165  0.43259587  1  0.305427  0.000636  -0.059804  -0.056296  -0.000162  3.917757  0.0
C  C227  1  0.29563872  0.95008412  0.44103751  1  -0.041278  0.001399  -0.062433  -0.014451  0.000836  3.943736  0.001
C  C228  1  0.06313821  0.83556676  0.55713591  1  -0.104897  -0.000295  -0.237342  -0.461401  -0.000285  3.904401  -0.001
C  C229  1  0.66860412  0.27100804  0.66048081  1  0.280438  0.003107  -0.058981  -0.049949  0.001739  3.898797  0.002
C  C230  1  0.82963309  0.24465015  0.85368024  1  0.320688  0.00432  -0.067163  -0.059309  0.006023  3.944357  0.0
C  C231  1  0.84178583  0.88087484  0.14715884  1  0.297489  0.003944  -0.054579  -0.057769  0.002895  3.963244  0.003
C  C232  1  0.23874487  0.94821189  0.36028535  1  -0.07748  0.001196  -0.073256  -0.150348  0.000899  3.925178  0.001
C  C233  1  0.09931523  0.93742903  0.18350768  1  -0.094581  0.000562  -0.232679  -0.456924  0.00051  3.944387  0.0
C  C234  1  0.15532707  0.07380312  0.63394660  1  -0.070398  -8.1e-05  -0.067926  -0.13599  -4.8e-05  3.873906  0.0
C  C235  1  0.44322496  0.21048009  0.51236149  1  -0.128691  -0.000693  -0.237376  -0.456326  -0.00067  3.899266  -0.001
C  C236  1  0.45509812  0.19951015  0.59427810  1  0.679317  0.009251  0.166203  0.272494  0.007896  3.889093  0.007
C  C237  1  0.83903790  0.97965143  0.62078237  1  0.727953  0.002393  -0.002601  -0.024487  0.005138  3.819856  0.02
C  C238  1  0.59450383  0.08462292  0.86990258  1  0.344737  0.006631  -0.065911  -0.047446  0.007612  4.017898  0.004
C  C239  1  0.10367918  0.88150227  0.43902422  1  0.429934  0.001248  0.130962  0.153949  0.00079  4.006345  0.0
C  C240  1  0.55833319  0.94013469  0.41161836  1  0.694845  0.007654  -0.014447  -0.066475  0.00981  3.815951  0.019
C  C241  1  0.23004167  0.13297109  0.54566407  1  -0.003335  0.00041  -0.071141  -0.148992  0.000216  3.915048  0.0
C  C242  1  0.22084617  0.04227832  0.79759149  1  -0.077795  0.000883  -0.232221  -0.451183  0.00082  3.930207  0.0
C  C243  1  0.73484782  0.88547884  0.17367461  1  0.311782  0.006619  -0.060383  -0.050249  0.008289  3.971145  0.002
C  C244  1  0.48045429  0.09507481  0.87954386  1  0.322498  0.001485  -0.055822  -0.052245  0.000928  3.99307  0.001
C  C245  1  0.71979499  0.10238546  0.48529222  1  0.719731  0.011905  0.030387  0.004942  0.015639  3.654332  0.019
N  N246  1  0.88650169  0.38358986  0.17965190  1  -0.983832  0.173632  -0.423969  -0.263126  0.135584  3.33924  0.116
N  N247  1  0.22728668  0.53472550  0.86280901  1  -1.229317  0.04652  -0.278134  -0.285442  0.038777  3.476744  0.036
N  N248  1  0.11071782  0.61556237  0.19998585  1  -1.183616  0.009046  -0.294873  -0.22838  0.006373  3.380627  0.001
N  N249  1  0.74210698  0.49980247  0.80167864  1  -1.33184  -0.032112  -0.362148  -0.366516  -0.029048  3.065055  -0.024
N  N250  1  0.16913349  0.48079461  0.11823662  1  -1.216078  0.0493  -0.275006  -0.275903  0.041029  3.459281  0.038
N  N251  1  0.90716106  0.45103657  0.06027299  1  -1.358096  -0.06443  -0.404226  -0.345745  -0.061302  3.461721  -0.062
N  N252  1  0.04324300  0.33625440  0.11360299  1  -1.168822  0.020763  -0.284288  -0.225016  0.016708  3.360032  0.012
N  N253  1  0.50054259  0.60064301  0.93576857  1  -1.366276  -0.073676  -0.393845  -0.331817  -0.06908  3.421893  -0.068
N  N254  1  0.32909344  0.43403837  0.77517523  1  -1.16781  0.002663  -0.28924  -0.206768  -7e-06  3.350724  -0.006
N  N255  1  0.93552723  0.55123729  0.24261111  1  -0.940622  0.143259  -0.423098  -0.259286  0.112051  3.306996  0.091
N  N256  1  0.50033235  0.70044340  0.84271256  1  -0.996438  0.1369  -0.427406  -0.316156  0.107497  3.329374  0.087
N  N257  1  0.49821031  0.54310007  0.76270894  1  -0.985711  0.206387  -0.416782  -0.229013  0.161682  3.333145  0.142
N  N258  1  0.56939358  0.44022985  0.09638756  1  -1.33135  -0.056297  -0.369584  -0.372236  -0.050226  3.018204  -0.042
N  N259  1  0.31762494  0.69842996  0.89460160  1  -1.174915  0.026572  -0.289279  -0.237466  0.021839  3.365088  0.019
N  N260  1  0.94478704  0.70109061  0.03622389  1  -1.349695  -0.064183  -0.374176  -0.391035  -0.056767  2.97767  -0.045
N  N261  1  0.81406778  0.70097400  0.20318954  1  -1.378551  -0.005538  -0.393188  -0.337279  -0.009475  3.499905  -0.018
N  N262  1  0.58344311  0.30316891  0.85013354  1  -1.350122  -0.023502  -0.375224  -0.319965  -0.025661  3.442396  -0.031
N  N263  1  0.50271314  0.79598823  0.61631235  1  -1.009129  0.17433  -0.423475  -0.262937  0.136014  3.337555  0.116
N  N264  1  0.69264434  0.32824349  0.46519001  1  -1.230026  0.04656  -0.278688  -0.285431  0.038795  3.47524  0.036
N  N265  1  0.49496718  0.58428086  0.38421251  1  -1.175856  0.009211  -0.294804  -0.227372  0.006449  3.377343  0.001
N  N266  1  0.24249826  0.30161120  0.49972385  1  -1.337947  -0.032204  -0.361742  -0.365128  -0.029127  3.063497  -0.024
N  N267  1  0.68795554  0.63713308  0.51891691  1  -1.22841  0.049486  -0.275516  -0.275962  0.041143  3.459859  0.039
N  N268  1  0.45584856  0.60911814  0.54868595  1  -1.380676  -0.064121  -0.401785  -0.343622  -0.061285  3.458102  -0.062
N  N269  1  0.70652426  0.77703918  0.66355175  1  -1.164011  0.020635  -0.282297  -0.223414  0.016571  3.360188  0.012
N  N270  1  0.89982144  0.33528726  0.39930288  1  -1.37501  -0.073737  -0.393531  -0.329695  -0.069158  3.422437  -0.068
N  N271  1  0.89494565  0.34118335  0.56591668  1  -1.16122  0.002587  -0.288624  -0.206919  -6.2e-05  3.348884  -0.006
N  N272  1  0.38431011  0.69142785  0.44863764  1  -0.962907  0.144313  -0.422086  -0.257988  0.112612  3.305722  0.092
N  N273  1  0.80009618  0.14246021  0.29950443  1  -0.993673  0.137033  -0.427355  -0.315299  0.107543  3.328846  0.087
N  N274  1  0.95525774  0.21977031  0.45686534  1  -0.983308  0.205483  -0.417179  -0.228686  0.16084  3.333529  0.141
N  N275  1  0.12960339  0.65631249  0.56040249  1  -1.333103  -0.056251  -0.369545  -0.373855  -0.050185  3.017096  -0.042
N  N276  1  0.61933600  0.19629411  0.30147409  1  -1.1762  0.026529  -0.28844  -0.238139  0.021863  3.365242  0.019
N  N277  1  0.24338044  0.33501308  0.29862694  1  -1.351609  -0.064057  -0.373362  -0.390182  -0.05669  2.978032  -0.045
N  N278  1  0.11318740  0.50226392  0.29905423  1  -1.369885  -0.005451  -0.390972  -0.335245  -0.009479  3.497693  -0.018
N  N279  1  0.27998318  0.54654700  0.69672074  1  -1.336432  -0.023315  -0.376946  -0.322579  -0.025645  3.441753  -0.031
N  N280  1  0.70646966  0.82033693  0.20397221  1  -0.980867  0.173877  -0.424572  -0.264152  0.135761  3.336561  0.116
N  N281  1  0.36478220  0.13730072  0.67208730  1  -1.226871  0.046541  -0.280198  -0.287681  0.038833  3.476516  0.036
N  N282  1  0.91033379  0.79977187  0.41546982  1  -1.183614  0.009124  -0.294631  -0.227445  0.006366  3.378767  0.001
N  N283  1  0.94075495  0.19826843  0.69820284  1  -1.346925  -0.032134  -0.363097  -0.367813  -0.029102  3.06414  -0.024
N  N284  1  0.05047721  0.88169823  0.36264165  1  -1.228766  0.04993  -0.276393  -0.277809  0.04105  3.462612  0.038
N  N285  1  0.84657081  0.93962285  0.39088333  1  -1.369973  -0.06401  -0.402513  -0.343835  -0.061116  3.457399  -0.062
N  N286  1  0.92917625  0.88637296  0.22267374  1  -1.168021  0.020823  -0.282194  -0.223539  0.016706  3.35825  0.012
N  N287  1  0.56461666  0.06419070  0.66498112  1  -1.347655  -0.074103  -0.394946  -0.330788  -0.069445  3.424212  -0.068
N  N288  1  0.55415136  0.22506053  0.65915124  1  -1.167073  0.002751  -0.287659  -0.205789  9.3e-05  3.349885  -0.006
N  N289  1  0.69260470  0.75725216  0.30853142  1  -0.955625  0.144114  -0.421129  -0.256018  0.112615  3.303738  0.092
N  N290  1  0.65796195  0.15710487  0.85779643  1  -1.006845  0.136393  -0.427364  -0.314316  0.107054  3.330006  0.087
N  N291  1  0.73569862  0.23718160  0.78050740  1  -0.982076  0.205257  -0.417013  -0.230242  0.160755  3.333718  0.141
N  N292  1  0.47300330  0.90459414  0.34403297  1  -1.335152  -0.056363  -0.370606  -0.372076  -0.050357  3.014706  -0.042
N  N293  1  0.42339732  0.10542213  0.80398120  1  -1.160597  0.026346  -0.287857  -0.237961  0.021713  3.367148  0.018
N  N294  1  0.90818955  0.96383585  0.66504095  1  -1.356101  -0.064065  -0.376261  -0.393044  -0.056701  2.977161  -0.045
N  N295  1  0.61084091  0.79692438  0.49778336  1  -1.367916  -0.005444  -0.390733  -0.334124  -0.009434  3.499629  -0.018
N  N296  1  0.73357318  0.15030993  0.45341577  1  -1.337545  -0.023512  -0.375365  -0.321299  -0.025742  3.441  -0.031
