# generated using pymatgen
data_Zr3H36C55O18
_symmetry_space_group_name_H-M   'P 1'
_cell_length_a   19.01289816
_cell_length_b   19.01362417
_cell_length_c   19.01654864
_cell_angle_alpha   60.05018090
_cell_angle_beta   59.99617821
_cell_angle_gamma   60.01019072
_symmetry_Int_Tables_number   1
_chemical_formula_structural   Zr3H36C55O18
_chemical_formula_sum   'Zr6 H72 C110 O36'
_cell_volume   4863.12312564
_cell_formula_units_Z   2
loop_
 _symmetry_equiv_pos_site_id
 _symmetry_equiv_pos_as_xyz
  1  'x, y, z'
loop_
 _atom_site_type_symbol
 _atom_site_label
 _atom_site_symmetry_multiplicity
 _atom_site_fract_x
 _atom_site_fract_y
 _atom_site_fract_z
 _atom_site_occupancy
 _atom_site_pbe_bader_charge
 _atom_site_pbe_bader_spin_density
 _atom_site_pbe_cm5_charge
 _atom_site_pbe_ddec_charge
 _atom_site_pbe_ddec_spin_density
 _atom_site_pbe_ddec_sum_bond_order
 _atom_site_pbe_magmom
Zr  Zr0  1  0.90658898  0.90709601  0.59216731  1  2.635687  0  1.625943  2.372178  0  2.76633  0
Zr  Zr1  1  0.09416534  0.09099822  0.40819313  1  2.632559  0  1.625853  2.371575  0  2.765793  0
Zr  Zr2  1  0.09285060  0.90587757  0.59351612  1  2.631845  0  1.625991  2.372871  0  2.764782  0
Zr  Zr3  1  0.90780370  0.09239442  0.40698435  1  2.632682  0  1.626211  2.373003  0  2.762959  0
Zr  Zr4  1  0.09335727  0.90601171  0.40725223  1  2.63714  0  1.626151  2.37214  0  2.760245  0
Zr  Zr5  1  0.90733225  0.09209778  0.59325373  1  2.637248  0  1.625777  2.373577  0  2.757916  0
H  H6  1  0.07308359  0.77974547  0.57214347  1  0.59431  0  0.330418  0.421583  0  0.858637  0
H  H7  1  0.07504466  0.07096352  0.28089391  1  0.599352  0  0.330078  0.420321  0  0.859889  0
H  H8  1  0.07332169  0.07152553  0.57451509  1  0.602856  0  0.332011  0.423857  0  0.85439  0
H  H9  1  0.78062484  0.07340642  0.57267043  1  0.598669  0  0.331318  0.422988  0  0.854521  0
H  H10  1  0.12183717  0.31099703  0.39800004  1  0.066847  0  0.104156  0.113704  0  1.006754  0
H  H11  1  0.87550489  0.33385465  0.59859933  1  0.110347  0  0.105528  0.115408  0  1.004047  0
H  H12  1  0.89675305  0.66898580  0.62078378  1  0.081852  0  0.103458  0.112066  0  1.008556  0
H  H13  1  0.09770794  0.69137737  0.37477587  1  0.09242  0  0.104927  0.114413  0  1.004291  0
H  H14  1  0.18777046  0.42455701  0.42228295  1  0.028217  0  0.095573  0.094473  0  0.965546  0
H  H15  1  0.18369677  0.42594987  0.33064745  1  0.021701  0  0.096121  0.095843  0  0.974225  0
H  H16  1  0.80947987  0.53444105  0.57949516  1  0.030168  0  0.095615  0.094464  0  0.96666  0
H  H17  1  0.81692880  0.43943493  0.67000763  1  0.046485  0  0.09723  0.097415  0  0.972085  0
H  H18  1  0.92216060  0.46466710  0.68759528  1  0.046862  0  0.097278  0.097045  0  0.96267  0
H  H19  1  0.83027605  0.55861143  0.68352770  1  0.01632  0  0.09683  0.097058  0  0.972939  0
H  H20  1  0.07943667  0.57468722  0.30948410  1  0.024498  0  0.095927  0.095423  0  0.965763  0
H  H21  1  0.16974020  0.57241001  0.31681679  1  0.035146  0  0.096662  0.096641  0  0.973417  0
H  H22  1  0.31291728  0.11988303  0.17009419  1  0.080566  0  0.103728  0.112381  0  1.008616  0
H  H23  1  0.33584852  0.87386580  0.19225189  1  0.075429  0  0.105433  0.115422  0  1.004458  0
H  H24  1  0.66869950  0.89737160  0.81185866  1  0.070759  0  0.104329  0.113556  0  1.006464  0
H  H25  1  0.69150330  0.09792183  0.83488336  1  0.08333  0  0.105373  0.115057  0  1.004202  0
H  H26  1  0.42459956  0.18703529  0.96555593  1  0.047848  0  0.096889  0.096497  0  0.963363  0
H  H27  1  0.42666808  0.18301247  0.05944562  1  0.021646  0  0.096988  0.097202  0  0.972846  0
H  H28  1  0.53574507  0.80884110  0.07519960  1  0.027256  0  0.095759  0.094847  0  0.965509  0
H  H29  1  0.44029745  0.81640408  0.07290475  1  0.005311  0  0.096567  0.096541  0  0.973152  0
H  H30  1  0.46457046  0.92213536  0.92520596  1  0.023823  0  0.095899  0.094689  0  0.965439  0
H  H31  1  0.55884114  0.83042215  0.92635395  1  0.024462  0  0.095953  0.095829  0  0.974328  0
H  H32  1  0.57574954  0.07928186  0.03512654  1  0.032148  0  0.095745  0.094635  0  0.966109  0
H  H33  1  0.57259903  0.16974607  0.94010109  1  0.006757  0  0.097623  0.098273  0  0.971608  0
H  H34  1  0.89736271  0.11911579  0.81323071  1  0.05797  0  0.105086  0.11445  0  1.005448  0
H  H35  1  0.09918317  0.87359626  0.83578080  1  0.032341  0  0.102308  0.113826  0  1.011186  0
H  H36  1  0.12179575  0.89758859  0.16893742  1  0.111867  0  0.104359  0.113683  0  1.006552  0
H  H37  1  0.87597557  0.09897794  0.19093246  1  0.081262  0  0.106303  0.116856  0  1.002021  0
H  H38  1  0.92315547  0.18677782  0.92416430  1  0.0421  0  0.097621  0.097856  0  0.962203  0
H  H39  1  0.83105046  0.18264146  0.92670709  1  0.032502  0  0.097303  0.097538  0  0.972767  0
H  H40  1  0.07943521  0.80869579  0.03691568  1  0.027991  0  0.093841  0.092915  0  0.968147  0
H  H41  1  0.16984781  0.81502770  0.94174339  1  0.062227  0  0.096977  0.1022  0  0.974396  0
H  H42  1  0.18815045  0.92132094  0.96522874  1  0.040731  0  0.095714  0.094709  0  0.965431  0
H  H43  1  0.18382566  0.83000832  0.05972499  1  0.042589  0  0.096113  0.096239  0  0.973758  0
H  H44  1  0.80961164  0.08004735  0.07610002  1  0.034138  0  0.095159  0.093641  0  0.967097  0
H  H45  1  0.81817973  0.17067521  0.07187044  1  0.033493  0  0.099836  0.103481  0  0.968654  0
H  H46  1  0.31223454  0.66812117  0.39827729  1  0.078168  0  0.10399  0.113087  0  1.007199  0
H  H47  1  0.33470320  0.69007452  0.59967526  1  0.090552  0  0.105971  0.116241  0  1.002207  0
H  H48  1  0.67061106  0.31224508  0.61995186  1  0.081384  0  0.105048  0.114442  0  1.005687  0
H  H49  1  0.69190226  0.33466619  0.37444180  1  0.069325  0  0.102316  0.113265  0  1.010996  0
H  H50  1  0.42593826  0.46478748  0.42151876  1  0.015233  0  0.095702  0.094744  0  0.965356  0
H  H51  1  0.42737794  0.55929665  0.33024911  1  0.001278  0  0.096314  0.096398  0  0.973766  0
H  H52  1  0.53526957  0.57535063  0.58012413  1  0.052459  0  0.095358  0.093632  0  0.966414  0
H  H53  1  0.44033592  0.57144717  0.67086625  1  0.008335  0  0.099818  0.102759  0  0.968787  0
H  H54  1  0.46651296  0.42368809  0.68736124  1  0.050148  0  0.097579  0.097888  0  0.96303  0
H  H55  1  0.56036067  0.42609292  0.68306638  1  0.01213  0  0.097248  0.097732  0  0.972454  0
H  H56  1  0.57590070  0.53603368  0.30920735  1  0.059452  0  0.093738  0.092742  0  0.968433  0
H  H57  1  0.57410851  0.44096761  0.31555676  1  0.020055  0  0.096792  0.102218  0  0.974467  0
H  H58  1  0.11314609  0.32356575  0.17918987  1  0.10463  0  0.114491  0.124075  0  0.988219  0
H  H59  1  0.18037063  0.43424345  0.06323566  1  0.099489  0  0.1151  0.121899  0  0.980752  0
H  H60  1  0.89405819  0.31448877  0.17781235  1  0.126011  0  0.111436  0.118615  0  1.025804  0
H  H61  1  0.88401656  0.67850243  0.82442927  1  0.117752  0  0.114569  0.124559  0  0.988279  0
H  H62  1  0.82216979  0.56247892  0.93499805  1  0.105627  0  0.11493  0.121732  0  0.981078  0
H  H63  1  0.11356654  0.67706995  0.81534373  1  0.095236  0  0.111344  0.117823  0  1.02541  0
H  H64  1  0.31300310  0.89552113  0.62326502  1  0.07096  0  0.10567  0.115592  0  1.003012  0
H  H65  1  0.33438832  0.09594959  0.37710538  1  0.102444  0  0.104827  0.114214  0  1.005866  0
H  H66  1  0.66838560  0.12181233  0.39667507  1  0.085525  0  0.105777  0.115254  0  1.003099  0
H  H67  1  0.69268840  0.87566908  0.59713498  1  0.084611  0  0.104882  0.114036  0  1.00586  0
H  H68  1  0.42620890  0.92158148  0.68836608  1  0.037096  0  0.095514  0.094374  0  0.96647  0
H  H69  1  0.42801622  0.82949776  0.68472880  1  0.063337  0  0.097672  0.098727  0  0.971713  0
H  H70  1  0.53442367  0.07854040  0.31022994  1  0.039359  0  0.096234  0.095568  0  0.966263  0
H  H71  1  0.43888816  0.16855651  0.31816469  1  0.022697  0  0.096156  0.095882  0  0.973856  0
H  H72  1  0.46413278  0.18709913  0.42273333  1  0.01555  0  0.095604  0.094179  0  0.965885  0
H  H73  1  0.55799662  0.18324296  0.33060279  1  0.027076  0  0.097483  0.098188  0  0.971632  0
H  H74  1  0.57659405  0.80895735  0.57975894  1  0.038173  0  0.096315  0.095627  0  0.966038  0
H  H75  1  0.57449236  0.81669989  0.66972499  1  0.012449  0  0.095998  0.095668  0  0.974185  0
H  H76  1  0.11250799  0.68720121  0.91785526  1  0.625468  0  0.330401  0.364088  0  0.897039  0
H  H77  1  0.78251734  0.41688982  0.18787854  1  0.614957  0  0.330296  0.363924  0  0.897126  0
C  C78  1  0.99682551  0.76592976  0.49746219  1  1.55666  0  0.232992  0.638863  0  4.100134  0
C  C79  1  0.23966810  0.99626315  0.26712457  1  1.531721  0  0.233042  0.640023  0  4.097465  0
C  C80  1  0.99846338  0.23733668  0.49792755  1  1.535813  0  0.233595  0.639719  0  4.097756  0
C  C81  1  0.76605085  0.99701809  0.73846996  1  1.531413  0  0.233067  0.639743  0  4.097713  0
C  C82  1  0.99703329  0.76449389  0.73780347  1  1.551261  0  0.235052  0.636458  0  4.112011  0
C  C83  1  0.76622686  0.99856597  0.49629428  1  1.540583  0  0.234144  0.640951  0  4.098051  0
C  C84  1  0.00079188  0.23679235  0.26527467  1  1.582561  0  0.234879  0.636712  0  4.111696  0
C  C85  1  0.23887723  0.99508891  0.49987108  1  1.534349  0  0.234114  0.640162  0  4.096993  0
C  C86  1  0.23828143  0.76460948  0.49871387  1  1.535806  0  0.233592  0.63941  0  4.097806  0
C  C87  1  0.99711568  0.99565230  0.73994252  1  1.558494  0  0.232861  0.638798  0  4.098721  0
C  C88  1  0.76748104  0.23879037  0.49665760  1  1.52071  0  0.232438  0.639596  0  4.099189  0
C  C89  1  0.99853515  0.99762967  0.26573687  1  1.529055  0  0.233437  0.638962  0  4.097424  0
C  C90  1  0.14520545  0.45036058  0.38517273  1  0.004481  0  -0.154577  -0.183962  0  3.983476  0
C  C91  1  0.85379475  0.48106455  0.61484360  1  -0.012846  0  -0.154044  -0.184254  0  3.981824  0
C  C92  1  0.88494491  0.51822161  0.64504867  1  0.006507  0  -0.153922  -0.184056  0  3.97849  0
C  C93  1  0.11469249  0.54885321  0.35375960  1  0.019729  0  -0.154737  -0.185484  0  3.982225  0
C  C94  1  0.06838600  0.34563585  0.44168273  1  -0.013615  0  -0.089799  -0.16394  0  3.975276  0
C  C95  1  0.06981928  0.41780232  0.44225711  1  -0.078305  0  -0.008087  0.07984  0  3.963516  0
C  C96  1  0.92907841  0.35854461  0.55517523  1  -0.069298  0  -0.088411  -0.160853  0  3.971618  0
C  C97  1  0.92852895  0.43151792  0.55617717  1  0.001225  0  -0.006717  0.081039  0  3.959695  0
C  C98  1  0.94080737  0.64376128  0.56762295  1  -0.045228  0  -0.08975  -0.163531  0  3.976874  0
C  C99  1  0.94179865  0.56918543  0.56947310  1  -0.015344  0  -0.007347  0.080102  0  3.963768  0
C  C100  1  0.05443040  0.65643118  0.42846527  1  -0.032277  0  -0.088003  -0.16031  0  3.971006  0
C  C101  1  0.05577100  0.58266153  0.42826396  1  -0.015853  0  -0.007385  0.07973  0  3.961129  0
C  C102  1  0.99844950  0.31557531  0.49799293  1  0.024491  0  -0.023053  -0.036638  0  4.017847  0
C  C103  1  0.99927923  0.46144646  0.49938102  1  -0.043403  0  -0.006234  -0.021753  0  3.943148  0
C  C104  1  0.99702928  0.68748575  0.49761196  1  -0.049744  0  -0.022301  -0.03452  0  4.0152  0
C  C105  1  0.99914040  0.53869119  0.49913437  1  -0.040794  0  -0.006841  -0.020856  0  3.943402  0
C  C106  1  0.45091046  0.14453238  0.01904116  1  0.009414  0  -0.15375  -0.183419  0  3.981136  0
C  C107  1  0.48203049  0.85325427  0.04940651  1  -0.003621  0  -0.15465  -0.18465  0  3.982031  0
C  C108  1  0.51851865  0.88484852  0.95091555  1  0.023443  0  -0.154554  -0.184356  0  3.984139  0
C  C109  1  0.54942613  0.11447888  0.98179274  1  -0.001498  0  -0.15412  -0.185004  0  3.982183  0
C  C110  1  0.34725994  0.06679858  0.14474947  1  0.026528  0  -0.090105  -0.163979  0  3.978036  0
C  C111  1  0.41883250  0.06885320  0.07003232  1  -0.02765  0  -0.007379  0.080196  0  3.964478  0
C  C112  1  0.36026606  0.92762537  0.15730217  1  -0.05823  0  -0.088875  -0.1626  0  3.973134  0
C  C113  1  0.43272810  0.92763371  0.08337754  1  -0.011932  0  -0.007394  0.080955  0  3.959564  0
C  C114  1  0.64377163  0.94110160  0.84646461  1  -0.022814  0  -0.090614  -0.164465  0  3.975499  0
C  C115  1  0.56946283  0.94181337  0.91848518  1  -0.026903  0  -0.007768  0.07977  0  3.965347  0
C  C116  1  0.65661772  0.05457132  0.85946271  1  -0.048058  0  -0.088156  -0.160524  0  3.969593  0
C  C117  1  0.58303707  0.05571000  0.93229817  1  -0.002113  0  -0.00708  0.080141  0  3.960903  0
C  C118  1  0.31752231  0.99665134  0.18850487  1  -0.064989  0  -0.022014  -0.033986  0  4.01702  0
C  C119  1  0.46232833  0.99859033  0.03942434  1  0.024616  0  -0.006266  -0.02166  0  3.94475  0
C  C120  1  0.68754643  0.99729183  0.81654981  1  -0.019069  0  -0.022933  -0.035212  0  4.0132  0
C  C121  1  0.53916628  0.99892880  0.96216283  1  -0.033747  0  -0.006244  -0.021094  0  3.945635  0
C  C122  1  0.88569048  0.14428990  0.95089034  1  -0.025251  0  -0.153556  -0.183778  0  3.979994  0
C  C123  1  0.11495550  0.85262481  0.98287422  1  -0.026802  0  -0.156222  -0.188071  0  3.980347  0
C  C124  1  0.14546031  0.88438151  0.01916506  1  -0.046004  0  -0.154566  -0.183639  0  3.984102  0
C  C125  1  0.85445982  0.11500058  0.04929931  1  -0.004663  0  -0.154193  -0.186518  0  3.979538  0
C  C126  1  0.94128548  0.06603536  0.84768837  1  0.020695  0  -0.089418  -0.162079  0  3.972994  0
C  C127  1  0.94228363  0.06828833  0.91920845  1  -0.023292  0  -0.006763  0.080792  0  3.962094  0
C  C128  1  0.05505245  0.92699458  0.86068546  1  -0.004288  0  -0.092649  -0.170778  0  3.980758  0
C  C129  1  0.05617030  0.92699027  0.93334558  1  -0.054186  0  -0.008371  0.081168  0  3.960896  0
C  C130  1  0.06854502  0.94138500  0.14384858  1  -0.131817  0  -0.09023  -0.164437  0  3.975008  0
C  C131  1  0.07008154  0.94176436  0.06974756  1  -0.000761  0  -0.00742  0.080284  0  3.964515  0
C  C132  1  0.92950547  0.05531738  0.15630610  1  -0.056983  0  -0.087842  -0.160374  0  3.96844  0
C  C133  1  0.92902945  0.05612172  0.08293472  1  0.010217  0  -0.005922  0.081168  0  3.959609  0
C  C134  1  0.99752252  0.99588463  0.81791488  1  -0.065145  0  -0.023352  -0.034864  0  4.017709  0
C  C135  1  0.99950040  0.99810303  0.96283033  1  0.024367  0  -0.006579  -0.021953  0  3.942783  0
C  C136  1  0.99863895  0.99792022  0.18732885  1  0.050029  0  -0.022691  -0.035086  0  4.015694  0
C  C137  1  0.99963108  0.99886694  0.03943063  1  -0.017921  0  -0.006798  -0.021401  0  3.943584  0
C  C138  1  0.45178370  0.51861037  0.38471832  1  0.046862  0  -0.154682  -0.1836  0  3.981833  0
C  C139  1  0.48213172  0.54870342  0.61529210  1  -0.012436  0  -0.1543  -0.185175  0  3.976919  0
C  C140  1  0.51982708  0.45028059  0.64477762  1  0.026795  0  -0.15358  -0.184616  0  3.981102  0
C  C141  1  0.55033692  0.48209846  0.35313251  1  -0.036127  0  -0.15611  -0.188345  0  3.979861  0
C  C142  1  0.34682062  0.64307365  0.44202455  1  -0.02065  0  -0.08975  -0.163709  0  3.976079  0
C  C143  1  0.41914678  0.56908994  0.44222648  1  -0.020236  0  -0.007494  0.080696  0  3.964221  0
C  C144  1  0.35947182  0.65551391  0.55595104  1  -0.03256  0  -0.087678  -0.159918  0  3.966345  0
C  C145  1  0.43266104  0.58228625  0.55655989  1  -0.031852  0  -0.006247  0.081206  0  3.958279  0
C  C146  1  0.64538943  0.34674981  0.56681683  1  -0.057922  0  -0.089392  -0.16245  0  3.973554  0
C  C147  1  0.57079230  0.41844561  0.56890081  1  -0.004547  0  -0.006427  0.082081  0  3.962191  0
C  C148  1  0.65773974  0.35967931  0.42776887  1  -0.035516  0  -0.092203  -0.168233  0  3.977559  0
C  C149  1  0.58413123  0.43251225  0.42760163  1  -0.043192  0  -0.007963  0.080948  0  3.960198  0
C  C150  1  0.31658068  0.68645253  0.49869147  1  -0.018352  0  -0.022314  -0.034803  0  4.01526  0
C  C151  1  0.46283432  0.53878659  0.49929579  1  -0.046457  0  -0.006767  -0.022412  0  3.945298  0
C  C152  1  0.68902379  0.31687248  0.49674664  1  0.01144  0  -0.023924  -0.036784  0  4.019685  0
C  C153  1  0.54025484  0.46210942  0.49863072  1  0.003196  0  -0.00715  -0.022589  0  3.943287  0
C  C154  1  0.06441532  0.35215769  0.14940456  1  -0.042046  0  -0.069935  -0.124704  0  3.904842  0
C  C155  1  0.06504481  0.42520019  0.07504128  1  0.052485  0  -0.003858  0.075944  0  4.040102  0
C  C156  1  0.12982645  0.46360145  0.03548796  1  -0.037859  0  -0.068868  -0.119879  0  3.943996  0
C  C157  1  0.93834469  0.34950562  0.14905408  1  -0.117976  0  -0.085279  -0.163308  0  3.954053  0
C  C158  1  0.93383418  0.42475532  0.07690133  1  -0.037571  0  -0.006395  0.046365  0  4.023603  0
C  C159  1  0.86853486  0.46404189  0.03773265  1  -0.021098  0  -0.018476  -0.110919  0  4.004734  0
C  C160  1  0.93393949  0.64865013  0.85304509  1  0.025893  0  -0.068983  -0.124554  0  3.905288  0
C  C161  1  0.93467983  0.57425972  0.92602891  1  -0.004924  0  -0.004253  0.076059  0  4.040477  0
C  C162  1  0.87108517  0.53472435  0.96436769  1  -0.002712  0  -0.0686  -0.119111  0  3.943803  0
C  C163  1  0.06304367  0.64829321  0.85036727  1  -0.112952  0  -0.085041  -0.161695  0  3.952267  0
C  C164  1  0.06446567  0.57613218  0.92557257  1  0.020973  0  -0.006506  0.046481  0  4.022665  0
C  C165  1  0.12965757  0.53699275  0.96481493  1  -0.066112  0  -0.018022  -0.110011  0  4.003862  0
C  C166  1  0.00144184  0.31488584  0.18596501  1  0.040059  0  -0.013935  -0.020534  0  3.994648  0
C  C167  1  0.99895889  0.46304096  0.03853581  1  0.022434  0  0.009114  0.012164  0  3.903914  0
C  C168  1  0.99761257  0.68519700  0.81582770  1  0.020327  0  -0.014801  -0.021712  0  3.996416  0
C  C169  1  0.99944587  0.53773483  0.96385022  1  -0.065687  0  0.008412  0.010885  0  3.903834  0
C  C170  1  0.45205216  0.88423782  0.64597489  1  -0.044134  0  -0.154519  -0.18535  0  3.982542  0
C  C171  1  0.48097288  0.11372187  0.35472054  1  0.005993  0  -0.154107  -0.184869  0  3.984924  0
C  C172  1  0.51790033  0.14460901  0.38543452  1  -0.018537  0  -0.154742  -0.184587  0  3.981067  0
C  C173  1  0.55058105  0.85338015  0.61496157  1  -0.004914  0  -0.154529  -0.184788  0  3.983932  0
C  C174  1  0.34712558  0.93957369  0.56976831  1  -0.053686  0  -0.088332  -0.162269  0  3.972161  0
C  C175  1  0.41909257  0.94091472  0.57086710  1  0.021164  0  -0.007109  0.080575  0  3.960903  0
C  C176  1  0.35927778  0.05298439  0.43053310  1  -0.020244  0  -0.088913  -0.161811  0  3.974119  0
C  C177  1  0.43201738  0.05471462  0.42963785  1  -0.01983  0  -0.007952  0.07945  0  3.964168  0
C  C178  1  0.64369985  0.06831767  0.44072660  1  -0.001535  0  -0.08839  -0.161092  0  3.971028  0
C  C179  1  0.56926393  0.06946336  0.44209507  1  0.034248  0  -0.007172  0.080354  0  3.962241  0
C  C180  1  0.65734025  0.92909138  0.55416129  1  -0.081569  0  -0.088595  -0.160184  0  3.972777  0
C  C181  1  0.58373339  0.92823309  0.55591267  1  0.017178  0  -0.007108  0.079691  0  3.961937  0
C  C182  1  0.31683570  0.99550318  0.49998636  1  -0.019005  0  -0.02239  -0.03477  0  4.017298  0
C  C183  1  0.46223104  0.99834288  0.50017133  1  -0.05523  0  -0.006358  -0.020222  0  3.943724  0
C  C184  1  0.68781047  0.99856080  0.49667753  1  -0.042977  0  -0.022433  -0.035718  0  4.016276  0
C  C185  1  0.53932319  0.99882529  0.49957938  1  -0.048166  0  -0.006139  -0.02169  0  3.944231  0
C  C186  1  0.19842179  0.57320235  0.93389827  1  1.521432  0  0.228004  0.578865  0  4.1135  0
C  C187  1  0.79432100  0.43338690  0.07384566  1  1.492806  0  0.228031  0.579295  0  4.111665  0
O  O188  1  0.93771914  0.79605996  0.55804571  1  -1.18401  0  -0.359582  -0.621936  0  2.284463  0
O  O189  1  0.20814135  0.05675009  0.29735675  1  -1.182061  0  -0.360298  -0.622886  0  2.286283  0
O  O190  1  0.05909058  0.20559846  0.43890028  1  -1.185257  0  -0.360599  -0.624047  0  2.281817  0
O  O191  1  0.79623049  0.93793172  0.70679319  1  -1.183572  0  -0.36011  -0.62412  0  2.281569  0
O  O192  1  0.05717901  0.79423178  0.70789381  1  -1.172598  0  -0.350824  -0.610302  0  2.288441  0
O  O193  1  0.79641010  0.05909363  0.43749721  1  -1.191584  0  -0.358387  -0.620975  0  2.280557  0
O  O194  1  0.94080590  0.20687858  0.29504776  1  -1.180537  0  -0.35071  -0.610836  0  2.285908  0
O  O195  1  0.20697147  0.93626834  0.56037040  1  -1.182712  0  -0.358661  -0.621027  0  2.28099  0
O  O196  1  0.20678961  0.79480954  0.43955331  1  -1.178583  0  -0.359256  -0.622413  0  2.283622  0
O  O197  1  0.93862453  0.05666902  0.70784964  1  -1.182759  0  -0.358089  -0.620728  0  2.282961  0
O  O198  1  0.79698984  0.20668049  0.55771510  1  -1.182509  0  -0.357723  -0.62061  0  2.284526  0
O  O199  1  0.05886766  0.93833128  0.29605335  1  -1.179325  0  -0.358838  -0.621625  0  2.28355  0
O  O200  1  0.05617494  0.93514812  0.70964346  1  -1.193041  0  -0.361368  -0.625586  0  2.281068  0
O  O201  1  0.79918330  0.20844668  0.43619559  1  -1.182455  0  -0.36136  -0.626015  0  2.282295  0
O  O202  1  0.93887717  0.05750147  0.29664533  1  -1.17942  0  -0.360157  -0.622281  0  2.283634  0
O  O203  1  0.20707813  0.79542436  0.55867668  1  -1.186912  0  -0.359708  -0.622294  0  2.28255  0
O  O204  1  0.93703113  0.79503072  0.70778433  1  -1.174152  0  -0.348606  -0.610599  0  2.282319  0
O  O205  1  0.20835035  0.05459376  0.43977996  1  -1.184379  0  -0.360251  -0.622927  0  2.287978  0
O  O206  1  0.06030620  0.20672095  0.29579557  1  -1.17634  0  -0.348502  -0.611335  0  2.280727  0
O  O207  1  0.79730063  0.93853966  0.55585748  1  -1.183833  0  -0.360645  -0.62403  0  2.290215  0
O  O208  1  0.79711635  0.05660564  0.70773770  1  -1.184141  0  -0.358275  -0.621567  0  2.284054  0
O  O209  1  0.05662454  0.79681272  0.43775196  1  -1.185039  0  -0.358225  -0.621624  0  2.283644  0
O  O210  1  0.20877650  0.93648851  0.29806007  1  -1.185278  0  -0.358185  -0.622047  0  2.282152  0
O  O211  1  0.93863018  0.20653826  0.55762540  1  -1.184394  0  -0.358591  -0.620805  0  2.283656  0
O  O212  1  0.84305796  0.05237254  0.55195016  1  -1.23039  0  -0.695244  -1.066538  0  2.361517  0
O  O213  1  0.05264967  0.05078995  0.55348931  1  -1.228241  0  -0.695749  -1.068066  0  2.363229  0
O  O214  1  0.05337706  0.05150537  0.34327287  1  -1.22958  0  -0.695032  -1.067353  0  2.365415  0
O  O215  1  0.05182897  0.84212567  0.55268719  1  -1.225846  0  -0.695218  -1.068932  0  2.363217  0
O  O216  1  0.11614963  0.95996270  0.46227663  1  -1.199264  0  -0.793021  -1.146691  0  2.132714  0
O  O217  1  0.96160796  0.96111137  0.46115143  1  -1.197294  0  -0.793159  -1.14752  0  2.132455  0
O  O218  1  0.96241239  0.11477116  0.46154066  1  -1.201889  0  -0.791221  -1.149163  0  2.124039  0
O  O219  1  0.96127619  0.96044547  0.61588377  1  -1.196161  0  -0.791005  -1.149696  0  2.124674  0
O  O220  1  0.17378683  0.66061893  0.91136544  1  -1.138647  0  -0.341494  -0.480649  0  2.216453  0
O  O221  1  0.27238683  0.52895251  0.93160088  1  -1.118794  0  -0.292223  -0.458312  0  2.029902  0
O  O222  1  0.75416165  0.41063119  0.16127295  1  -1.111187  0  -0.341567  -0.480691  0  2.215433  0
O  O223  1  0.76665578  0.43158433  0.02949203  1  -1.110934  0  -0.292019  -0.458471  0  2.029188  0
