# generated using pymatgen
data_HgH10C11N2Cl2O
_symmetry_space_group_name_H-M   'P 1'
_cell_length_a   7.68648804
_cell_length_b   9.55347598
_cell_length_c   16.72900000
_cell_angle_alpha   90.00000000
_cell_angle_beta   101.47773393
_cell_angle_gamma   90.00000000
_symmetry_Int_Tables_number   1
_chemical_formula_structural   HgH10C11N2Cl2O
_chemical_formula_sum   'Hg4 H40 C44 N8 Cl8 O4'
_cell_volume   1203.88876869
_cell_formula_units_Z   4
loop_
 _symmetry_equiv_pos_site_id
 _symmetry_equiv_pos_as_xyz
  1  'x, y, z'
loop_
 _atom_site_type_symbol
 _atom_site_label
 _atom_site_symmetry_multiplicity
 _atom_site_fract_x
 _atom_site_fract_y
 _atom_site_fract_z
 _atom_site_occupancy
 _atom_site_hle17_bader_spin_density
 _atom_site_hle17_ddec_charge
 _atom_site_hle17_ddec_spin_density
 _atom_site_hle17_ddec_sum_bond_order
 _atom_site_hle17_magmom
 _atom_site_hse06_10hf_bader_spin_density
 _atom_site_hse06_10hf_ddec_charge
 _atom_site_hse06_10hf_ddec_spin_density
 _atom_site_hse06_10hf_ddec_sum_bond_order
 _atom_site_hse06_10hf_magmom
 _atom_site_hse06_bader_spin_density
 _atom_site_hse06_ddec_charge
 _atom_site_hse06_ddec_spin_density
 _atom_site_hse06_ddec_sum_bond_order
 _atom_site_hse06_magmom
 _atom_site_pbe_bader_charge
 _atom_site_pbe_bader_spin_density
 _atom_site_pbe_cm5_charge
 _atom_site_pbe_ddec_charge
 _atom_site_pbe_ddec_spin_density
 _atom_site_pbe_ddec_sum_bond_order
 _atom_site_pbe_magmom
Hg  Hg0  1  0.75371299  0.04068886  0.00484686  1  0  0.812322  0  2.067129  0  0  0.669848  0  2.566098  0  0  0.719269  0  2.52746  0  0.883354  0  0.517023  0.637378  0  2.589603  0
Hg  Hg1  1  0.74628545  0.54069221  0.49515288  1  0  0.812333  0  2.067126  0  0  0.669862  0  2.566104  0  0  0.719284  0  2.527463  0  0.883323  0  0.517029  0.637393  0  2.589608  0
Hg  Hg2  1  0.24628508  0.95931157  0.99515368  1  0  0.812333  0  2.06711  0  0  0.669862  0  2.566087  0  0  0.719282  0  2.527449  0  0.883315  0  0.517031  0.637391  0  2.589594  0
Hg  Hg3  1  0.25371395  0.45931136  0.50484659  1  0  0.812322  0  2.067108  0  0  0.669845  0  2.566091  0  0  0.719267  0  2.527451  0  0.883325  0  0.517023  0.637377  0  2.589595  0
H  H4  1  0.80673064  0.74028657  0.87866066  1  0  0.095943  0  0.984737  0  0  0.099524  0  1.060255  0  0  0.103088  0  1.057181  0  0.07548  0  0.091575  0.09632  0  1.063734  0
H  H5  1  0.69327577  0.24028532  0.62133981  1  0  0.09597  0  0.984734  0  0  0.09957  0  1.060229  0  0  0.103135  0  1.057153  0  0.075498  0  0.091576  0.096366  0  1.063708  0
H  H6  1  0.19326743  0.25971385  0.12134108  1  0  0.095962  0  0.984728  0  0  0.099549  0  1.06025  0  0  0.103115  0  1.057173  0  0.075495  0  0.091558  0.096345  0  1.063728  0
H  H7  1  0.30672497  0.75971196  0.37865799  1  0  0.095946  0  0.984751  0  0  0.099549  0  1.060259  0  0  0.103116  0  1.057178  0  0.075502  0  0.091558  0.096345  0  1.063738  0
H  H8  1  0.85860529  0.61778247  0.75243213  1  0  0.092336  0  0.967259  0  0  0.101472  0  1.031861  0  0  0.104172  0  1.03169  0  0.117113  0  0.093673  0.099421  0  1.032374  0
H  H9  1  0.64140245  0.11778121  0.74756965  1  0  0.092442  0  0.967257  0  0  0.101519  0  1.031908  0  0  0.104259  0  1.031695  0  0.117242  0  0.093685  0.099467  0  1.032422  0
H  H10  1  0.14139544  0.38221900  0.24757045  1  0  0.092377  0  0.967282  0  0  0.101515  0  1.031882  0  0  0.104211  0  1.031717  0  0.117106  0  0.093708  0.099463  0  1.032395  0
H  H11  1  0.35860094  0.88221711  0.25242958  1  0  0.092388  0  0.967257  0  0  0.101493  0  1.031892  0  0  0.104212  0  1.031701  0  0.117105  0  0.093687  0.09944  0  1.032406  0
H  H12  1  0.86388754  0.35900650  0.74822382  1  0  0.090389  0  0.951846  0  0  0.101114  0  1.014169  0  0  0.103646  0  1.012663  0  0.071385  0  0.098077  0.09933  0  1.015251  0
H  H13  1  0.63611754  0.85900462  0.75177831  1  0  0.090342  0  0.951872  0  0  0.101075  0  1.014197  0  0  0.103609  0  1.012691  0  0.071384  0  0.098047  0.09929  0  1.015279  0
H  H14  1  0.13611452  0.64099496  0.25177887  1  0  0.090407  0  0.951795  0  0  0.101136  0  1.014117  0  0  0.103664  0  1.01261  0  0.071487  0  0.098077  0.099351  0  1.015198  0
H  H15  1  0.36388452  0.14099266  0.24822140  1  0  0.09038  0  0.951788  0  0  0.101105  0  1.014127  0  0  0.103635  0  1.012617  0  0.071416  0  0.098041  0.099319  0  1.015209  0
H  H16  1  0.82079452  0.21885542  0.86823152  1  0  0.097558  0  0.995937  0  0  0.103136  0  1.069138  0  0  0.10644  0  1.067201  0  0.064322  0  0.087631  0.100204  0  1.071867  0
H  H17  1  0.67920658  0.71885354  0.63176846  1  0  0.097539  0  0.995917  0  0  0.103131  0  1.069124  0  0  0.106436  0  1.067185  0  0.064319  0  0.087648  0.100199  0  1.071854  0
H  H18  1  0.17920621  0.78114395  0.13176986  1  0  0.097594  0  0.9959  0  0  0.103174  0  1.069103  0  0  0.106478  0  1.067164  0  0.064207  0  0.087645  0.100242  0  1.071833  0
H  H19  1  0.32079282  0.28114270  0.36822981  1  0  0.097572  0  0.995905  0  0  0.103167  0  1.0691  0  0  0.106471  0  1.067161  0  0.064236  0  0.087648  0.100235  0  1.071829  0
H  H20  1  0.80396539  0.24965049  0.17148513  1  0  0.108033  0  0.934159  0  0  0.124873  0  0.992392  0  0  0.126878  0  0.991949  0  0.089452  0  0.097993  0.123254  0  0.993091  0
H  H21  1  0.69603438  0.74964861  0.32851473  1  0  0.108002  0  0.934184  0  0  0.12485  0  0.992409  0  0  0.126851  0  0.991976  0  0.089417  0  0.097982  0.123231  0  0.993109  0
H  H22  1  0.19603401  0.75035202  0.82851673  1  0  0.10802  0  0.934165  0  0  0.12487  0  0.992398  0  0  0.126877  0  0.991954  0  0.089428  0  0.097999  0.12325  0  0.9931  0
H  H23  1  0.30396503  0.25035181  0.67148235  1  0  0.108018  0  0.934183  0  0  0.124864  0  0.992419  0  0  0.126868  0  0.991977  0  0.089435  0  0.097995  0.123244  0  0.993119  0
H  H24  1  0.57375274  0.25600316  0.13284845  1  0  0.106484  0  0.949296  0  0  0.119603  0  1.015365  0  0  0.121516  0  1.014888  0  0.069799  0  0.0935  0.118092  0  1.015958  0
H  H25  1  0.92624570  0.75600232  0.36715069  1  0  0.106485  0  0.949286  0  0  0.119604  0  1.015362  0  0  0.121517  0  1.014884  0  0.0698  0  0.093495  0.118093  0  1.015956  0
H  H26  1  0.42624666  0.74399727  0.86715341  1  0  0.106468  0  0.949287  0  0  0.119582  0  1.015373  0  0  0.121493  0  1.014896  0  0.06979  0  0.093498  0.118072  0  1.015964  0
H  H27  1  0.07375370  0.24399915  0.63284638  1  0  0.106462  0  0.949258  0  0  0.119589  0  1.015333  0  0  0.1215  0  1.014857  0  0.069787  0  0.093497  0.118079  0  1.015925  0
H  H28  1  0.55088334  0.44119334  0.22538183  1  0  0.079285  0  0.961906  0  0  0.093518  0  1.026244  0  0  0.094279  0  1.027537  0  0.063836  0  0.084083  0.092721  0  1.025525  0
H  H29  1  0.94911510  0.94119355  0.27461850  1  0  0.079278  0  0.961926  0  0  0.093509  0  1.026266  0  0  0.094271  0  1.027556  0  0.063834  0  0.084091  0.092711  0  1.025548  0
H  H30  1  0.44911341  0.55880708  0.77461978  1  0  0.079315  0  0.961985  0  0  0.093543  0  1.026302  0  0  0.094306  0  1.02759  0  0.063859  0  0.084114  0.092747  0  1.025579  0
H  H31  1  0.05088563  0.05880791  0.72537989  1  0  0.079309  0  0.962003  0  0  0.093554  0  1.026312  0  0  0.094317  0  1.027601  0  0.063874  0  0.084112  0.092757  0  1.025592  0
H  H32  1  0.78266780  0.44189047  0.25893896  1  0  0.083207  0  0.968876  0  0  0.099083  0  1.031424  0  0  0.100234  0  1.031687  0  0.061637  0  0.081552  0.098  0  1.031412  0
H  H33  1  0.71733065  0.94189068  0.24106078  1  0  0.083185  0  0.968865  0  0  0.099059  0  1.031422  0  0  0.100209  0  1.031686  0  0.061627  0  0.081539  0.097977  0  1.031408  0
H  H34  1  0.21732895  0.55811100  0.74106266  1  0  0.083225  0  0.968906  0  0  0.099085  0  1.03144  0  0  0.10023  0  1.03171  0  0.061653  0  0.081572  0.098007  0  1.031423  0
H  H35  1  0.28267008  0.05811288  0.75893761  1  0  0.083259  0  0.96887  0  0  0.099124  0  1.031409  0  0  0.100274  0  1.031674  0  0.061778  0  0.081593  0.098041  0  1.031397  0
H  H36  1  0.56798461  0.64283932  0.14453161  1  0  0.076085  0  0.936268  0  0  0.088766  0  1.002234  0  0  0.088977  0  1.002694  0  0.090023  0  0.103535  0.088244  0  1.002414  0
H  H37  1  0.93201118  0.14283806  0.35546729  1  0  0.076066  0  0.936153  0  0  0.088753  0  1.002127  0  0  0.088963  0  1.002588  0  0.09007  0  0.103534  0.088243  0  1.002297  0
H  H38  1  0.43201214  0.35716319  0.85546941  1  0  0.076048  0  0.936201  0  0  0.088752  0  1.002146  0  0  0.088963  0  1.002606  0  0.090061  0  0.103529  0.088229  0  1.002329  0
H  H39  1  0.06798823  0.85716236  0.64453098  1  0  0.076049  0  0.936183  0  0  0.088755  0  1.002125  0  0  0.088966  0  1.002585  0  0.090073  0  0.103535  0.088232  0  1.002307  0
H  H40  1  0.79956064  0.64844984  0.18274599  1  0  0.077408  0  0.922329  0  0  0.096176  0  0.978658  0  0  0.096105  0  0.979195  0  0.06833  0  0.109368  0.095987  0  0.97861  0
H  H41  1  0.70043913  0.14844649  0.31725507  1  0  0.07736  0  0.922354  0  0  0.096135  0  0.978692  0  0  0.096065  0  0.97923  0  0.068434  0  0.109361  0.095946  0  0.978647  0
H  H42  1  0.20043876  0.35155372  0.81725587  1  0  0.077375  0  0.922298  0  0  0.096126  0  0.978661  0  0  0.096057  0  0.979199  0  0.068336  0  0.109343  0.095937  0  0.978615  0
H  H43  1  0.29956426  0.85155288  0.68274536  1  0  0.077358  0  0.922327  0  0  0.09612  0  0.978665  0  0  0.096051  0  0.979204  0  0.06843  0  0.109353  0.095931  0  0.978618  0
C  C44  1  0.72666054  0.38642166  0.07018567  1  0  0.420072  0  3.710181  0  0  0.389231  0  3.982432  0  0  0.41074  0  3.994088  0  1.151185  0  0.255396  0.375345  0  3.973749  0
C  C45  1  0.77333923  0.88641977  0.42981419  1  0  0.419973  0  3.710358  0  0  0.389105  0  3.982604  0  0  0.410614  0  3.994259  0  1.151063  0  0.25536  0.375221  0  3.973921  0
C  C46  1  0.27333753  0.61357981  0.92981607  1  0  0.419934  0  3.710218  0  0  0.389029  0  3.982552  0  0  0.410538  0  3.994209  0  1.152101  0  0.255283  0.37515  0  3.973859  0
C  C47  1  0.22666150  0.11357960  0.57018420  1  0  0.41995  0  3.710184  0  0  0.389041  0  3.982498  0  0  0.41055  0  3.994154  0  1.151974  0  0.255297  0.375162  0  3.973804  0
C  C48  1  0.74702090  0.62044852  0.01471800  1  0  0.506121  0  3.843705  0  0  0.457356  0  4.129351  0  0  0.487014  0  4.129487  0  1.331154  0  0.234576  0.437965  0  4.128485  0
C  C49  1  0.75298152  0.12045354  0.48528210  1  0  0.506268  0  3.84352  0  0  0.45747  0  4.129193  0  0  0.487123  0  4.129333  0  1.330894  0  0.234607  0.43808  0  4.128324  0
C  C50  1  0.25297850  0.37954876  0.98528386  1  0  0.506235  0  3.843502  0  0  0.457482  0  4.129116  0  0  0.48714  0  4.129252  0  1.331163  0  0.234644  0.438092  0  4.128251  0
C  C51  1  0.24701921  0.87954897  0.51471689  1  0  0.50624  0  3.843546  0  0  0.457489  0  4.129176  0  0  0.48714  0  4.129322  0  1.331182  0  0.234658  0.438096  0  4.128309  0
C  C52  1  0.77796169  0.54834596  0.94179220  1  0  -0.148469  0  3.755896  0  0  -0.13111  0  3.991905  0  0  -0.142867  0  4.015914  0  -0.008662  0  -0.02069  -0.123708  0  3.975956  0
C  C53  1  0.72204471  0.04834471  0.55820946  1  0  -0.148587  0  3.755866  0  0  -0.131275  0  3.991996  0  0  -0.143032  0  4.016004  0  -0.008655  0  -0.020693  -0.123868  0  3.976039  0
C  C54  1  0.22204037  0.45165550  0.05820930  1  0  -0.148576  0  3.755885  0  0  -0.131211  0  3.991967  0  0  -0.14297  0  4.015977  0  -0.008679  0  -0.020748  -0.123808  0  3.976017  0
C  C55  1  0.27795735  0.95165257  0.44178965  1  0  -0.148519  0  3.755794  0  0  -0.13122  0  3.991962  0  0  -0.142974  0  4.015971  0  -0.008626  0  -0.020675  -0.12381  0  3.976002  0
C  C56  1  0.80624742  0.62643796  0.87429225  1  0  -0.055858  0  3.734161  0  0  -0.077004  0  3.98149  0  0  -0.075019  0  4.001529  0  0.002349  0  -0.085349  -0.077927  0  3.968618  0
C  C57  1  0.69375899  0.12643670  0.62570881  1  0  -0.055877  0  3.734227  0  0  -0.077029  0  3.981552  0  0  -0.075048  0  4.001605  0  0.002317  0  -0.085389  -0.077953  0  3.968676  0
C  C58  1  0.19375331  0.37356246  0.12570913  1  0  -0.055977  0  3.734239  0  0  -0.077136  0  3.981589  0  0  -0.075153  0  4.001627  0  0.002382  0  -0.085386  -0.078059  0  3.968715  0
C  C59  1  0.30624174  0.87356058  0.37428958  1  0  -0.055865  0  3.734224  0  0  -0.07702  0  3.981567  0  0  -0.075038  0  4.00161  0  0.002272  0  -0.085375  -0.077944  0  3.96869  0
C  C60  1  0.83624832  0.55849515  0.80509665  1  0  -0.079185  0  3.744016  0  0  -0.093865  0  3.998406  0  0  -0.09939  0  4.020745  0  -0.158603  0  -0.09559  -0.090168  0  3.983401  0
C  C61  1  0.66376074  0.05849599  0.69490466  1  0  -0.079315  0  3.7442  0  0  -0.093928  0  3.99859  0  0  -0.099486  0  4.020911  0  -0.158769  0  -0.095557  -0.090232  0  3.983587  0
C  C62  1  0.16375507  0.44150422  0.19490557  1  0  -0.079204  0  3.744088  0  0  -0.093871  0  3.998457  0  0  -0.099391  0  4.020793  0  -0.158764  0  -0.095592  -0.090176  0  3.983459  0
C  C63  1  0.33624132  0.94150129  0.30509386  1  0  -0.079255  0  3.74412  0  0  -0.093888  0  3.998504  0  0  -0.099428  0  4.020832  0  -0.158775  0  -0.095587  -0.090193  0  3.983504  0
C  C64  1  0.83965875  0.41128067  0.80290921  1  0  -0.031755  0  3.743288  0  0  -0.05012  0  3.997546  0  0  -0.047296  0  4.016496  0  -0.00679  0  -0.08415  -0.051763  0  3.984644  0
C  C65  1  0.66034899  0.91127879  0.69709138  1  0  -0.031764  0  3.743348  0  0  -0.050136  0  3.997627  0  0  -0.047317  0  4.01659  0  -0.006733  0  -0.0842  -0.051779  0  3.984725  0
C  C66  1  0.16034597  0.58871870  0.19709194  1  0  -0.031803  0  3.743402  0  0  -0.050174  0  3.997686  0  0  -0.047344  0  4.016626  0  -0.00683  0  -0.084197  -0.051817  0  3.984781  0
C  C67  1  0.33965307  0.08871640  0.30290773  1  0  -0.0318  0  3.743388  0  0  -0.050181  0  3.997676  0  0  -0.047354  0  4.016627  0  -0.006739  0  -0.084165  -0.051823  0  3.984772  0
C  C68  1  0.81387144  0.33265379  0.86925197  1  0  -0.151542  0  3.705425  0  0  -0.168734  0  3.95749  0  0  -0.17524  0  3.976739  0  0.015209  0  -0.094539  -0.164637  0  3.945523  0
C  C69  1  0.68612966  0.83265505  0.63074802  1  0  -0.151419  0  3.705338  0  0  -0.168651  0  3.957467  0  0  -0.175155  0  3.976714  0  0.015221  0  -0.094504  -0.164553  0  3.945501  0
C  C70  1  0.18612664  0.66734454  0.13074977  1  0  -0.151576  0  3.705414  0  0  -0.168743  0  3.957518  0  0  -0.175249  0  3.976766  0  0.015286  0  -0.094497  -0.164644  0  3.945549  0
C  C71  1  0.31387107  0.16734223  0.36924978  1  0  -0.15156  0  3.705482  0  0  -0.168734  0  3.957577  0  0  -0.175239  0  3.976825  0  0.015308  0  -0.094521  -0.164635  0  3.945609  0
C  C72  1  0.78144912  0.39964825  0.93993758  1  0  0.232103  0  3.806719  0  0  0.223493  0  4.058466  0  0  0.234183  0  4.07943  0  0.375805  0  0.100726  0.216825  0  4.043693  0
C  C73  1  0.71855330  0.89964637  0.56006252  1  0  0.232151  0  3.806655  0  0  0.223549  0  4.05846  0  0  0.234239  0  4.079419  0  0.375722  0  0.100732  0.216879  0  4.043688  0
C  C74  1  0.21855161  0.60035321  0.06006380  1  0  0.232276  0  3.806506  0  0  0.223566  0  4.058384  0  0  0.234256  0  4.079344  0  0.375792  0  0.100762  0.216897  0  4.043613  0
C  C75  1  0.28144610  0.10035091  0.43993515  1  0  0.23224  0  3.806419  0  0  0.22356  0  4.058297  0  0  0.234248  0  4.079259  0  0.375814  0  0.100735  0.216888  0  4.043527  0
C  C76  1  0.69403113  0.32111140  0.14712828  1  0  -0.224249  0  3.660455  0  0  -0.263263  0  3.905238  0  0  -0.267402  0  3.914538  0  -0.02285  0  -0.157403  -0.260523  0  3.898783  0
C  C77  1  0.80596731  0.82110951  0.35287206  1  0  -0.224243  0  3.660506  0  0  -0.263269  0  3.905291  0  0  -0.26741  0  3.914593  0  -0.022832  0  -0.15742  -0.260534  0  3.898844  0
C  C78  1  0.30596827  0.67889112  0.85287418  1  0  -0.224145  0  3.660415  0  0  -0.263201  0  3.905244  0  0  -0.267339  0  3.914543  0  -0.023632  0  -0.157375  -0.260462  0  3.898789  0
C  C79  1  0.19403209  0.17889091  0.64712621  1  0  -0.224159  0  3.660391  0  0  -0.263201  0  3.905218  0  0  -0.267339  0  3.914518  0  -0.023638  0  -0.15738  -0.260464  0  3.898765  0
C  C80  1  0.67684225  0.44469783  0.20442575  1  0  -0.121975  0  3.615638  0  0  -0.160737  0  3.8674  0  0  -0.16198  0  3.879027  0  -0.038358  0  -0.165019  -0.159348  0  3.859065  0
C  C81  1  0.82315620  0.94469594  0.29557339  1  0  -0.121924  0  3.615653  0  0  -0.160682  0  3.867443  0  0  -0.161925  0  3.879069  0  -0.038378  0  -0.164989  -0.159293  0  3.859115  0
C  C82  1  0.32315583  0.55530469  0.79557539  1  0  -0.122088  0  3.615802  0  0  -0.160778  0  3.867467  0  0  -0.162019  0  3.879094  0  -0.038338  0  -0.165094  -0.159393  0  3.859132  0
C  C83  1  0.17684321  0.05530343  0.70442428  1  0  -0.122155  0  3.615847  0  0  -0.160901  0  3.867586  0  0  -0.162145  0  3.879212  0  -0.03848  0  -0.165146  -0.159512  0  3.859253  0
C  C84  1  0.68959452  0.57957858  0.15522465  1  0  0.026771  0  3.568274  0  0  -0.032245  0  3.823594  0  0  -0.026348  0  3.833339  0  0.263134  0  -0.05372  -0.036122  0  3.817159  0
C  C85  1  0.81040260  0.07957627  0.34477258  1  0  0.026813  0  3.568137  0  0  -0.032256  0  3.823475  0  0  -0.026363  0  3.833224  0  0.262995  0  -0.053742  -0.036143  0  3.817042  0
C  C86  1  0.31040356  0.42042289  0.84477530  1  0  0.026869  0  3.568127  0  0  -0.032182  0  3.823398  0  0  -0.026287  0  3.833146  0  0.263142  0  -0.053686  -0.03606  0  3.816971  0
C  C87  1  0.18959681  0.92042415  0.65522509  1  0  0.026941  0  3.568182  0  0  -0.032101  0  3.823446  0  0  -0.026207  0  3.833195  0  0.26303  0  -0.05365  -0.035975  0  3.817012  0
N  N88  1  0.75420683  0.31979250  0.00569002  1  0  -0.45851  0  3.131321  0  0  -0.412601  0  3.414519  0  0  -0.437324  0  3.429691  0  -1.23005  0  -0.325767  -0.394758  0  3.401544  0
N  N89  1  0.74579426  0.81979167  0.49430996  1  0  -0.458533  0  3.131392  0  0  -0.41262  0  3.414604  0  0  -0.437347  0  3.429782  0  -1.229971  0  -0.32578  -0.394771  0  3.401619  0
N  N90  1  0.24578991  0.68020792  0.99431219  1  0  -0.458506  0  3.131224  0  0  -0.412531  0  3.414461  0  0  -0.43726  0  3.429647  0  -1.2301  0  -0.325752  -0.394687  0  3.401474  0
N  N91  1  0.25420780  0.18020666  0.50568736  1  0  -0.458471  0  3.13107  0  0  -0.412508  0  3.414311  0  0  -0.437231  0  3.429483  0  -1.230069  0  -0.325741  -0.394665  0  3.401329  0
N  N92  1  0.72208852  0.52927437  0.07658575  1  0  -0.23302  0  3.400875  0  0  -0.144545  0  3.624749  0  0  -0.167581  0  3.644026  0  -1.254509  0  -0.236882  -0.130108  0  3.612016  0
N  N93  1  0.77791258  0.02927102  0.42341363  1  0  -0.232999  0  3.400773  0  0  -0.144407  0  3.624539  0  0  -0.167438  0  3.64381  0  -1.254038  0  -0.236821  -0.129972  0  3.61181  0
N  N94  1  0.27791088  0.47072814  0.92341551  1  0  -0.233037  0  3.400702  0  0  -0.144514  0  3.624552  0  0  -0.167545  0  3.643817  0  -1.254572  0  -0.236832  -0.130079  0  3.611817  0
N  N95  1  0.22208816  0.97072731  0.57658476  1  0  -0.233053  0  3.40085  0  0  -0.144485  0  3.624646  0  0  -0.167514  0  3.643915  0  -1.254463  0  -0.23684  -0.130051  0  3.611912  0
Cl  Cl96  1  0.99809838  0.02680176  0.11663300  1  0  -0.428388  0  1.106559  0  0  -0.363937  0  1.40038  0  0  -0.384999  0  1.382326  0  -0.469771  0  -0.215974  -0.349787  0  1.412505  0
Cl  Cl97  1  0.50190006  0.52680511  0.38336734  1  0  -0.428397  0  1.106545  0  0  -0.363953  0  1.400373  0  0  -0.385014  0  1.382318  0  -0.469767  0  -0.21598  -0.349802  0  1.412498  0
Cl  Cl98  1  0.00190368  0.97319447  0.88336611  1  0  -0.428396  0  1.106531  0  0  -0.36395  0  1.400351  0  0  -0.385012  0  1.382299  0  -0.469732  0  -0.215982  -0.3498  0  1.412476  0
Cl  Cl99  1  0.49809801  0.47319740  0.61663321  1  0  -0.428391  0  1.106533  0  0  -0.363946  0  1.400362  0  0  -0.385007  0  1.382307  0  -0.469733  0  -0.215976  -0.349798  0  1.412488  0
Cl  Cl100  1  0.51900532  0.01761453  0.88895301  1  0  -0.430228  0  1.120987  0  0  -0.367752  0  1.422041  0  0  -0.387985  0  1.40217  0  -0.469748  0  -0.215597  -0.354306  0  1.435012  0
Cl  Cl101  1  0.98099180  0.51761579  0.61104601  1  0  -0.430206  0  1.121  0  0  -0.367733  0  1.422064  0  0  -0.387964  0  1.402187  0  -0.469731  0  -0.215587  -0.354286  0  1.435031  0
Cl  Cl102  1  0.48099276  0.98238589  0.11104574  1  0  -0.430188  0  1.120984  0  0  -0.36772  0  1.422057  0  0  -0.387952  0  1.402181  0  -0.469747  0  -0.215581  -0.35427  0  1.43502  0
Cl  Cl103  1  0.01900362  0.48238568  0.38895429  1  0  -0.430217  0  1.120995  0  0  -0.367746  0  1.422062  0  0  -0.387976  0  1.402183  0  -0.469752  0  -0.215596  -0.354304  0  1.435041  0
O  O104  1  0.74122357  0.74847312  0.02472595  1  0  -0.540937  0  2.000585  0  0  -0.501259  0  2.251859  0  0  -0.523092  0  2.245721  0  -1.134224  0  -0.298024  -0.485911  0  2.254588  0
O  O105  1  0.75878151  0.24846873  0.47527500  1  0  -0.540934  0  2.000572  0  0  -0.501251  0  2.251871  0  0  -0.523083  0  2.245735  0  -1.134303  0  -0.298021  -0.485908  0  2.254599  0
O  O106  1  0.25877849  0.25152939  0.97527735  1  0  -0.540949  0  2.000531  0  0  -0.501276  0  2.251808  0  0  -0.523109  0  2.245671  0  -1.13422  0  -0.298042  -0.48593  0  2.254538  0
O  O107  1  0.24121789  0.75152751  0.52472567  1  0  -0.540989  0  2.000527  0  0  -0.501327  0  2.251832  0  0  -0.523161  0  2.245699  0  -1.134239  0  -0.298088  -0.485981  0  2.254559  0
