# generated using pymatgen
data_Zn2H13C30N2Cl5O14
_symmetry_space_group_name_H-M   'P 1'
_cell_length_a   9.83614388
_cell_length_b   10.85308666
_cell_length_c   10.85103670
_cell_angle_alpha   85.01115206
_cell_angle_beta   90.05458091
_cell_angle_gamma   87.90339354
_symmetry_Int_Tables_number   1
_chemical_formula_structural   Zn2H13C30N2Cl5O14
_chemical_formula_sum   'Zn2 H13 C30 N2 Cl5 O14'
_cell_volume   1153.20472874
_cell_formula_units_Z   1
loop_
 _symmetry_equiv_pos_site_id
 _symmetry_equiv_pos_as_xyz
  1  'x, y, z'
loop_
 _atom_site_type_symbol
 _atom_site_label
 _atom_site_symmetry_multiplicity
 _atom_site_fract_x
 _atom_site_fract_y
 _atom_site_fract_z
 _atom_site_occupancy
 _atom_site_pbe_bader_charge
 _atom_site_pbe_bader_spin_density
 _atom_site_pbe_cm5_charge
 _atom_site_pbe_ddec_charge
 _atom_site_pbe_ddec_spin_density
 _atom_site_pbe_ddec_sum_bond_order
 _atom_site_pbe_magmom
Zn  Zn0  1  0.35458860  0.49916120  0.50327988  1  1.294897  0  0.675584  0.853664  0  2.326536  0
Zn  Zn1  1  0.64585195  0.48925670  0.52442935  1  1.311172  0  0.676882  0.885961  0  2.232764  0
H  H2  1  0.14802189  0.81743781  0.89261104  1  0.102169  0  0.098334  0.121122  0  1.032417  0
H  H3  1  0.25474180  0.68645552  0.33495576  1  0.651849  0  0.320527  0.363289  0  0.92859  0
H  H4  1  0.29242781  0.80906932  0.65295526  1  0.645856  0  0.297104  0.342562  0  0.969408  0
H  H5  1  0.70154748  0.28450109  0.09492024  1  0.608869  0  0.299634  0.32344  0  0.9712  0
H  H6  1  0.21088290  0.96415186  0.02209885  1  0.617505  0  0.341682  0.372286  0  0.864025  0
H  H7  1  0.09521064  0.92421189  0.49765604  1  0.102892  0  0.117399  0.150799  0  0.991074  0
H  H8  1  0.14514410  0.32457904  0.44422387  1  0.161147  0  0.130337  0.125204  0  1.009418  0
H  H9  1  0.43468801  0.93168474  0.29469946  1  0.113946  0  0.103183  0.114611  0  1.006397  0
H  H10  1  0.25783262  0.07963531  0.42909048  1  0.085049  0  0.100788  0.105019  0  0.989829  0
H  H11  1  0.70685087  0.91255771  0.57102194  1  0.094114  0  0.083238  0.093366  0  1.087603  0
H  H12  1  0.42898028  0.74822981  0.19504819  1  0.11104  0  0.108094  0.133064  0  1.013038  0
H  H13  1  0.72754974  0.02417440  0.31102599  1  0.594043  0  0.331821  0.360562  0  0.878855  0
H  H14  1  0.76566184  0.74153339  0.73904866  1  0.61183  0  0.32679  0.358553  0  0.891444  0
C  C15  1  0.52340625  0.52723984  0.27650432  1  1.558012  0  0.219388  0.634843  0  4.107564  0
C  C16  1  0.42867603  0.60752809  0.06474942  1  0.037496  0  0.001896  0.114964  0  3.992083  0
C  C17  1  0.51722055  0.52309418  0.13913537  1  0.075224  0  -0.033453  -0.201641  0  3.895172  0
C  C18  1  0.49560961  0.73144058  0.51663131  1  1.574323  0  0.211137  0.607985  0  4.146764  0
C  C19  1  0.58411319  0.42648501  0.08492316  1  0.528869  0  0.086832  0.253752  0  4.087504  0
C  C20  1  0.56141421  0.41373928  0.95691269  1  0.063223  0  -0.002012  -0.006902  0  4.022445  0
C  C21  1  0.46338775  0.48282352  0.88672917  1  0.034707  0  -0.010037  -0.075104  0  3.883729  0
C  C22  1  0.88886061  0.69348825  0.61439984  1  0.652114  0  0.0698  0.144754  0  4.132745  0
C  C23  1  0.95445256  0.80610531  0.59967678  1  0.061774  0  0.000932  0.028446  0  4.114545  0
C  C24  1  0.05422117  0.83235913  0.50951685  1  0.098657  0  -0.102419  -0.245767  0  3.981191  0
C  C25  1  0.11100348  0.73759865  0.44617190  1  0.555218  0  0.086482  0.256473  0  4.087859  0
C  C26  1  0.50735112  0.02854180  0.61625819  1  0.116628  0  0.016026  0.091696  0  3.691911  0
C  C27  1  0.06230867  0.61675526  0.47561061  1  0.485447  0  0.10252  0.042741  0  3.996013  0
C  C28  1  0.93581990  0.59961295  0.54009613  1  0.452135  0  0.112245  0.116667  0  3.918951  0
C  C29  1  0.94004030  0.39849909  0.48517503  1  0.725292  0  0.160445  0.242248  0  4.060708  0
C  C30  1  0.46682417  0.47208768  0.74754922  1  1.629016  0  0.2113  0.607395  0  4.162697  0
C  C31  1  0.08115289  0.40622803  0.45817143  1  0.577177  0  0.063457  0.006628  0  3.870385  0
C  C32  1  0.47715801  0.25953938  0.49849940  1  1.570762  0  0.218259  0.632051  0  4.129474  0
C  C33  1  0.45604339  0.96008647  0.38668386  1  -0.081617  0  -0.078446  -0.131678  0  3.61054  0
C  C34  1  0.57778037  0.03971266  0.42334639  1  0.59604  0  0.08652  0.302104  0  3.728029  0
C  C35  1  0.47689347  0.12193214  0.49791067  1  0.013547  0  -0.007965  -0.106153  0  3.601222  0
C  C36  1  0.35687704  0.04090738  0.46194328  1  -0.056042  0  -0.085605  -0.125852  0  3.640791  0
C  C37  1  0.60677598  0.94933125  0.54104102  1  -0.055817  0  -0.102113  -0.194209  0  3.696349  0
C  C38  1  0.38496006  0.94843494  0.58029850  1  0.61195  0  0.079191  0.255613  0  3.739265  0
C  C39  1  0.48683270  0.86886102  0.50656654  1  -0.037556  0  -0.019619  -0.08946  0  3.695287  0
C  C40  1  0.38676231  0.72159473  0.10915664  1  0.003196  0  -0.119826  -0.283136  0  3.960691  0
C  C41  1  0.29622512  0.80164777  0.04269581  1  0.410908  0  0.075557  0.336694  0  4.128126  0
C  C42  1  0.23250166  0.76294861  0.93727344  1  -0.009944  0  -0.121339  -0.305834  0  4.035348  0
C  C43  1  0.27457578  0.65344864  0.89089098  1  0.027523  0  0.016418  0.136614  0  4.003606  0
C  C44  1  0.38637788  0.57789486  0.94349665  1  0.112842  0  -0.015975  -0.032844  0  3.927249  0
N  N45  1  0.86970032  0.49031321  0.53145567  1  -1.183345  0  -0.281771  -0.250239  0  3.34773  0
N  N46  1  0.13856782  0.51462466  0.45028173  1  -1.233032  0  -0.293563  -0.186955  0  3.478793  0
Cl  Cl47  1  0.17070094  0.60886305  0.77468716  1  -0.206983  0  0.006068  -0.054666  0  1.701606  0
Cl  Cl48  1  0.66567968  0.30309916  0.89404574  1  -0.203813  0  0.016046  -0.047935  0  1.663889  0
Cl  Cl49  1  0.86413453  0.26633882  0.45480147  1  -0.089171  0  0.071983  0.008142  0  1.648758  0
Cl  Cl50  1  0.91430059  0.91541630  0.70194495  1  -0.204166  0  0.036465  -0.039043  0  1.593175  0
Cl  Cl51  1  0.53668491  0.06764549  0.76558858  1  -0.22511  0  -0.05616  -0.121992  0  1.50257  0
O  O52  1  0.41254011  0.56229900  0.32851855  1  -1.18357  0  -0.326061  -0.599544  0  2.402749  0
O  O53  1  0.79255638  0.66661656  0.69975372  1  -1.102435  0  -0.327434  -0.378747  0  2.391513  0
O  O54  1  0.20928241  0.76216123  0.36190707  1  -1.142898  0  -0.331483  -0.404258  0  2.335329  0
O  O55  1  0.29139833  0.89855650  0.66280738  1  -1.179987  0  -0.384967  -0.489473  0  2.306722  0
O  O56  1  0.66883198  0.34539317  0.15111968  1  -1.12444  0  -0.337641  -0.395362  0  2.371565  0
O  O57  1  0.26566486  0.91492015  0.08445337  1  -1.128734  0  -0.351931  -0.447851  0  2.240286  0
O  O58  1  0.63169602  0.49070506  0.33417609  1  -1.138854  0  -0.308046  -0.524382  0  2.311421  0
O  O59  1  0.38818445  0.67576926  0.55468550  1  -1.173803  0  -0.319061  -0.582494  0  2.394516  0
O  O60  1  0.60784705  0.68001130  0.48929128  1  -1.161854  0  -0.312163  -0.533789  0  2.327229  0
O  O61  1  0.36569921  0.43587516  0.69009170  1  -1.159549  0  -0.317436  -0.546176  0  2.342766  0
O  O62  1  0.57983434  0.50400823  0.70050684  1  -1.147992  0  -0.308931  -0.53691  0  2.402117  0
O  O63  1  0.36966046  0.32076919  0.45939997  1  -1.167482  0  -0.318693  -0.545959  0  2.298977  0
O  O64  1  0.58353140  0.30495476  0.53915478  1  -1.159298  0  -0.313067  -0.563324  0  2.367106  0
O  O65  1  0.67541501  0.09177320  0.34443292  1  -1.120967  0  -0.373146  -0.475635  0  2.26368  0
