# generated using pymatgen
data_AlH5C9ClO6
_symmetry_space_group_name_H-M   'P 1'
_cell_length_a   6.68664682
_cell_length_b   8.91753175
_cell_length_c   15.34903590
_cell_angle_alpha   78.32082209
_cell_angle_beta   77.11276851
_cell_angle_gamma   74.15312691
_symmetry_Int_Tables_number   1
_chemical_formula_structural   AlH5C9ClO6
_chemical_formula_sum   'Al2 H10 C18 Cl2 O12'
_cell_volume   848.44580122
_cell_formula_units_Z   2
loop_
 _symmetry_equiv_pos_site_id
 _symmetry_equiv_pos_as_xyz
  1  'x, y, z'
loop_
 _atom_site_type_symbol
 _atom_site_label
 _atom_site_symmetry_multiplicity
 _atom_site_fract_x
 _atom_site_fract_y
 _atom_site_fract_z
 _atom_site_occupancy
 _atom_site_pbe_bader_charge
 _atom_site_pbe_bader_spin_density
 _atom_site_pbe_cm5_charge
 _atom_site_pbe_ddec_charge
 _atom_site_pbe_ddec_spin_density
 _atom_site_pbe_ddec_sum_bond_order
 _atom_site_pbe_magmom
Al  Al0  1  0.50002949  0.49996619  0.50000508  1  2.506097  0  0.40258  1.643831  0  2.568932  0
Al  Al1  1  0.00001234  0.50000970  0.49999547  1  2.504367  0  0.39738  1.650039  0  2.566344  0
H  H2  1  0.27605526  0.32138869  0.57454943  1  0.625797  0  0.355605  0.436883  0  0.844583  0
H  H3  1  0.72396929  0.67862585  0.42545883  1  0.625863  0  0.355567  0.436891  0  0.844464  0
H  H4  1  0.16483469  0.44956956  0.06760335  1  0.074092  0  0.105455  0.122229  0  1.018811  0
H  H5  1  0.83500909  0.55062782  0.93239095  1  0.074335  0  0.105537  0.122318  0  1.018547  0
H  H6  1  0.30823186  0.47543532  0.77378970  1  0.129744  0  0.105064  0.114704  0  1.030161  0
H  H7  1  0.22366657  0.46514466  0.93763747  1  0.069145  0  0.097854  0.099004  0  1.03484  0
H  H8  1  0.69182137  0.52446766  0.22618483  1  0.130347  0  0.10506  0.114905  0  1.030586  0
H  H9  1  0.77635570  0.53474034  0.06233367  1  0.069091  0  0.097854  0.098714  0  1.035321  0
H  H10  1  0.03596606  0.44105693  0.30132189  1  0.656199  0  0.314149  0.358647  0  0.960454  0
H  H11  1  0.96399096  0.55903303  0.69867518  1  0.656559  0  0.314114  0.35871  0  0.95998  0
C  C12  1  0.66797178  0.51094066  0.66159667  1  1.482094  0  0.259263  0.649928  0  4.087926  0
C  C13  1  0.83963334  0.21758850  0.51242374  1  1.670252  0  0.268486  0.650916  0  4.110922  0
C  C14  1  0.33204558  0.48904412  0.33840748  1  1.481922  0  0.259095  0.649295  0  4.087546  0
C  C15  1  0.16042562  0.78239103  0.48759181  1  1.668826  0  0.268903  0.651377  0  4.110481  0
C  C16  1  0.09599502  0.95897279  0.48125513  1  0.081277  0  0.013382  -0.039795  0  3.947068  0
C  C17  1  0.90399980  0.04101525  0.51876205  1  0.145172  0  0.013398  -0.039761  0  3.947392  0
C  C18  1  0.38158166  0.48543569  0.24076172  1  0.005636  0  -0.04074  -0.210148  0  4.003264  0
C  C19  1  0.61842956  0.51454443  0.75922381  1  0.00487  0  -0.040847  -0.210799  0  4.003613  0
C  C20  1  0.23440930  0.46249911  0.19373937  1  0.518895  0  0.095404  0.325764  0  4.06466  0
C  C21  1  0.28392619  0.46788245  0.09979230  1  0.031529  0  -0.102609  -0.254954  0  3.916683  0
C  C22  1  0.76550456  0.53757263  0.80626661  1  0.518559  0  0.095647  0.326261  0  4.064003  0
C  C23  1  0.71594775  0.53221294  0.90021372  1  0.032239  0  -0.102719  -0.25514  0  3.917007  0
C  C24  1  0.42353603  0.49006980  0.80945456  1  -0.017653  0  -0.08032  -0.049115  0  4.000784  0
C  C25  1  0.37642647  0.48510613  0.90218136  1  -0.066104  0  -0.104122  -0.164527  0  3.99215  0
C  C26  1  0.57649423  0.50987067  0.19054860  1  -0.018871  0  -0.080241  -0.049526  0  4.001354  0
C  C27  1  0.62355728  0.51487353  0.09781929  1  -0.065958  0  -0.104088  -0.164032  0  3.991972  0
C  C28  1  0.47635644  0.49560881  0.04992920  1  -0.004383  0  0.006024  0.105892  0  3.987173  0
C  C29  1  0.52358931  0.50439801  0.95006187  1  -0.053336  0  0.006081  0.106185  0  3.987814  0
Cl  Cl30  1  0.29071163  0.04982691  0.42043081  1  -0.138256  0  0.038718  0.008284  0  1.573412  0
Cl  Cl31  1  0.70931296  0.95018747  0.57957877  1  -0.138245  0  0.038837  0.008408  0  1.573843  0
O  O32  1  0.53313354  0.48663881  0.62255079  1  -1.262953  0  -0.236354  -0.585374  0  2.343813  0
O  O33  1  0.97467098  0.28549635  0.52275994  1  -1.251091  0  -0.228928  -0.583148  0  2.378327  0
O  O34  1  0.14675145  0.47039395  0.38017692  1  -1.271685  0  -0.244792  -0.625939  0  2.414944  0
O  O35  1  0.34664872  0.71666878  0.50122179  1  -1.246691  0  -0.226521  -0.577015  0  2.354902  0
O  O36  1  0.46693139  0.51328945  0.37745455  1  -1.262686  0  -0.236119  -0.585037  0  2.343775  0
O  O37  1  0.02543790  0.71447121  0.47724518  1  -1.250712  0  -0.229182  -0.583435  0  2.378721  0
O  O38  1  0.85322427  0.52961976  0.61982244  1  -1.271683  0  -0.24472  -0.625959  0  2.414979  0
O  O39  1  0.65344736  0.28328630  0.49877185  1  -1.247612  0  -0.226315  -0.576833  0  2.355384  0
O  O40  1  0.25181692  0.43029521  0.54520302  1  -1.427098  0  -0.449404  -0.988425  0  2.169866  0
O  O41  1  0.74821256  0.56970419  0.45478573  1  -1.42704  0  -0.449339  -0.988332  0  2.169473  0
O  O42  1  0.04452280  0.43602924  0.23602653  1  -1.170315  0  -0.346017  -0.440812  0  2.302335  0
O  O43  1  0.95538310  0.56410928  0.76399646  1  -1.170531  0  -0.346078  -0.441079  0  2.301286  0
