# generated using pymatgen
data_ZnH7C11BrO4
_symmetry_space_group_name_H-M   'P 1'
_cell_length_a   18.73973388
_cell_length_b   18.71704383
_cell_length_c   18.67381837
_cell_angle_alpha   109.64630443
_cell_angle_beta   109.13792687
_cell_angle_gamma   109.64152648
_symmetry_Int_Tables_number   1
_chemical_formula_structural   ZnH7C11BrO4
_chemical_formula_sum   'Zn6 H42 C66 Br6 O24'
_cell_volume   5041.25437397
_cell_formula_units_Z   6
loop_
 _symmetry_equiv_pos_site_id
 _symmetry_equiv_pos_as_xyz
  1  'x, y, z'
loop_
 _atom_site_type_symbol
 _atom_site_label
 _atom_site_symmetry_multiplicity
 _atom_site_fract_x
 _atom_site_fract_y
 _atom_site_fract_z
 _atom_site_occupancy
 _atom_site_pbe_bader_charge
 _atom_site_pbe_bader_spin_density
 _atom_site_pbe_cm5_charge
 _atom_site_pbe_ddec_charge
 _atom_site_pbe_ddec_spin_density
 _atom_site_pbe_ddec_sum_bond_order
 _atom_site_pbe_magmom
Zn  Zn0  1  0.05076550  0.49546740  0.05792031  1  1.306442  0  0.717069  0.948941  0  2.155909  0
Zn  Zn1  1  0.93080179  0.49747565  0.92991906  1  1.311078  0  0.720057  0.958231  0  2.126789  0
Zn  Zn2  1  0.93334263  0.93709829  0.50431253  1  1.298934  0  0.717703  0.948055  0  2.128588  0
Zn  Zn3  1  0.05987982  0.06485629  0.50913832  1  1.305087  0  0.717474  0.946059  0  2.168012  0
Zn  Zn4  1  0.50270322  0.93460169  0.93936336  1  1.303408  0  0.719887  0.943654  0  2.147812  0
Zn  Zn5  1  0.49937448  0.05956476  0.06203429  1  1.309568  0  0.721465  0.949035  0  2.156275  0
H  H6  1  0.89926432  0.20934878  0.62959467  1  0.081417  0  0.093814  0.085996  0  1.013027  0
H  H7  1  0.34515797  0.93491295  0.15964692  1  0.055916  0  0.098636  0.110134  0  0.977965  0
H  H8  1  0.27723730  0.77240703  0.18058523  1  0.051999  0  0.099138  0.111316  0  0.978707  0
H  H9  1  0.21836025  0.82646630  0.15540077  1  0.03051  0  0.092137  0.098137  0  1.002286  0
H  H10  1  0.97297056  0.59579744  0.26124730  1  0.096314  0  0.112294  0.118541  0  0.978271  0
H  H11  1  0.94904642  0.69698722  0.36362982  1  0.099686  0  0.106535  0.115122  0  0.986323  0
H  H12  1  0.10030238  0.83442025  0.17738758  1  0.096255  0  0.102655  0.10086  0  0.982852  0
H  H13  1  0.68343410  0.34565343  0.94507258  1  0.069997  0  0.111986  0.11803  0  0.980956  0
H  H14  1  0.05904077  0.36284053  0.77153001  1  0.063782  0  0.101218  0.088957  0  0.984766  0
H  H15  1  0.58220115  0.22311192  0.94905179  1  0.078868  0  0.109276  0.113617  0  0.984264  0
H  H16  1  0.80183899  0.09939564  0.99066423  1  0.079565  0  0.09735  0.079335  0  0.987288  0
H  H17  1  0.86990218  0.18722903  0.89810783  1  0.09141  0  0.105194  0.103324  0  0.974039  0
H  H18  1  0.92279600  0.09687919  0.28645848  1  0.098168  0  0.104634  0.115867  0  1.003028  0
H  H19  1  0.61392864  0.03406529  0.32589621  1  0.062261  0  0.099117  0.124714  0  0.985928  0
H  H20  1  0.56586503  0.92615796  0.23575121  1  0.039766  0  0.098097  0.119235  0  0.981072  0
H  H21  1  0.13264108  0.25555730  0.78599160  1  0.058464  0  0.097513  0.091469  0  1.01211  0
H  H22  1  0.30465404  0.12156803  0.92171736  1  0.110233  0  0.108889  0.117668  0  0.992937  0
H  H23  1  0.37527156  0.92723809  0.70065713  1  0.077192  0  0.103676  0.137579  0  0.96556  0
H  H24  1  0.28487337  0.84193647  0.69054380  1  0.086085  0  0.103245  0.136706  0  0.969385  0
H  H25  1  0.91755463  0.08782422  0.76862341  1  0.073166  0  0.097751  0.093514  0  0.989085  0
H  H26  1  0.84514251  0.19703842  0.75220406  1  0.071833  0  0.098038  0.08699  0  0.994453  0
H  H27  1  0.11856598  0.59779261  0.82917001  1  0.067021  0  0.106995  0.111398  0  0.989629  0
H  H28  1  0.24972234  0.69992298  0.83709888  1  0.073432  0  0.107377  0.112095  0  0.99063  0
H  H29  1  0.40533299  0.88286159  0.18721118  1  0.065472  0  0.095192  0.102002  0  0.999272  0
H  H30  1  0.16161795  0.95666340  0.32914028  1  0.0557  0  0.093833  0.138206  0  0.985748  0
H  H31  1  0.12199870  0.99906125  0.26195781  1  0.047707  0  0.093579  0.14017  0  0.984977  0
H  H32  1  0.09976140  0.00708617  0.34954333  1  0.077953  0  0.09214  0.149122  0  1.007157  0
H  H33  1  0.78573169  0.00392007  0.84818232  1  0.023459  0  0.091321  0.124278  0  0.994866  0
H  H34  1  0.68076871  0.97395810  0.83898991  1  0.0584  0  0.09274  0.135376  0  0.999766  0
H  H35  1  0.71783814  0.03730951  0.79284797  1  0.021557  0  0.089409  0.119997  0  0.999374  0
H  H36  1  0.76558600  0.07631383  0.09518876  1  0.057914  0  0.091533  0.136005  0  1.012288  0
H  H37  1  0.82846103  0.18325440  0.18769980  1  0.048602  0  0.097159  0.138058  0  0.981285  0
H  H38  1  0.87855414  0.11955088  0.16616139  1  0.032795  0  0.093622  0.13165  0  1.000925  0
H  H39  1  0.64232247  0.83643776  0.25186837  1  0.01575  0  0.097443  0.141889  0  0.976415  0
H  H40  1  0.72082018  0.86749632  0.35796493  1  0.081177  0  0.091849  0.1467  0  1.003445  0
H  H41  1  0.61299919  0.84655005  0.33522505  1  0.036259  0  0.091001  0.13531  0  0.992534  0
H  H42  1  0.12396448  0.10539628  0.78301880  1  0.044349  0  0.099754  0.147178  0  0.97637  0
H  H43  1  0.22687465  0.18972355  0.87694682  1  0.05784  0  0.097342  0.134605  0  0.996156  0
H  H44  1  0.20035600  0.18221759  0.77299483  1  0.053168  0  0.096503  0.136684  0  1.003476  0
H  H45  1  0.10956121  0.18581865  0.91678773  1  0.016341  0  0.086026  0.117615  0  1.016922  0
H  H46  1  0.15471072  0.30190104  0.97385265  1  0.024932  0  0.090174  0.131525  0  0.992029  0
H  H47  1  0.05828409  0.23222892  0.96729308  1  0.057543  0  0.077533  0.114732  0  1.057405  0
C  C48  1  0.08884025  0.60670421  0.96730386  1  1.562641  0  0.22431  0.618803  0  4.133836  0
C  C49  1  0.94943826  0.14919064  0.76935677  1  -0.049967  0  -0.080754  -0.114006  0  3.632141  0
C  C50  1  0.90901667  0.20857935  0.75947772  1  -0.040768  0  -0.07679  -0.065882  0  3.656103  0
C  C51  1  0.99829315  0.29208722  0.83775838  1  0.020795  0  -0.009872  -0.071924  0  3.636359  0
C  C52  1  0.22930862  0.74782370  0.04440166  1  -0.006358  0  -0.006955  0.051624  0  3.889376  0
C  C53  1  0.16192630  0.67091474  0.96697864  1  -0.003752  0  -0.005039  -0.052678  0  3.957638  0
C  C54  1  0.17030198  0.65640790  0.89173291  1  0.015646  0  -0.084032  -0.110141  0  3.979944  0
C  C55  1  0.24421549  0.71437273  0.89605184  1  -0.013592  0  -0.081287  -0.09548  0  3.977365  0
C  C56  1  0.31169334  0.79254894  0.97476391  1  -0.023025  0  -0.015757  -0.079934  0  3.983533  0
C  C57  1  0.30051624  0.80795317  0.04770747  1  -0.018574  0  -0.004196  0.064089  0  3.885089  0
C  C58  1  0.34120783  0.87123847  0.14446442  1  -0.041192  0  -0.150036  -0.194814  0  3.878742  0
C  C59  1  0.00666745  0.36914972  0.90512782  1  1.498274  0  0.21693  0.60651  0  4.144042  0
C  C60  1  0.26090627  0.80252054  0.14099778  1  -0.028197  0  -0.15058  -0.194319  0  3.872025  0
C  C61  1  0.00753064  0.75005423  0.20185230  1  0.016232  0  -0.008735  0.029663  0  3.908946  0
C  C62  1  0.00006717  0.67248052  0.19961031  1  -0.023076  0  -0.000777  -0.03064  0  3.926663  0
C  C63  1  0.97989664  0.65577400  0.26058286  1  -0.04306  0  -0.074608  -0.096693  0  3.94648  0
C  C64  1  0.96735732  0.71344836  0.31921405  1  0.006302  0  -0.074815  -0.085602  0  3.959418  0
C  C65  1  0.98023244  0.79393272  0.32448196  1  0.024568  0  -0.006577  -0.044815  0  3.941757  0
C  C66  1  0.00122208  0.81022000  0.26431705  1  -0.01765  0  -0.005204  -6.8e-05  0  3.878629  0
C  C67  1  0.02424621  0.87749974  0.23555233  1  0.040454  0  0.011333  0.18741  0  3.698305  0
C  C68  1  0.03294295  0.80873980  0.16507544  1  -0.025288  0  -0.070688  -0.053425  0  3.737966  0
C  C69  1  0.78889639  0.23095751  0.94722539  1  -0.029449  0  -0.012644  0.004829  0  3.922329  0
C  C70  1  0.84406830  0.37905249  0.95975338  1  1.554416  0  0.220434  0.610079  0  4.14704  0
C  C71  1  0.77570817  0.30049394  0.94902304  1  -0.003376  0  -0.003576  -0.036087  0  3.951755  0
C  C72  1  0.69707995  0.29337972  0.94481196  1  0.01171  0  -0.079049  -0.104691  0  3.967357  0
C  C73  1  0.63905420  0.22334681  0.94513235  1  0.018036  0  -0.075355  -0.084959  0  3.961322  0
C  C74  1  0.65231822  0.15268584  0.94155200  1  -0.000685  0  -0.011021  -0.062802  0  3.969017  0
C  C75  1  0.72686274  0.15699157  0.93878157  1  -0.03398  0  0.000705  0.032182  0  3.869917  0
C  C76  1  0.77863814  0.10951149  0.93470144  1  0.01537  0  -0.07791  0.006796  0  3.848043  0
C  C77  1  0.85038047  0.19537572  0.94828995  1  -0.02359  0  -0.060714  -0.010736  0  3.700946  0
C  C78  1  0.90798026  0.03173266  0.39437875  1  1.520418  0  0.219795  0.605423  0  4.141553  0
C  C79  1  0.97502292  0.08975832  0.62860610  1  1.510546  0  0.215446  0.598108  0  4.153097  0
C  C80  1  0.13975230  0.02842626  0.62528452  1  1.572206  0  0.224359  0.624123  0  4.138099  0
C  C81  1  0.00863659  0.60932839  0.13340289  1  1.553753  0  0.223772  0.614885  0  4.133552  0
C  C82  1  0.97537209  0.85999028  0.39144699  1  1.554971  0  0.222149  0.607498  0  4.145749  0
C  C83  1  0.38036048  0.01832960  0.91014736  1  1.520203  0  0.217023  0.60613  0  4.154186  0
C  C84  1  0.38884530  0.85753873  0.98087564  1  1.530228  0  0.22123  0.611797  0  4.140957  0
C  C85  1  0.63581812  0.04320531  0.14016433  1  1.554963  0  0.230498  0.637672  0  4.112031  0
C  C86  1  0.59580623  0.08451322  0.95257776  1  1.534692  0  0.220475  0.609306  0  4.14609  0
C  C87  1  0.75830457  0.01374845  0.32357959  1  -0.040711  0  -0.012517  -0.025624  0  3.885306  0
C  C88  1  0.84138665  0.03997014  0.33290366  1  0.04279  0  -0.011405  -0.043567  0  3.972653  0
C  C89  1  0.85818843  0.07478809  0.28030158  1  -0.007218  0  -0.081084  -0.158529  0  3.911254  0
C  C90  1  0.79521214  0.07950564  0.21855836  1  0.017496  0  0.004686  0.163692  0  3.929294  0
C  C91  1  0.71116135  0.05161108  0.21036338  1  -0.018568  0  -0.006469  -0.1159  0  3.901577  0
C  C92  1  0.02785805  0.30064668  0.76948136  1  -0.017699  0  -0.070525  -0.049314  0  3.635492  0
C  C93  1  0.69675133  0.02269578  0.26643015  1  -0.029059  0  -0.005576  0.071492  0  3.937743  0
C  C94  1  0.62767285  0.98590492  0.28929710  1  -0.000739  0  -0.15401  -0.276602  0  3.844703  0
C  C95  1  0.69488061  0.96910276  0.34883827  1  0.047043  0  0.017363  0.229947  0  3.69682  0
C  C96  1  0.24313437  0.97781651  0.68535697  1  -0.007626  0  -0.02492  -0.044227  0  3.970301  0
C  C97  1  0.20728256  0.03167511  0.69887528  1  0.027372  0  0.004005  -0.0643  0  3.871696  0
C  C98  1  0.23123773  0.08496933  0.78676290  1  0.028031  0  0.001709  0.147845  0  3.940639  0
C  C99  1  0.28739039  0.08050621  0.85442919  1  -0.05958  0  -0.074202  -0.14137  0  3.909821  0
C  C100  1  0.32198476  0.02441161  0.83953858  1  -0.010936  0  -0.016612  -0.077105  0  3.998687  0
C  C101  1  0.29900427  0.97392696  0.75289584  1  0.03008  0  0.00134  0.098321  0  3.894911  0
C  C102  1  0.30978639  0.90537082  0.69320832  1  -0.005895  0  -0.152002  -0.266339  0  3.845374  0
C  C103  1  0.93927579  0.21773141  0.69276729  1  -0.028032  0  -0.069068  -0.051522  0  3.602951  0
C  C104  1  0.24461366  0.90843102  0.61663084  1  -0.003897  0  0.013273  0.173122  0  3.665018  0
C  C105  1  0.98043273  0.15769654  0.70297057  1  0.021391  0  -0.008961  -0.029111  0  3.661341  0
C  C106  1  0.06888273  0.24241258  0.77971548  1  -0.031784  0  -0.078442  -0.108065  0  3.626276  0
C  C107  1  0.03935153  0.23262789  0.84736651  1  0.038648  0  -0.001394  0.150611  0  3.64688  0
C  C108  1  0.10699283  0.96589675  0.29800368  1  -0.070331  0  -0.246793  -0.430346  0  3.950195  0
C  C109  1  0.73851885  0.02622436  0.84851520  1  -0.05399  0  -0.23878  -0.38485  0  3.956684  0
C  C110  1  0.81822327  0.11628672  0.16382754  1  -0.051023  0  -0.238188  -0.42069  0  3.96896  0
C  C111  1  0.66610419  0.87403468  0.32249217  1  -0.024713  0  -0.244217  -0.434245  0  3.949648  0
C  C112  1  0.19406779  0.14403784  0.80643093  1  -0.082216  0  -0.236516  -0.422  0  3.967203  0
C  C113  1  0.09348556  0.23854104  0.93082233  1  -0.052867  0  -0.245128  -0.412066  0  3.994645  0
Br  Br114  1  0.92533025  0.89610565  0.18731230  1  -0.129396  0  -0.031606  -0.13848  0  1.303541  0
Br  Br115  1  0.96299110  0.76615450  0.04071221  1  -0.103413  0  -0.038274  -0.109883  0  1.325117  0
Br  Br116  1  0.96019369  0.25731908  0.06037105  1  -0.1358  0  -0.026722  -0.128444  0  1.284017  0
Br  Br117  1  0.73247931  0.03661139  0.47558333  1  -0.175333  0  -0.047684  -0.173245  0  1.22569  0
Br  Br118  1  0.29231214  0.94606636  0.54821414  1  -0.09356  0  -0.03127  -0.118444  0  1.223264  0
Br  Br119  1  0.13197291  0.79847685  0.53689510  1  -0.086769  0  -0.013486  -0.105729  0  1.31117  0
O  O120  1  0.11122349  0.58697738  0.02668221  1  -1.168087  0  -0.310502  -0.569832  0  2.302385  0
O  O121  1  0.98906366  0.08210195  0.42135233  1  -1.137366  0  -0.317903  -0.530425  0  2.249409  0
O  O122  1  0.92176863  0.00825695  0.59806246  1  -1.129426  0  -0.318845  -0.532662  0  2.256485  0
O  O123  1  0.02479451  0.11749057  0.59970825  1  -1.177137  0  -0.317394  -0.573191  0  2.317307  0
O  O124  1  0.06159230  0.97371644  0.59716597  1  -1.159507  0  -0.301153  -0.55965  0  2.295727  0
O  O125  1  0.16515384  0.08122932  0.59775544  1  -1.124576  0  -0.314503  -0.527362  0  2.218082  0
O  O126  1  0.92226039  0.83333199  0.41857916  1  -1.126818  0  -0.31614  -0.524332  0  2.224275  0
O  O127  1  0.02520497  0.93967308  0.41760139  1  -1.167762  0  -0.302429  -0.561544  0  2.362241  0
O  O128  1  0.40305449  0.96165236  0.88614487  1  -1.165819  0  -0.309811  -0.5659  0  2.328446  0
O  O129  1  0.40568366  0.07049949  0.99061235  1  -1.13022  0  -0.321668  -0.532673  0  2.223768  0
O  O130  1  0.41463194  0.83137866  0.92607138  1  -1.132734  0  -0.318396  -0.528281  0  2.227735  0
O  O131  1  0.00985992  0.57677346  0.90969219  1  -1.133141  0  -0.31405  -0.528436  0  2.233838  0
O  O132  1  0.42539383  0.93669865  0.04132375  1  -1.181855  0  -0.313077  -0.573129  0  2.324017  0
O  O133  1  0.60793968  0.98677049  0.06198590  1  -1.171183  0  -0.307885  -0.567982  0  2.299875  0
O  O134  1  0.60196440  0.08975504  0.16406380  1  -1.131715  0  -0.3128  -0.522593  0  2.215053  0
O  O135  1  0.57632266  0.00444491  0.90757215  1  -1.125998  0  -0.313369  -0.525473  0  2.227569  0
O  O136  1  0.57263817  0.11103453  0.00817302  1  -1.167451  0  -0.308722  -0.56912  0  2.322156  0
O  O137  1  0.06258251  0.40238909  0.98633556  1  -1.128587  0  -0.315573  -0.529006  0  2.263758  0
O  O138  1  0.95840629  0.39871616  0.87714186  1  -1.170729  0  -0.318439  -0.575688  0  2.304242  0
O  O139  1  0.92148848  0.40718173  0.01619747  1  -1.171773  0  -0.308387  -0.57215  0  2.374995  0
O  O140  1  0.82153224  0.41181402  0.91158220  1  -1.121143  0  -0.317092  -0.524479  0  2.202289  0
O  O141  1  0.05798280  0.57931083  0.16041294  1  -1.117596  0  -0.315756  -0.523518  0  2.218223  0
O  O142  1  0.96614896  0.59028942  0.05485568  1  -1.159995  0  -0.306255  -0.565502  0  2.352165  0
O  O143  1  0.88043681  0.97606177  0.41730450  1  -1.166702  0  -0.305234  -0.565014  0  2.342093  0
