# generated using pymatgen
data_HgH12C7N4(ClO)2
_symmetry_space_group_name_H-M   'P 1'
_cell_length_a   7.31642396
_cell_length_b   9.86358423
_cell_length_c   15.94242601
_cell_angle_alpha   104.25594771
_cell_angle_beta   89.99994872
_cell_angle_gamma   90.00001488
_symmetry_Int_Tables_number   1
_chemical_formula_structural   HgH12C7N4(ClO)2
_chemical_formula_sum   'Hg4 H48 C28 N16 Cl8 O8'
_cell_volume   1115.07437273
_cell_formula_units_Z   4
loop_
 _symmetry_equiv_pos_site_id
 _symmetry_equiv_pos_as_xyz
  1  'x, y, z'
loop_
 _atom_site_type_symbol
 _atom_site_label
 _atom_site_symmetry_multiplicity
 _atom_site_fract_x
 _atom_site_fract_y
 _atom_site_fract_z
 _atom_site_occupancy
 _atom_site_hle17_bader_spin_density
 _atom_site_hle17_ddec_charge
 _atom_site_hle17_ddec_spin_density
 _atom_site_hle17_ddec_sum_bond_order
 _atom_site_hle17_magmom
 _atom_site_hse06_10hf_bader_spin_density
 _atom_site_hse06_10hf_ddec_charge
 _atom_site_hse06_10hf_ddec_spin_density
 _atom_site_hse06_10hf_ddec_sum_bond_order
 _atom_site_hse06_10hf_magmom
 _atom_site_hse06_bader_spin_density
 _atom_site_hse06_ddec_charge
 _atom_site_hse06_ddec_spin_density
 _atom_site_hse06_ddec_sum_bond_order
 _atom_site_hse06_magmom
 _atom_site_pbe_bader_spin_density
 _atom_site_pbe_cm5_charge
 _atom_site_pbe_ddec_charge
 _atom_site_pbe_ddec_spin_density
 _atom_site_pbe_ddec_sum_bond_order
 _atom_site_pbe_magmom
Hg  Hg0  1  0.25708525  0.99964568  0.92063381  1  0  0.751607  0  1.992921  0  0  0.596318  0  2.462378  0  0  0.648442  0  2.428946  0  0  0.501863  0.560856  0  2.484696  0
Hg  Hg1  1  0.75708514  0.00035476  0.57936659  1  0  0.751607  0  1.992903  0  0  0.596319  0  2.462361  0  0  0.64844  0  2.428933  0  0  0.501864  0.560856  0  2.484673  0
Hg  Hg2  1  0.74291477  0.00035418  0.07936658  1  0  0.751619  0  1.992916  0  0  0.596326  0  2.46237  0  0  0.648449  0  2.428942  0  0  0.501877  0.560863  0  2.484686  0
Hg  Hg3  1  0.24291352  0.99964614  0.42063396  1  0  0.751627  0  1.992937  0  0  0.596336  0  2.462398  0  0  0.648459  0  2.428968  0  0  0.50187  0.560872  0  2.484709  0
H  H4  1  0.93742875  0.48579785  0.62609685  1  0  0.100523  0  0.919015  0  0  0.110809  0  0.983555  0  0  0.111925  0  0.982905  0  0  0.111228  0.109961  0  0.984236  0
H  H5  1  0.43742878  0.51420260  0.87390285  1  0  0.10053  0  0.919  0  0  0.110826  0  0.983529  0  0  0.111941  0  0.982877  0  0  0.111232  0.109978  0  0.984212  0
H  H6  1  0.06256991  0.51420201  0.37390292  1  0  0.100552  0  0.918967  0  0  0.110816  0  0.983535  0  0  0.111931  0  0.982883  0  0  0.11123  0.109967  0  0.984216  0
H  H7  1  0.56257124  0.48579830  0.12609708  1  0  0.100519  0  0.919025  0  0  0.110804  0  0.983564  0  0  0.11192  0  0.982913  0  0  0.111225  0.109954  0  0.984247  0
H  H8  1  0.08165540  0.48576755  0.71738658  1  0  0.09503  0  0.933692  0  0  0.099237  0  1.01089  0  0  0.101153  0  1.009699  0  0  0.106997  0.097938  0  1.011496  0
H  H9  1  0.58165643  0.51423184  0.78261311  1  0  0.095014  0  0.933717  0  0  0.09922  0  1.010918  0  0  0.101136  0  1.009727  0  0  0.106986  0.097922  0  1.011523  0
H  H10  1  0.91834326  0.51423231  0.28261319  1  0  0.095021  0  0.933699  0  0  0.099224  0  1.010897  0  0  0.10114  0  1.009704  0  0  0.106986  0.097925  0  1.011503  0
H  H11  1  0.41834359  0.48576696  0.21738650  1  0  0.095027  0  0.933698  0  0  0.099233  0  1.010891  0  0  0.10115  0  1.0097  0  0  0.106995  0.097933  0  1.011496  0
H  H12  1  0.31981135  0.67294572  0.76537717  1  0  0.097995  0  0.934251  0  0  0.108157  0  1.003948  0  0  0.109709  0  1.002729  0  0  0.108838  0.106917  0  1.005079  0
H  H13  1  0.81981105  0.32705472  0.73462321  1  0  0.097956  0  0.934249  0  0  0.108121  0  1.003952  0  0  0.109672  0  1.002737  0  0  0.108819  0.106883  0  1.005079  0
H  H14  1  0.68018868  0.32705413  0.23462260  1  0  0.098002  0  0.934255  0  0  0.108153  0  1.003943  0  0  0.109704  0  1.002726  0  0  0.108838  0.106914  0  1.005072  0
H  H15  1  0.18019035  0.67294409  0.26537766  1  0  0.098001  0  0.934237  0  0  0.108147  0  1.003935  0  0  0.109699  0  1.002715  0  0  0.108838  0.106908  0  1.005063  0
H  H16  1  0.35176693  0.80352191  0.70718445  1  0  0.079565  0  0.951803  0  0  0.090331  0  1.025962  0  0  0.090731  0  1.026012  0  0  0.099329  0.09004  0  1.026014  0
H  H17  1  0.85176783  0.19647853  0.79281591  1  0  0.07959  0  0.951815  0  0  0.090362  0  1.025979  0  0  0.090762  0  1.026031  0  0  0.099349  0.09007  0  1.026031  0
H  H18  1  0.64823173  0.19647794  0.29281531  1  0  0.079554  0  0.951858  0  0  0.09032  0  1.025997  0  0  0.090718  0  1.026048  0  0  0.099336  0.090027  0  1.026048  0
H  H19  1  0.14823219  0.80352236  0.20718465  1  0  0.079549  0  0.951847  0  0  0.090315  0  1.025985  0  0  0.090713  0  1.026035  0  0  0.099333  0.090023  0  1.026037  0
H  H20  1  0.14328269  0.80853291  0.57774307  1  0  0.083648  0  0.957541  0  0  0.092775  0  1.031231  0  0  0.092907  0  1.032027  0  0  0.090445  0.09231  0  1.031406  0
H  H21  1  0.64328198  0.19146752  0.92225737  1  0  0.083647  0  0.95757  0  0  0.092775  0  1.03126  0  0  0.092905  0  1.032056  0  0  0.090446  0.09231  0  1.031437  0
H  H22  1  0.85671733  0.19146694  0.42225732  1  0  0.083652  0  0.957536  0  0  0.09278  0  1.031234  0  0  0.092911  0  1.032027  0  0  0.090442  0.092315  0  1.031408  0
H  H23  1  0.35671805  0.80853337  0.07774318  1  0  0.083635  0  0.95756  0  0  0.092763  0  1.031249  0  0  0.092895  0  1.032043  0  0  0.090447  0.092299  0  1.031426  0
H  H24  1  0.97371708  0.67573034  0.54492787  1  0  0.102484  0  0.953425  0  0  0.108557  0  1.027375  0  0  0.110301  0  1.025862  0  0  0.106949  0.107466  0  1.02826  0
H  H25  1  0.47371689  0.32427010  0.95507181  1  0  0.10249  0  0.953424  0  0  0.108559  0  1.027381  0  0  0.110302  0  1.025867  0  0  0.106948  0.107468  0  1.028269  0
H  H26  1  0.02628294  0.32426951  0.45507190  1  0  0.102492  0  0.953417  0  0  0.108565  0  1.027372  0  0  0.110309  0  1.025856  0  0  0.106951  0.107474  0  1.028257  0
H  H27  1  0.52628314  0.67573079  0.04492811  1  0  0.102484  0  0.953413  0  0  0.10855  0  1.027372  0  0  0.110293  0  1.025858  0  0  0.106944  0.107459  0  1.028259  0
H  H28  1  0.68598072  0.79691728  0.73506214  1  0  0.063755  0  0.944443  0  0  0.075732  0  1.017192  0  0  0.075872  0  1.016601  0  0  0.107333  0.07539  0  1.017914  0
H  H29  1  0.18598086  0.20308212  0.76493750  1  0  0.063756  0  0.944467  0  0  0.075725  0  1.017219  0  0  0.075862  0  1.016634  0  0  0.107328  0.075384  0  1.017936  0
H  H30  1  0.31401931  0.20308258  0.26493826  1  0  0.063728  0  0.944455  0  0  0.075698  0  1.017216  0  0  0.075834  0  1.016627  0  0  0.107319  0.075357  0  1.017936  0
H  H31  1  0.81402053  0.79691774  0.23506226  1  0  0.063762  0  0.944435  0  0  0.075724  0  1.017189  0  0  0.075868  0  1.016595  0  0  0.107326  0.075381  0  1.01791  0
H  H32  1  0.71398628  0.66778683  0.63509272  1  0  0.094995  0  0.934452  0  0  0.102668  0  1.004708  0  0  0.103562  0  1.003444  0  0  0.116931  0.102168  0  1.005455  0
H  H33  1  0.21398627  0.33221361  0.86490770  1  0  0.094985  0  0.934445  0  0  0.102664  0  1.004681  0  0  0.103546  0  1.003439  0  0  0.116908  0.102164  0  1.00543  0
H  H34  1  0.28601375  0.33221407  0.36490784  1  0  0.094996  0  0.934445  0  0  0.102676  0  1.004684  0  0  0.103557  0  1.003441  0  0  0.116913  0.102176  0  1.00543  0
H  H35  1  0.78601376  0.66778624  0.13509270  1  0  0.094973  0  0.93447  0  0  0.102629  0  1.004741  0  0  0.103526  0  1.003473  0  0  0.116924  0.102129  0  1.005491  0
H  H36  1  0.11096079  0.97852516  0.71199938  1  0  0.064567  0  0.943407  0  0  0.076482  0  1.016472  0  0  0.076788  0  1.015786  0  0  0.106886  0.076061  0  1.017327  0
H  H37  1  0.61096028  0.02147527  0.78800108  1  0  0.064548  0  0.943382  0  0  0.076469  0  1.016462  0  0  0.076777  0  1.015776  0  0  0.106881  0.076049  0  1.017316  0
H  H38  1  0.88903924  0.02147469  0.28800101  1  0  0.064554  0  0.943409  0  0  0.076467  0  1.016485  0  0  0.076773  0  1.015799  0  0  0.10688  0.076045  0  1.017339  0
H  H39  1  0.38903975  0.97852458  0.21199932  1  0  0.064563  0  0.943377  0  0  0.076484  0  1.016457  0  0  0.076792  0  1.01577  0  0  0.106885  0.076063  0  1.017312  0
H  H40  1  0.91667674  0.97710460  0.77993296  1  0  0.062675  0  0.950518  0  0  0.073676  0  1.025713  0  0  0.074116  0  1.024744  0  0  0.107637  0.073195  0  1.026687  0
H  H41  1  0.41667690  0.02289480  0.72006785  1  0  0.062667  0  0.950506  0  0  0.073674  0  1.025714  0  0  0.074118  0  1.024741  0  0  0.107638  0.073194  0  1.026687  0
H  H42  1  0.08332192  0.02289525  0.22006744  1  0  0.062676  0  0.950512  0  0  0.073674  0  1.025717  0  0  0.074115  0  1.024748  0  0  0.107652  0.073193  0  1.026692  0
H  H43  1  0.58332312  0.97710505  0.27993255  1  0  0.062667  0  0.950511  0  0  0.073674  0  1.025723  0  0  0.074116  0  1.024753  0  0  0.107638  0.073193  0  1.026695  0
H  H44  1  0.04795578  0.66802279  0.84892244  1  0  0.089706  0  0.9214  0  0  0.100037  0  0.985622  0  0  0.100804  0  0.984459  0  0  0.117558  0.099522  0  0.986609  0
H  H45  1  0.54795564  0.33197660  0.65107725  1  0  0.089714  0  0.921368  0  0  0.100043  0  0.985594  0  0  0.10081  0  0.98443  0  0  0.117557  0.099528  0  0.986579  0
H  H46  1  0.95204425  0.33197602  0.15107717  1  0  0.089743  0  0.921378  0  0  0.100048  0  0.985606  0  0  0.100814  0  0.98444  0  0  0.117559  0.099532  0  0.986594  0
H  H47  1  0.45204438  0.66802326  0.34892314  1  0  0.089732  0  0.921412  0  0  0.100063  0  0.98563  0  0  0.100829  0  0.984468  0  0  0.117569  0.099546  0  0.986615  0
H  H48  1  0.87706302  0.79929152  0.85523280  1  0  0.072075  0  0.947252  0  0  0.080786  0  1.020935  0  0  0.080787  0  1.020797  0  0  0.102742  0.080852  0  1.020971  0
H  H49  1  0.37706339  0.20070788  0.64476739  1  0  0.072069  0  0.947254  0  0  0.080778  0  1.02094  0  0  0.080778  0  1.020802  0  0  0.102743  0.080844  0  1.020975  0
H  H50  1  0.12293563  0.20070729  0.14476744  1  0  0.072109  0  0.947277  0  0  0.080803  0  1.020955  0  0  0.080802  0  1.020816  0  0  0.102758  0.080869  0  1.020993  0
H  H51  1  0.62293663  0.79929093  0.35523284  1  0  0.072084  0  0.947243  0  0  0.080793  0  1.020928  0  0  0.080794  0  1.02079  0  0  0.102749  0.080858  0  1.020962  0
C  C52  1  0.15134117  0.64586814  0.64913948  1  0  0.082137  0  3.497291  0  0  0.08431  0  3.740425  0  0  0.084117  0  3.753934  0  0  0.0752  0.084351  0  3.731397  0
C  C53  1  0.65134066  0.35413230  0.85086034  1  0  0.082161  0  3.497292  0  0  0.08446  0  3.740255  0  0  0.084266  0  3.753765  0  0  0.075257  0.084502  0  3.731229  0
C  C54  1  0.84865885  0.35413171  0.35086029  1  0  0.082147  0  3.497342  0  0  0.084426  0  3.74029  0  0  0.08423  0  3.753799  0  0  0.07524  0.084466  0  3.731261  0
C  C55  1  0.34865937  0.64586756  0.14913943  1  0  0.082203  0  3.497354  0  0  0.084373  0  3.740445  0  0  0.08418  0  3.753953  0  0  0.075231  0.084413  0  3.731417  0
C  C56  1  0.01028314  0.55188809  0.68151189  1  0  -0.078878  0  3.601624  0  0  -0.135716  0  3.856271  0  0  -0.132919  0  3.867661  0  0  -0.063429  -0.137349  0  3.847912  0
C  C57  1  0.51028409  0.44811234  0.81848798  1  0  -0.078859  0  3.601603  0  0  -0.135733  0  3.856236  0  0  -0.132936  0  3.86763  0  0  -0.063418  -0.137368  0  3.847883  0
C  C58  1  0.98971551  0.44811176  0.31848787  1  0  -0.078833  0  3.601549  0  0  -0.135676  0  3.856181  0  0  -0.132883  0  3.867585  0  0  -0.063401  -0.13731  0  3.847824  0
C  C59  1  0.48971730  0.55188751  0.18151179  1  0  -0.078897  0  3.601648  0  0  -0.135741  0  3.856312  0  0  -0.132937  0  3.867684  0  0  -0.063429  -0.137363  0  3.847944  0
C  C60  1  0.24982775  0.73706400  0.72810866  1  0  -0.086346  0  3.63937  0  0  -0.150661  0  3.893121  0  0  -0.14705  0  3.904941  0  0  -0.078584  -0.153032  0  3.884965  0
C  C61  1  0.74982735  0.26293539  0.77189158  1  0  -0.086285  0  3.639351  0  0  -0.150645  0  3.893092  0  0  -0.147033  0  3.904914  0  0  -0.07858  -0.153018  0  3.884938  0
C  C62  1  0.75017227  0.26293585  0.27189110  1  0  -0.086327  0  3.639491  0  0  -0.15062  0  3.893152  0  0  -0.147007  0  3.904975  0  0  -0.078571  -0.152991  0  3.884995  0
C  C63  1  0.25017267  0.73706341  0.22810865  1  0  -0.086364  0  3.639458  0  0  -0.150631  0  3.893136  0  0  -0.147015  0  3.904951  0  0  -0.078586  -0.153003  0  3.884979  0
C  C64  1  0.04755010  0.73946963  0.60048746  1  0  -0.089709  0  3.610904  0  0  -0.148361  0  3.855953  0  0  -0.145699  0  3.869118  0  0  -0.078924  -0.150041  0  3.846934  0
C  C65  1  0.54754945  0.26052975  0.89951224  1  0  -0.08982  0  3.611058  0  0  -0.148493  0  3.856076  0  0  -0.145838  0  3.869259  0  0  -0.078987  -0.150173  0  3.847063  0
C  C66  1  0.95244993  0.26053022  0.39951231  1  0  -0.089792  0  3.610946  0  0  -0.148483  0  3.855991  0  0  -0.145823  0  3.869163  0  0  -0.078978  -0.150163  0  3.846973  0
C  C67  1  0.45245058  0.73947010  0.10048753  1  0  -0.089749  0  3.610998  0  0  -0.148395  0  3.856036  0  0  -0.145738  0  3.869213  0  0  -0.078955  -0.150077  0  3.847024  0
C  C68  1  0.78553895  0.73251612  0.69119897  1  0  0.065158  0  3.617225  0  0  -0.007251  0  3.88093  0  0  0.001678  0  3.891189  0  0  0.012024  -0.013201  0  3.873331  0
C  C69  1  0.28553766  0.26748432  0.80880142  1  0  0.065168  0  3.617245  0  0  -0.007219  0  3.88091  0  0  0.001712  0  3.89117  0  0  0.012043  -0.013167  0  3.873308  0
C  C70  1  0.21446107  0.26748478  0.30880158  1  0  0.065187  0  3.617217  0  0  -0.007216  0  3.880909  0  0  0.001721  0  3.891172  0  0  0.012044  -0.013166  0  3.873312  0
C  C71  1  0.71446237  0.73251553  0.19119898  1  0  0.065173  0  3.617192  0  0  -0.007192  0  3.880837  0  0  0.001731  0  3.891093  0  0  0.012053  -0.013139  0  3.873234  0
C  C72  1  0.01401312  0.91132853  0.73549223  1  0  0.069672  0  3.650708  0  0  -0.006789  0  3.914281  0  0  0.001867  0  3.926061  0  0  0.008204  -0.012663  0  3.906115  0
C  C73  1  0.51401268  0.08867190  0.76450827  1  0  0.069801  0  3.650569  0  0  -0.006717  0  3.914227  0  0  0.001933  0  3.926015  0  0  0.008236  -0.012592  0  3.906063  0
C  C74  1  0.98598691  0.08867132  0.26450817  1  0  0.069752  0  3.650653  0  0  -0.006724  0  3.914252  0  0  0.001933  0  3.926032  0  0  0.008217  -0.012599  0  3.906087  0
C  C75  1  0.48598735  0.91132795  0.23549212  1  0  0.069758  0  3.6506  0  0  -0.006768  0  3.914265  0  0  0.001881  0  3.926054  0  0  0.00822  -0.012643  0  3.9061  0
C  C76  1  0.97678117  0.73295365  0.81254812  1  0  0.060177  0  3.624857  0  0  -0.008946  0  3.885203  0  0  -0.000305  0  3.896059  0  0  0.009463  -0.014857  0  3.877283  0
C  C77  1  0.47678148  0.26704575  0.68745203  1  0  0.060209  0  3.624832  0  0  -0.008903  0  3.885165  0  0  -0.000261  0  3.896019  0  0  0.009481  -0.014813  0  3.877238  0
C  C78  1  0.02321886  0.26704515  0.18745212  1  0  0.060063  0  3.62499  0  0  -0.008973  0  3.885241  0  0  -0.000324  0  3.896084  0  0  0.00944  -0.014884  0  3.877322  0
C  C79  1  0.52321855  0.73295306  0.31254757  1  0  0.060151  0  3.624854  0  0  -0.008952  0  3.885162  0  0  -0.000313  0  3.896021  0  0  0.009454  -0.014859  0  3.877231  0
N  N80  1  0.28407136  0.55352554  0.58991014  1  0  0.507913  0  3.80621  0  0  0.527573  0  4.119659  0  0  0.549402  0  4.125155  0  0  0.051877  0.512688  0  4.116613  0
N  N81  1  0.78407349  0.44647385  0.91008883  1  0  0.507829  0  3.806314  0  0  0.52745  0  4.119777  0  0  0.549275  0  4.125274  0  0  0.051792  0.512565  0  4.11673  0
N  N82  1  0.71592593  0.44647431  0.41008837  1  0  0.507843  0  3.806355  0  0  0.527465  0  4.119818  0  0  0.549291  0  4.125317  0  0  0.051803  0.512581  0  4.116771  0
N  N83  1  0.21593063  0.55352495  0.08991015  1  0  0.507915  0  3.806329  0  0  0.527554  0  4.119808  0  0  0.54938  0  4.125304  0  0  0.051857  0.512668  0  4.116764  0
N  N84  1  0.88080264  0.64383720  0.73857991  1  0  -0.214804  0  3.147763  0  0  -0.150161  0  3.411084  0  0  -0.168441  0  3.431079  0  0  -0.332074  -0.136599  0  3.396115  0
N  N85  1  0.38080284  0.35616325  0.76142043  1  0  -0.214812  0  3.147714  0  0  -0.15018  0  3.411042  0  0  -0.168458  0  3.431033  0  0  -0.332072  -0.136616  0  3.396071  0
N  N86  1  0.11919738  0.35616265  0.26142048  1  0  -0.214809  0  3.147748  0  0  -0.150202  0  3.411071  0  0  -0.168482  0  3.431059  0  0  -0.332084  -0.136639  0  3.396103  0
N  N87  1  0.61919855  0.64383660  0.23857933  1  0  -0.214796  0  3.147727  0  0  -0.150174  0  3.411053  0  0  -0.168453  0  3.431049  0  0  -0.332098  -0.136615  0  3.396078  0
N  N88  1  0.11225777  0.82523962  0.78423650  1  0  -0.240825  0  3.202389  0  0  -0.146131  0  3.437221  0  0  -0.167145  0  3.459916  0  0  -0.329616  -0.130932  0  3.420812  0
N  N89  1  0.61225745  0.17476082  0.71576396  1  0  -0.240903  0  3.202419  0  0  -0.146198  0  3.437298  0  0  -0.167208  0  3.459992  0  0  -0.329646  -0.131  0  3.420884  0
N  N90  1  0.88774225  0.17476024  0.21576389  1  0  -0.240857  0  3.202567  0  0  -0.146197  0  3.437394  0  0  -0.167213  0  3.460088  0  0  -0.329637  -0.130996  0  3.420978  0
N  N91  1  0.38774257  0.82523903  0.28423581  1  0  -0.240865  0  3.202449  0  0  -0.146187  0  3.437311  0  0  -0.1672  0  3.460007  0  0  -0.329643  -0.13099  0  3.420898  0
N  N92  1  0.91517747  0.82600969  0.66060554  1  0  -0.235057  0  3.20003  0  0  -0.141496  0  3.436284  0  0  -0.162739  0  3.459479  0  0  -0.329789  -0.126762  0  3.419548  0
N  N93  1  0.41517745  0.17399076  0.83939542  1  0  -0.23505  0  3.20007  0  0  -0.141475  0  3.436316  0  0  -0.162714  0  3.459509  0  0  -0.329768  -0.126738  0  3.419577  0
N  N94  1  0.08482256  0.17399121  0.33939501  1  0  -0.235051  0  3.200023  0  0  -0.141477  0  3.436266  0  0  -0.162719  0  3.459456  0  0  -0.329774  -0.126742  0  3.419527  0
N  N95  1  0.58482258  0.82601014  0.16060513  1  0  -0.235049  0  3.200062  0  0  -0.141456  0  3.436254  0  0  -0.162697  0  3.459451  0  0  -0.329758  -0.126721  0  3.419516  0
Cl  Cl96  1  0.99214909  0.14900700  0.95365910  1  0  -0.448813  0  1.017213  0  0  -0.388641  0  1.311658  0  0  -0.407086  0  1.292829  0  0  -0.248515  -0.375924  0  1.324896  0
Cl  Cl97  1  0.49214988  0.85099449  0.54634136  1  0  -0.448811  0  1.017214  0  0  -0.388641  0  1.311664  0  0  -0.407088  0  1.292837  0  0  -0.248522  -0.375928  0  1.324899  0
Cl  Cl98  1  0.00785093  0.85099390  0.04634083  1  0  -0.448805  0  1.017209  0  0  -0.388642  0  1.311665  0  0  -0.407086  0  1.292838  0  0  -0.248519  -0.375926  0  1.324903  0
Cl  Cl99  1  0.50785014  0.14900745  0.45365935  1  0  -0.44884  0  1.017232  0  0  -0.388663  0  1.311678  0  0  -0.407109  0  1.29285  0  0  -0.248528  -0.37595  0  1.324911  0
Cl  Cl100  1  0.52428955  0.85005905  0.90805010  1  0  -0.44749  0  1.013842  0  0  -0.380372  0  1.302126  0  0  -0.398844  0  1.283666  0  0  -0.239752  -0.36784  0  1.31452  0
Cl  Cl101  1  0.02429000  0.14994138  0.59194976  1  0  -0.447478  0  1.013828  0  0  -0.380358  0  1.302107  0  0  -0.398829  0  1.283649  0  0  -0.239755  -0.367834  0  1.314508  0
Cl  Cl102  1  0.47570911  0.14994185  0.09194982  1  0  -0.447486  0  1.013811  0  0  -0.380365  0  1.302095  0  0  -0.398837  0  1.283636  0  0  -0.23976  -0.367834  0  1.314489  0
Cl  Cl103  1  0.97571002  0.85005952  0.40805016  1  0  -0.447488  0  1.013848  0  0  -0.380366  0  1.302132  0  0  -0.398837  0  1.283672  0  0  -0.239753  -0.367839  0  1.314525  0
O  O104  1  0.23050427  0.49690818  0.51570644  1  0  -0.356044  0  1.773181  0  0  -0.339482  0  1.998499  0  0  -0.350171  0  1.992656  0  0  -0.125664  -0.333116  0  2.002959  0
O  O105  1  0.73050764  0.50309122  0.98429381  1  0  -0.355996  0  1.773236  0  0  -0.339441  0  1.998576  0  0  -0.350128  0  1.992735  0  0  -0.125632  -0.333074  0  2.003033  0
O  O106  1  0.76949029  0.50309168  0.48429396  1  0  -0.356017  0  1.773253  0  0  -0.339472  0  1.99861  0  0  -0.350166  0  1.992772  0  0  -0.125637  -0.333105  0  2.003064  0
O  O107  1  0.26949512  0.49690863  0.01570595  1  0  -0.356027  0  1.773245  0  0  -0.339482  0  1.99859  0  0  -0.350167  0  1.992746  0  0  -0.125655  -0.333116  0  2.003051  0
O  O108  1  0.43661169  0.53520962  0.61908108  1  0  -0.345742  0  1.793452  0  0  -0.323459  0  2.015308  0  0  -0.333773  0  2.010374  0  0  -0.115157  -0.317414  0  2.019445  0
O  O109  1  0.93661252  0.46479187  0.88091689  1  0  -0.345703  0  1.793426  0  0  -0.323417  0  2.015319  0  0  -0.33372  0  2.010374  0  0  -0.115129  -0.317371  0  2.019456  0
O  O110  1  0.56338833  0.46479128  0.38091633  1  0  -0.345685  0  1.793435  0  0  -0.323397  0  2.015321  0  0  -0.333695  0  2.010373  0  0  -0.11513  -0.317353  0  2.019458  0
O  O111  1  0.06339024  0.53520798  0.11908225  1  0  -0.345775  0  1.79347  0  0  -0.323436  0  2.015284  0  0  -0.333762  0  2.010375  0  0  -0.115148  -0.317388  0  2.019421  0
