# generated using pymatgen
data_Dy2H10C18SN4O13
_symmetry_space_group_name_H-M   'P 1'
_cell_length_a   6.61321862
_cell_length_b   9.54401936
_cell_length_c   16.04245816
_cell_angle_alpha   97.31010953
_cell_angle_beta   90.00000350
_cell_angle_gamma   90.00008107
_symmetry_Int_Tables_number   1
_chemical_formula_structural   Dy2H10C18SN4O13
_chemical_formula_sum   'Dy4 H20 C36 S2 N8 O26'
_cell_volume   1004.31682930
_cell_formula_units_Z   2
loop_
 _symmetry_equiv_pos_site_id
 _symmetry_equiv_pos_as_xyz
  1  'x, y, z'
loop_
 _atom_site_type_symbol
 _atom_site_label
 _atom_site_symmetry_multiplicity
 _atom_site_fract_x
 _atom_site_fract_y
 _atom_site_fract_z
 _atom_site_occupancy
 _atom_site_pbe_bader_spin_density
 _atom_site_pbe_cm5_charge
 _atom_site_pbe_ddec_charge
 _atom_site_pbe_ddec_spin_density
 _atom_site_pbe_ddec_sum_bond_order
 _atom_site_pbe_magmom
Dy  Dy0  1  0.82982158  0.17565905  0.65026730  1  0  1.577187  2.10539  0  2.167589  0
Dy  Dy1  1  0.17017602  0.17565826  0.15026652  1  0  1.57716  2.10535  0  2.167632  0
Dy  Dy2  1  0.67602438  0.99223591  0.85077381  1  0  1.55125  2.09717  0  2.16678  0
Dy  Dy3  1  0.32397337  0.99223635  0.35077500  1  0  1.551187  2.09709  0  2.166825  0
H  H4  1  0.07318479  0.99292947  0.77938568  1  0  0.302751  0.402483  0  0.936242  0
H  H5  1  0.92681447  0.99292946  0.27938623  1  0  0.302752  0.402472  0  0.936263  0
H  H6  1  0.14092332  0.93792094  0.86327272  1  0  0.309348  0.415767  0  0.903346  0
H  H7  1  0.85907434  0.93792086  0.36327326  1  0  0.309344  0.415782  0  0.903338  0
H  H8  1  0.69820657  0.37730391  0.35462093  1  0  0.31478  0.301928  0  0.979381  0
H  H9  1  0.30179752  0.37730312  0.85462220  1  0  0.314768  0.301893  0  0.979492  0
H  H10  1  0.81137122  0.78299303  0.14895378  1  0  0.351772  0.317269  0  0.869978  0
H  H11  1  0.18862760  0.78299422  0.64895395  1  0  0.351747  0.317255  0  0.869993  0
H  H12  1  0.67576849  0.68714643  0.39096527  1  0  0.120495  0.142718  0  0.980631  0
H  H13  1  0.32423623  0.68714565  0.89096592  1  0  0.120479  0.142706  0  0.980709  0
H  H14  1  0.66672137  0.56789801  0.68591620  1  0  0.116142  0.144288  0  1.01913  0
H  H15  1  0.33327552  0.56789634  0.18591661  1  0  0.116166  0.144303  0  1.019137  0
H  H16  1  0.70654574  0.18073408  0.44551191  1  0  0.145586  0.098353  0  1.039802  0
H  H17  1  0.29345495  0.18073432  0.94551201  1  0  0.145585  0.098314  0  1.039838  0
H  H18  1  0.79583253  0.60616991  0.81735814  1  0  0.11821  0.136413  0  1.011244  0
H  H19  1  0.20416899  0.60616810  0.31735853  1  0  0.118193  0.136409  0  1.011237  0
H  H20  1  0.82442960  0.47250386  0.10936041  1  0  0.123772  0.147112  0  0.982082  0
H  H21  1  0.17557161  0.47250608  0.60936003  1  0  0.123805  0.147179  0  0.982011  0
H  H22  1  0.78319149  0.98664644  0.06343703  1  0  0.148953  0.10783  0  1.044487  0
H  H23  1  0.21680469  0.98664661  0.56343775  1  0  0.148929  0.107803  0  1.044522  0
C  C24  1  0.68922057  0.91350595  0.49462345  1  0  0.24469  0.666233  0  4.111072  0
C  C25  1  0.31078462  0.91350197  0.99462137  1  0  0.244685  0.666279  0  4.110858  0
C  C26  1  0.68319613  0.76945284  0.52238158  1  0  -0.018287  -0.078012  0  3.918541  0
C  C27  1  0.31680717  0.76945221  0.02238269  1  0  -0.018323  -0.078096  0  3.91869  0
C  C28  1  0.68075243  0.66050964  0.45488944  1  0  -0.078254  -0.165927  0  3.955567  0
C  C29  1  0.31925225  0.66050885  0.95488947  1  0  -0.07822  -0.165859  0  3.955585  0
C  C30  1  0.68651499  0.52163475  0.47153624  1  0  0.100632  0.143748  0  4.044302  0
C  C31  1  0.31349092  0.52163184  0.97153674  1  0  0.100611  0.143624  0  4.044505  0
C  C32  1  0.68743433  0.48646493  0.55475953  1  0  0.099247  0.167298  0  4.054706  0
C  C33  1  0.31256992  0.48646323  0.05475931  1  0  0.09926  0.167394  0  4.054672  0
C  C34  1  0.67632639  0.59385505  0.62211357  1  0  -0.076442  -0.156412  0  3.898601  0
C  C35  1  0.32367507  0.59385443  0.12211468  1  0  -0.07644  -0.156469  0  3.898434  0
C  C36  1  0.67928878  0.73561034  0.60735232  1  0  -0.018275  -0.069439  0  3.912814  0
C  C37  1  0.32071145  0.73561182  0.10735296  1  0  -0.018264  -0.069379  0  3.912865  0
C  C38  1  0.66928771  0.83545315  0.68761022  1  0  0.213863  0.621571  0  4.139659  0
C  C39  1  0.33071122  0.83545041  0.18760993  1  0  0.213857  0.621476  0  4.139708  0
C  C40  1  0.69828513  0.29151535  0.47037881  1  0  0.172794  0.217401  0  3.936591  0
C  C41  1  0.30171882  0.29151454  0.97037821  1  0  0.172817  0.217483  0  3.936581  0
C  C42  1  0.80897563  0.33625113  0.81235736  1  0  0.215081  0.623553  0  4.148433  0
C  C43  1  0.19102384  0.33625037  0.31235846  1  0  0.215065  0.623487  0  4.148374  0
C  C44  1  0.80320699  0.43534082  0.89302135  1  0  -0.013458  -0.061416  0  3.887983  0
C  C45  1  0.19679269  0.43533901  0.39302237  1  0  -0.013462  -0.061398  0  3.887964  0
C  C46  1  0.79956442  0.57851681  0.88096992  1  0  -0.069576  -0.144504  0  3.894612  0
C  C47  1  0.20043554  0.57851605  0.38096977  1  0  -0.069566  -0.144532  0  3.894461  0
C  C48  1  0.79937552  0.68271851  0.95010012  1  0  0.09484  0.154457  0  4.068069  0
C  C49  1  0.20062466  0.68271776  0.45010059  1  0  0.094869  0.154538  0  4.067903  0
C  C50  1  0.81065886  0.64361972  0.03218079  1  0  0.1065  0.15369  0  4.026979  0
C  C51  1  0.18934268  0.64362198  0.53218165  1  0  0.1065  0.153717  0  4.026901  0
C  C52  1  0.81773243  0.50314088  0.04627840  1  0  -0.075172  -0.170335  0  3.936518  0
C  C53  1  0.18226883  0.50314102  0.54627974  1  0  -0.075176  -0.17037  0  3.936399  0
C  C54  1  0.81073279  0.39773335  0.97690640  1  0  -0.003347  -0.049167  0  3.865146  0
C  C55  1  0.18926683  0.39773365  0.47690758  1  0  -0.003397  -0.049248  0  3.86525  0
C  C56  1  0.81270437  0.25061503  0.00195693  1  0  0.252461  0.693773  0  4.076333  0
C  C57  1  0.18729034  0.25061625  0.50196084  1  0  0.252459  0.693807  0  4.076363  0
C  C58  1  0.79285384  0.87650026  0.03682089  1  0  0.176028  0.212535  0  3.934415  0
C  C59  1  0.20714212  0.87649936  0.53682090  1  0  0.17602  0.212504  0  3.934537  0
S  S60  1  0.32798425  0.17331702  0.72744911  1  0  0.597096  1.496857  0  6.323244  0
S  S61  1  0.67201336  0.17331885  0.22744853  1  0  0.597058  1.496807  0  6.323429  0
N  N62  1  0.69186626  0.39510131  0.42006133  1  0  -0.369426  -0.260691  0  3.595188  0
N  N63  1  0.30813939  0.39509945  0.92006065  1  0  -0.369412  -0.260594  0  3.595317  0
N  N64  1  0.69636630  0.34060497  0.55196762  1  0  -0.412187  -0.468823  0  3.396903  0
N  N65  1  0.30363767  0.34060326  0.05196740  1  0  -0.41222  -0.468895  0  3.396911  0
N  N66  1  0.78746467  0.82947477  0.95517363  1  0  -0.409272  -0.479099  0  3.411571  0
N  N67  1  0.21253127  0.82947508  0.45517355  1  0  -0.409241  -0.479071  0  3.411584  0
N  N68  1  0.80838022  0.76962458  0.08516581  1  0  -0.367305  -0.256203  0  3.586585  0
N  N69  1  0.19161856  0.76962258  0.58516388  1  0  -0.367262  -0.256181  0  3.586721  0
O  O70  1  0.47801405  0.15666820  0.65836677  1  0  -0.418441  -0.742476  0  2.3365  0
O  O71  1  0.52198503  0.15666566  0.15836588  1  0  -0.41845  -0.74249  0  2.336481  0
O  O72  1  0.14141238  0.08771685  0.69985766  1  0  -0.415123  -0.750373  0  2.308236  0
O  O73  1  0.85858355  0.08771571  0.19985812  1  0  -0.415103  -0.750361  0  2.308242  0
O  O74  1  0.27342247  0.32229425  0.75093975  1  0  -0.334108  -0.628065  0  2.132295  0
O  O75  1  0.72657545  0.32229296  0.25093833  1  0  -0.334098  -0.628023  0  2.132419  0
O  O76  1  0.40846241  0.11067667  0.80160109  1  0  -0.449228  -0.786065  0  2.377216  0
O  O77  1  0.59153510  0.11067736  0.30160043  1  0  -0.449198  -0.78603  0  2.377251  0
O  O78  1  0.77605788  0.01509854  0.53866630  1  0  -0.415786  -0.652646  0  2.382893  0
O  O79  1  0.22394695  0.01510098  0.03866701  1  0  -0.415835  -0.652746  0  2.382638  0
O  O80  1  0.61824606  0.92718744  0.42143309  1  0  -0.389971  -0.685918  0  2.322648  0
O  O81  1  0.38175460  0.92718565  0.92143304  1  0  -0.389933  -0.68588  0  2.322798  0
O  O82  1  0.75731153  0.95682009  0.69834227  1  0  -0.442879  -0.735052  0  2.47101  0
O  O83  1  0.24268311  0.95681727  0.19834259  1  0  -0.442909  -0.735004  0  2.470891  0
O  O84  1  0.57913792  0.79411009  0.75060835  1  0  -0.379903  -0.633558  0  2.155267  0
O  O85  1  0.42085943  0.79410956  0.25060822  1  0  -0.379879  -0.633494  0  2.155282  0
O  O86  1  0.80895299  0.38891699  0.74322806  1  0  -0.376607  -0.627619  0  2.243756  0
O  O87  1  0.19104657  0.38891517  0.24322783  1  0  -0.376593  -0.627571  0  2.243664  0
O  O88  1  0.81781234  0.20067539  0.80879157  1  0  -0.437728  -0.757557  0  2.465717  0
O  O89  1  0.18218383  0.20067145  0.30879181  1  0  -0.43774  -0.757536  0  2.46566  0
O  O90  1  0.70703871  0.15217633  0.96279092  1  0  -0.427703  -0.672091  0  2.358481  0
O  O91  1  0.29295739  0.15217463  0.46279258  1  0  -0.42769  -0.672121  0  2.358277  0
O  O92  1  0.91617742  0.23266659  0.06603881  1  0  -0.407155  -0.679452  0  2.408591  0
O  O93  1  0.08382482  0.23266874  0.56604092  1  0  -0.407132  -0.679447  0  2.408844  0
O  O94  1  0.02396514  0.94012642  0.82520839  1  0  -0.647805  -0.856904  0  2.055151  0
O  O95  1  0.97603251  0.94012540  0.32520824  1  0  -0.647812  -0.856912  0  2.055169  0
