# generated using pymatgen
data_NiH16C20(NO2)2
_symmetry_space_group_name_H-M   'P 1'
_cell_length_a   10.28858187
_cell_length_b   9.47383215
_cell_length_c   10.11722802
_cell_angle_alpha   69.13577283
_cell_angle_beta   79.07981964
_cell_angle_gamma   83.93054612
_symmetry_Int_Tables_number   1
_chemical_formula_structural   NiH16C20(NO2)2
_chemical_formula_sum   'Ni2 H32 C40 N4 O8'
_cell_volume   904.01134632
_cell_formula_units_Z   2
loop_
 _symmetry_equiv_pos_site_id
 _symmetry_equiv_pos_as_xyz
  1  'x, y, z'
loop_
 _atom_site_type_symbol
 _atom_site_label
 _atom_site_symmetry_multiplicity
 _atom_site_fract_x
 _atom_site_fract_y
 _atom_site_fract_z
 _atom_site_occupancy
 _atom_site_pbe_cm5_charge
 _atom_site_pbe_ddec_charge
 _atom_site_pbe_ddec_spin_density
 _atom_site_pbe_ddec_sum_bond_order
 _atom_site_pbe_magmom
Ni  Ni0  1  0.36529660  0.44327491  0.86443911  1  0.623844  0.655556  0.008029  2.623007  0.008
Ni  Ni1  1  0.63470656  0.55672929  0.13556135  1  0.623835  0.655581  0.008007  2.623144  0.008
H  H2  1  0.51924282  0.22913371  0.07603231  1  0.119282  0.099071  -0.000285  1.055417  0.0
H  H3  1  0.48074896  0.77084812  0.92397906  1  0.119325  0.09909  -0.000285  1.055404  0.0
H  H4  1  0.69739180  0.03078082  0.07665409  1  0.108884  0.122922  -0.000179  0.996241  0.0
H  H5  1  0.30259790  0.96920535  0.92334234  1  0.108863  0.122881  -0.000179  0.996363  0.0
H  H6  1  0.69684099  0.14377373  0.62429186  1  0.105757  0.113673  -0.000239  1.002639  0.0
H  H7  1  0.30315735  0.85622491  0.37571145  1  0.105752  0.113689  -0.000239  1.002602  0.0
H  H8  1  0.51644927  0.33462731  0.64224459  1  0.119668  0.096099  -0.00041  1.034176  -0.001
H  H9  1  0.48354797  0.66537580  0.35775244  1  0.119647  0.096022  -0.00041  1.034255  -0.001
H  H10  1  0.80081900  0.85298071  0.95152076  1  0.102381  0.118042  -1.6e-05  1.020263  0.0
H  H11  1  0.19917563  0.14700656  0.04847829  1  0.102355  0.118021  -1.6e-05  1.020412  0.0
H  H12  1  0.80167413  0.89828101  0.76626667  1  0.092465  0.094855  5.4e-05  1.008389  0.0
H  H13  1  0.19832726  0.10171406  0.23372938  1  0.092437  0.094853  5.4e-05  1.008447  0.0
H  H14  1  0.97267377  0.05511275  0.88655129  1  0.099951  0.108729  4.4e-05  0.987527  0.0
H  H15  1  0.02731391  0.94487504  0.11347363  1  0.099981  0.108768  4.4e-05  0.987394  0.0
H  H16  1  0.97880957  0.08051148  0.70462759  1  0.09162  0.091468  -2.1e-05  1.027528  0.0
H  H17  1  0.02117949  0.91950333  0.29538378  1  0.091601  0.091451  -2.1e-05  1.027588  0.0
H  H18  1  0.96341054  0.72289958  0.03504717  1  0.110516  0.139456  -0.000177  1.061991  0.0
H  H19  1  0.03657810  0.27708999  0.96494730  1  0.110479  0.139425  -0.000177  1.062046  0.0
H  H20  1  0.12651458  0.50943269  0.04556473  1  0.11754  0.086641  -0.000656  1.05976  -0.001
H  H21  1  0.87347293  0.49056349  0.95441581  1  0.117507  0.086718  -0.000656  1.059652  -0.001
H  H22  1  0.34373212  0.74328249  0.65450207  1  0.122715  0.099171  -0.00056  0.994372  -0.001
H  H23  1  0.65627160  0.25674090  0.34549165  1  0.122729  0.099156  -0.000561  0.99445  -0.001
H  H24  1  0.18816953  0.97092103  0.62372908  1  0.107313  0.1186  -0.000255  0.999342  0.0
H  H25  1  0.81182636  0.02909815  0.37627749  1  0.107354  0.118679  -0.000255  0.99935  0.0
H  H26  1  0.00529860  0.32728490  0.66228306  1  0.106165  0.106363  -4.7e-05  1.004596  0.0
H  H27  1  0.99471580  0.67270333  0.33772471  1  0.106167  0.106327  -4.7e-05  1.004676  0.0
H  H28  1  0.93049189  0.30066075  0.45125472  1  0.096352  0.093523  9e-06  1.019062  0.0
H  H29  1  0.06953000  0.69930251  0.54876123  1  0.096357  0.093622  9e-06  1.018795  0.0
H  H30  1  0.09285763  0.32359670  0.22987014  1  0.099019  0.09473  0.000106  1.059931  0.0
H  H31  1  0.90715568  0.67639614  0.77014020  1  0.098968  0.094713  0.000106  1.059813  0.0
H  H32  1  0.39978196  0.40863039  0.42337923  1  0.106405  0.114171  6.7e-05  1.026989  0.0
H  H33  1  0.60023001  0.59137823  0.57662196  1  0.106384  0.114136  6.7e-05  1.027144  0.0
C  C34  1  0.55880960  0.20427478  0.97892853  1  0.044345  0.090909  -0.000159  3.902734  0.0
C  C35  1  0.44118482  0.79572162  0.02107333  1  0.044315  0.090911  -0.000158  3.902799  0.0
C  C36  1  0.66063984  0.09598197  0.97716008  1  -0.084154  -0.181359  -0.001301  3.932248  -0.001
C  C37  1  0.33935065  0.90401331  0.02283799  1  -0.084154  -0.181349  -0.001301  3.932402  -0.001
C  C38  1  0.71279725  0.06791536  0.85025437  1  0.013672  0.174565  0.000666  3.948969  0.001
C  C39  1  0.28719814  0.93208213  0.14974496  1  0.013717  0.17452  0.000666  3.949023  0.001
C  C40  1  0.66025583  0.15769024  0.72769703  1  -0.088613  -0.191391  -0.00124  3.958047  -0.001
C  C41  1  0.33973961  0.84230501  0.27230406  1  -0.088637  -0.191441  -0.00124  3.958241  -0.001
C  C42  1  0.55860237  0.26434482  0.73633972  1  0.041756  0.084588  -0.000404  3.933926  0.0
C  C43  1  0.44139380  0.73566177  0.26366125  1  0.041729  0.084636  -0.000404  3.934094  0.0
C  C44  1  0.81625608  0.94469940  0.84733688  1  -0.16052  -0.206372  2.9e-05  3.912864  0.0
C  C45  1  0.18373342  0.05529594  0.15266433  1  -0.160486  -0.20626  2.9e-05  3.913059  0.0
C  C46  1  0.95974380  0.99698244  0.81312985  1  -0.154138  -0.191598  -5e-06  3.908474  0.0
C  C47  1  0.04024751  0.00301983  0.18688047  1  -0.154107  -0.191588  -5e-06  3.908565  0.0
C  C48  1  0.06023902  0.86712323  0.82632645  1  0.014329  0.171521  0.000672  3.936466  0.001
C  C49  1  0.93975820  0.13288099  0.17366921  1  0.014325  0.171512  0.000672  3.936519  0.001
C  C50  1  0.04582455  0.73485147  0.94677675  1  -0.08995  -0.204316  -0.001547  3.934269  -0.001
C  C51  1  0.95417577  0.26514703  0.05321931  1  -0.089984  -0.204284  -0.001547  3.934289  -0.001
C  C52  1  0.13570441  0.61370102  0.95409202  1  0.046551  0.092096  -0.000512  3.93131  0.0
C  C53  1  0.86428800  0.38629739  0.04589076  1  0.046781  0.09224  -0.000512  3.931276  0.0
C  C54  1  0.25715205  0.74460702  0.73476821  1  0.048747  0.090681  -0.000271  3.924641  0.0
C  C55  1  0.74284995  0.25540502  0.26522383  1  0.04877  0.090916  -0.000271  3.924496  0.0
C  C56  1  0.17017609  0.87041508  0.71952318  1  -0.086477  -0.198865  -0.001471  3.953613  -0.001
C  C57  1  0.82982317  0.12958687  0.28047485  1  -0.086554  -0.199064  -0.001471  3.953435  -0.001
C  C58  1  0.24749044  0.37749465  0.68752176  1  0.200491  0.546726  0.001579  4.213555  0.0
C  C59  1  0.75251673  0.62250714  0.31247382  1  0.200404  0.546932  0.001579  4.213648  0.0
C  C60  1  0.20643379  0.36938092  0.55642447  1  -0.02008  -0.031455  -0.001198  3.989517  -0.002
C  C61  1  0.79357220  0.63062998  0.44357115  1  -0.020042  -0.031605  -0.001198  3.989369  -0.002
C  C62  1  0.07464758  0.33756535  0.56390466  1  -0.081621  -0.090436  0.00076  3.98582  0.001
C  C63  1  0.92536272  0.66242965  0.43609563  1  -0.081653  -0.090358  0.000761  3.985858  0.001
C  C64  1  0.03364861  0.32251673  0.44623381  1  -0.097094  -0.093597  -0.00018  4.033567  0.0
C  C65  1  0.96635686  0.67747271  0.55376932  1  -0.097029  -0.09368  -0.00018  4.033608  0.0
C  C66  1  0.12444815  0.33692267  0.32128819  1  -0.088838  -0.100986  0.000525  3.977284  0.0
C  C67  1  0.87556311  0.66307346  0.67871251  1  -0.088797  -0.100929  0.000525  3.977331  0.0
C  C68  1  0.25703328  0.36672508  0.31300845  1  -0.023241  -0.041083  0.001257  3.980396  0.001
C  C69  1  0.74297593  0.63327449  0.68699245  1  -0.023232  -0.041135  0.001256  3.980274  0.001
C  C70  1  0.29689222  0.38470916  0.43084228  1  -0.082209  -0.11873  0.00101  3.937968  0.001
C  C71  1  0.70311995  0.61529031  0.56915512  1  -0.082231  -0.118677  0.00101  3.938091  0.001
C  C72  1  0.35906430  0.37796279  0.18201285  1  0.209639  0.567529  -0.002561  4.187511  -0.004
C  C73  1  0.64093775  0.62204702  0.81798193  1  0.209641  0.567452  -0.002559  4.187251  -0.004
N  N74  1  0.50569189  0.28707847  0.86066390  1  -0.329721  -0.19864  -0.019571  3.593531  -0.017
N  N75  1  0.49429855  0.71291914  0.13933832  1  -0.329654  -0.19859  -0.019571  3.593416  -0.017
N  N76  1  0.23968830  0.61670004  0.85017996  1  -0.328374  -0.168863  -0.02226  3.592392  -0.02
N  N77  1  0.76031086  0.38330632  0.14980965  1  -0.328539  -0.169238  -0.022261  3.59288  -0.02
O  O78  1  0.34131236  0.46810178  0.66904127  1  -0.305287  -0.512063  0.027146  2.34665  0.028
O  O79  1  0.65869284  0.53189995  0.33094878  1  -0.305333  -0.51217  0.027143  2.346708  0.028
O  O80  1  0.19199734  0.29630268  0.80840714  1  -0.31095  -0.548627  -0.003063  2.207068  -0.004
O  O81  1  0.80799461  0.70371544  0.19160055  1  -0.310834  -0.548611  -0.003057  2.207259  -0.004
O  O82  1  0.47922098  0.37832075  0.19057387  1  -0.310532  -0.565203  -0.006722  2.355622  -0.005
O  O83  1  0.52079499  0.62168644  0.80941222  1  -0.310587  -0.565172  -0.006722  2.355748  -0.005
O  O84  1  0.31288775  0.38210791  0.07047986  1  -0.307578  -0.528126  0.023364  2.485363  0.024
O  O85  1  0.68711622  0.61790427  0.92952263  1  -0.307597  -0.528078  0.023364  2.485094  0.024
