# generated using pymatgen
data_CuH14C20(N2O3)2
_symmetry_space_group_name_H-M   'P 1'
_cell_length_a   9.53277588
_cell_length_b   8.42558315
_cell_length_c   13.85134870
_cell_angle_alpha   84.40648703
_cell_angle_beta   69.78735299
_cell_angle_gamma   73.92402568
_symmetry_Int_Tables_number   1
_chemical_formula_structural   CuH14C20(N2O3)2
_chemical_formula_sum   'Cu2 H28 C40 N8 O12'
_cell_volume   1003.18819382
_cell_formula_units_Z   2
loop_
 _symmetry_equiv_pos_site_id
 _symmetry_equiv_pos_as_xyz
  1  'x, y, z'
loop_
 _atom_site_type_symbol
 _atom_site_label
 _atom_site_symmetry_multiplicity
 _atom_site_fract_x
 _atom_site_fract_y
 _atom_site_fract_z
 _atom_site_occupancy
 _atom_site_hle17_ddec_charge
 _atom_site_hle17_ddec_spin_density
 _atom_site_hle17_ddec_sum_bond_order
 _atom_site_hle17_magmom
 _atom_site_hse06_10hf_ddec_charge
 _atom_site_hse06_10hf_ddec_spin_density
 _atom_site_hse06_10hf_ddec_sum_bond_order
 _atom_site_hse06_10hf_magmom
 _atom_site_hse06_ddec_charge
 _atom_site_hse06_ddec_spin_density
 _atom_site_hse06_ddec_sum_bond_order
 _atom_site_hse06_magmom
 _atom_site_pbe_cm5_charge
 _atom_site_pbe_ddec_charge
 _atom_site_pbe_ddec_spin_density
 _atom_site_pbe_ddec_sum_bond_order
 _atom_site_pbe_magmom
Cu  Cu0  1  0.99999720  0.99998995  0.49999903  1  0.826986  -0.725439  1.869953  -0.507  0.81362  -0.813601  2.248248  -0.631  0.902277  -0.894732  2.185792  -0.722  0.731851  0.760322  -0.739833  2.289088  -0.559
Cu  Cu1  1  0.50000318  0.49999766  0.49999848  1  0.828204  0.725167  1.866768  0.507  0.814479  0.813642  2.245601  0.631  0.903613  0.894931  2.182673  0.722  0.731124  0.760904  0.740052  2.286971  0.559
H  H2  1  0.81633600  0.90085250  0.39443929  1  0.108233  -0.001037  0.922154  -0.002  0.118554  -0.000812  0.978197  -0.001  0.121224  -0.000597  0.975384  -0.001  0.129432  0.116079  -0.001  0.980713  -0.002
H  H3  1  0.79026410  0.59761616  0.39336224  1  0.107731  0.00102  0.922751  0.002  0.118157  0.000811  0.978978  0.001  0.120837  0.000595  0.976117  0.001  0.12909  0.115611  0.000991  0.981604  0.002
H  H4  1  0.18364720  0.09915371  0.60555640  1  0.108126  -0.001031  0.922191  -0.002  0.118454  -0.000813  0.978233  -0.001  0.121117  -0.000597  0.97543  -0.001  0.129389  0.11598  -0.001  0.980747  -0.002
H  H5  1  0.20973511  0.40239274  0.60664128  1  0.107787  0.001027  0.922938  0.002  0.118203  0.00081  0.979146  0.001  0.120891  0.000594  0.976278  0.001  0.129117  0.115655  0.00099  0.981778  0.002
H  H6  1  0.81370252  0.90582012  0.21159190  1  0.107646  -0.000459  0.961048  0.0  0.115903  -0.000448  1.022999  -0.001  0.118883  -0.00032  1.022118  0.0  0.106961  0.113515  -0.000559  1.024052  -0.001
H  H7  1  0.97577906  0.59246438  0.21024488  1  0.107824  0.000454  0.963985  0.0  0.116055  0.000444  1.025663  0.001  0.119069  0.000318  1.024732  0.0  0.106707  0.113692  0.000552  1.026693  0.001
H  H8  1  0.18629668  0.09418336  0.78840082  1  0.107767  -0.00046  0.960943  0.0  0.116021  -0.000448  1.022887  -0.001  0.119005  -0.00032  1.022  0.0  0.10702  0.113626  -0.000559  1.023935  -0.001
H  H9  1  0.02421991  0.40754194  0.78975740  1  0.107892  0.000453  0.963887  0.0  0.116119  0.000444  1.025571  0.001  0.119131  0.000318  1.024648  0.0  0.106736  0.113755  0.000552  1.0266  0.001
H  H10  1  0.99453632  0.03562415  0.07416527  1  0.123822  -0.00026  0.955425  0.0  0.132173  -2e-06  1.016192  0.0  0.136072  1.6e-05  1.012291  0.0  0.112152  0.129381  -1.8e-05  1.019002  0.0
H  H11  1  0.93114067  0.46366999  0.07349506  1  0.123549  0.000257  0.955183  0.0  0.132266  2e-06  1.015738  0.0  0.136101  -1.6e-05  1.01183  0.0  0.111916  0.129444  1.4e-05  1.018656  0.0
H  H12  1  0.00546733  0.96437591  0.92582848  1  0.123882  -0.00026  0.955431  0.0  0.132197  -2e-06  1.016231  0.0  0.136099  1.6e-05  1.012321  0.0  0.112142  0.129405  -1.8e-05  1.019041  0.0
H  H13  1  0.06886868  0.53632206  0.92651002  1  0.123564  0.000256  0.955098  0.0  0.132268  2e-06  1.015678  0.0  0.136107  -1.6e-05  1.01176  0.0  0.111886  0.129442  1.4e-05  1.018595  0.0
H  H14  1  0.16376838  0.14329550  0.30652438  1  0.110883  -0.001026  0.911427  -0.002  0.121588  -0.000865  0.96852  -0.001  0.124361  -0.00064  0.96552  -0.001  0.12951  0.119008  -0.001026  0.971233  -0.001
H  H15  1  0.52856041  0.35718518  0.30690234  1  0.108722  0.001029  0.910779  0.002  0.119111  0.000862  0.968411  0.001  0.121889  0.000638  0.965408  0.001  0.128212  0.116551  0.001028  0.971124  0.001
H  H16  1  0.83622769  0.85669050  0.69347901  1  0.110916  -0.001034  0.911458  -0.002  0.121603  -0.000864  0.968541  -0.001  0.124364  -0.00064  0.965556  -0.001  0.129505  0.119022  -0.001025  0.971252  -0.001
H  H17  1  0.47145462  0.64281093  0.69309915  1  0.108698  0.001024  0.910674  0.002  0.119067  0.000863  0.968329  0.001  0.121848  0.000638  0.965321  0.001  0.128152  0.116508  0.001029  0.971039  0.001
H  H18  1  0.23926058  0.25441857  0.13521131  1  0.2946  -1.2e-05  0.884118  0.0  0.284285  -4e-05  0.935989  0.0  0.290683  -2.4e-05  0.931343  0.0  0.323521  0.279584  -5.5e-05  0.939557  0.0
H  H19  1  0.62394986  0.24614109  0.13570000  1  0.296327  1.2e-05  0.883358  0.0  0.286353  3.9e-05  0.93456  0.0  0.292747  2.4e-05  0.929899  0.0  0.324196  0.281674  4.3e-05  0.938107  0.0
H  H20  1  0.76074429  0.74557074  0.86479687  1  0.294668  -1.2e-05  0.883997  0.0  0.284359  -3.9e-05  0.935862  0.0  0.290757  -2.4e-05  0.931209  0.0  0.323519  0.279657  -5.5e-05  0.939429  0.0
H  H21  1  0.37607292  0.75383415  0.86430103  1  0.296324  1.1e-05  0.883185  0.0  0.286261  3.9e-05  0.934511  0.0  0.292654  2.4e-05  0.929848  0.0  0.324157  0.281578  4.3e-05  0.938058  0.0
H  H22  1  0.41479164  0.14929422  0.80292115  1  0.103719  -1.4e-05  0.940207  0.0  0.114877  -8e-06  0.99891  0.0  0.118864  -7e-06  0.99561  0.0  0.109609  0.111863  -1.9e-05  1.001432  0.0
H  H23  1  0.78384561  0.35001902  0.80298348  1  0.103156  1.3e-05  0.939801  0.0  0.113625  8e-06  0.999096  0.0  0.117541  7e-06  0.99592  0.0  0.109298  0.110623  2e-05  1.001629  0.0
H  H24  1  0.58519058  0.85073477  0.19708000  1  0.103829  -1.8e-05  0.940082  0.0  0.114875  -8e-06  0.998901  0.0  0.118862  -7e-06  0.995601  0.0  0.109608  0.111866  -1.9e-05  1.001419  0.0
H  H25  1  0.21616249  0.64996897  0.19701617  1  0.103163  1.1e-05  0.939721  0.0  0.113632  8e-06  0.999031  0.0  0.117548  7e-06  0.995855  0.0  0.109322  0.11063  2e-05  1.001565  0.0
H  H26  1  0.64710306  0.24948303  0.70825602  1  0.096702  6e-06  0.998241  0.0  0.10932  1e-06  1.054578  0.0  0.11072  1e-06  1.055421  0.0  0.106495  0.107967  7e-06  1.054411  0.0
H  H27  1  0.35289071  0.75052532  0.29174302  1  0.096795  4e-06  0.998381  0.0  0.109383  1e-06  1.05471  0.0  0.110782  1e-06  1.055552  0.0  0.106518  0.108031  7e-06  1.054543  0.0
H  H28  1  0.45484148  0.25030412  0.08913474  1  0.07792  5e-06  0.969258  0.0  0.090113  -0.0  1.032626  0.0  0.093759  0.0  1.02901  0.0  0.106532  0.087477  -2e-06  1.035304  0.0
H  H29  1  0.54515684  0.74969469  0.91087045  1  0.077948  -2e-06  0.969312  0.0  0.090091  -0.0  1.032733  0.0  0.093711  0.0  1.02915  0.0  0.106503  0.087457  -2e-06  1.035413  0.0
C  C30  1  0.89399893  0.95464595  0.33078308  1  0.11447  0.007286  3.664521  0.008  0.084324  0.001037  3.915113  0.002  0.091782  0.00199  3.93449  0.003  0.048074  0.079372  0.000291  3.903495  0.001
C  C31  1  0.77573687  0.54430616  0.32995618  1  0.114685  -0.007234  3.666357  -0.008  0.084102  -0.001034  3.917133  -0.002  0.091509  -0.001989  3.936557  -0.003  0.047476  0.079319  -0.000305  3.905374  -0.001
C  C32  1  0.10598828  0.04535690  0.66921633  1  0.114669  0.007266  3.664966  0.008  0.084531  0.001034  3.915533  0.002  0.091994  0.00199  3.934911  0.003  0.048203  0.079578  0.00029  3.903907  0.001
C  C33  1  0.22425998  0.45568738  0.67004529  1  0.114644  -0.007261  3.666369  -0.008  0.084065  -0.001035  3.917148  -0.002  0.091466  -0.001988  3.936565  -0.003  0.047354  0.079274  -0.000305  3.905394  -0.001
C  C34  1  0.89352166  0.95811053  0.23026236  1  -0.106102  -0.009061  3.750131  -0.009  -0.117691  -0.003377  4.005313  -0.004  -0.123805  -0.003175  4.026089  -0.004  -0.083437  -0.113755  -0.003419  3.991693  -0.004
C  C35  1  0.87676862  0.54074510  0.22932374  1  -0.109075  0.009034  3.755806  0.009  -0.120518  0.003365  4.011188  0.004  -0.126674  0.003165  4.031978  0.004  -0.084605  -0.116554  0.003415  3.99744  0.004
C  C36  1  0.10647551  0.04189156  0.76973057  1  -0.106318  -0.009056  3.750036  -0.009  -0.117906  -0.003376  4.005209  -0.004  -0.124021  -0.003177  4.025978  -0.004  -0.083515  -0.113964  -0.003419  3.991585  -0.004
C  C37  1  0.12323688  0.45925807  0.77068303  1  -0.109081  0.009038  3.755913  0.009  -0.12052  0.003364  4.011276  0.004  -0.126676  0.003162  4.03208  0.004  -0.084581  -0.116557  0.003413  3.997522  0.004
C  C38  1  0.99445208  0.03066538  0.15268080  1  -0.094067  0.008667  3.675212  0.008  -0.124946  0.00264  3.931292  0.003  -0.12271  0.002852  3.947046  0.003  -0.074065  -0.126377  0.002371  3.92068  0.002
C  C39  1  0.85281671  0.46857650  0.15213858  1  -0.090169  -0.008641  3.673712  -0.008  -0.121352  -0.002634  3.929741  -0.003  -0.118982  -0.002846  3.945511  -0.003  -0.072487  -0.122818  -0.002413  3.919162  -0.002
C  C40  1  0.00554452  0.96932559  0.84731944  1  -0.094084  0.008666  3.675143  0.008  -0.124978  0.00264  3.931223  0.003  -0.12273  0.002854  3.946984  0.003  -0.074063  -0.126411  0.002371  3.920606  0.002
C  C41  1  0.14718969  0.53142405  0.84786354  1  -0.090266  -0.008638  3.673791  -0.008  -0.121423  -0.002633  3.929809  -0.003  -0.119052  -0.002844  3.945581  -0.003  -0.072513  -0.122884  -0.002412  3.919207  -0.002
C  C42  1  0.09506405  0.09876443  0.17854244  1  0.201293  -0.008146  3.805316  -0.009  0.200533  -0.00316  4.054493  -0.004  0.203022  -0.002992  4.077743  -0.004  0.100514  0.198418  -0.003213  4.039112  -0.004
C  C43  1  0.72567851  0.40117215  0.17848692  1  0.199039  0.008129  3.803491  0.009  0.197808  0.003154  4.053658  0.004  0.200271  0.002985  4.076888  0.004  0.099826  0.195718  0.003214  4.0383  0.004
C  C44  1  0.90493385  0.90123675  0.82145907  1  0.201405  -0.008143  3.805429  -0.009  0.200715  -0.003159  4.054468  -0.004  0.203171  -0.002992  4.077757  -0.004  0.100542  0.198606  -0.003212  4.03908  -0.004
C  C45  1  0.27433333  0.59882509  0.82151747  1  0.198838  0.008137  3.803808  0.009  0.19757  0.003155  4.05399  0.004  0.200025  0.002985  4.077225  0.004  0.099801  0.195487  0.003215  4.038596  0.004
C  C46  1  0.08756774  0.09332120  0.28172115  1  0.028356  0.007235  3.655237  0.008  -0.008495  0.000952  3.915579  0.002  -0.002255  0.001878  3.93376  0.003  0.048936  -0.012508  0.000264  3.904685  0.001
C  C47  1  0.62999269  0.40675328  0.28174545  1  0.032003  -0.00723  3.653611  -0.008  -0.004002  -0.000947  3.912693  -0.002  0.002198  -0.001869  3.930831  -0.003  0.051067  -0.007979  -0.000185  3.901848  -0.001
C  C48  1  0.91242728  0.90667465  0.71827810  1  0.028299  0.007258  3.65509  0.008  -0.008516  0.000954  3.915358  0.002  -0.002252  0.001881  3.93355  0.003  0.048971  -0.012527  0.000266  3.904459  0.001
C  C49  1  0.37001566  0.59323094  0.71825394  1  0.032176  -0.007216  3.653998  -0.008  -0.003751  -0.000945  3.913012  -0.002  0.002454  -0.001868  3.931156  -0.003  0.051196  -0.007734  -0.000184  3.902159  -0.001
C  C50  1  0.27811903  0.13247595  0.00442755  1  0.549283  -0.00062  3.822953  -0.001  0.504335  -0.000311  4.108591  0.0  0.533737  -0.000246  4.108118  0.0  0.244036  0.484526  -0.000407  4.10825  0.0
C  C51  1  0.71700777  0.36773831  0.00453718  1  0.552048  0.000623  3.818873  0.001  0.506302  0.00031  4.105593  0.0  0.535676  0.000246  4.10514  0.0  0.245237  0.486525  0.000318  4.105272  0.0
C  C52  1  0.72187715  0.86754027  0.99557571  1  0.549487  -0.000624  3.82243  -0.001  0.504454  -0.000312  4.108249  0.0  0.533857  -0.000246  4.107771  0.0  0.244063  0.484649  -0.000407  4.10791  0.0
C  C53  1  0.28299152  0.63225042  0.99546554  1  0.552299  0.000622  3.818632  0.001  0.506521  0.000309  4.105419  0.0  0.535894  0.000246  4.104959  0.0  0.245373  0.48673  0.000318  4.105096  0.0
C  C54  1  0.41821237  0.19534394  0.95226514  1  -0.068377  -0.000103  3.780515  0.0  -0.046693  -6.5e-05  4.021891  0.0  -0.054774  -3.9e-05  4.045604  0.0  -0.018161  -0.041425  -9.1e-05  4.005583  0.0
C  C55  1  0.62962866  0.30469352  0.95233226  1  -0.067504  8e-05  3.780311  0.0  -0.045449  6.2e-05  4.021388  0.0  -0.053477  3.9e-05  4.045036  0.0  -0.017075  -0.040228  7.5e-05  4.005096  0.0
C  C56  1  0.58177388  0.80466900  0.04773675  1  -0.068237  -9.2e-05  3.780445  0.0  -0.046659  -6.1e-05  4.021964  0.0  -0.054735  -3.8e-05  4.045671  0.0  -0.01814  -0.041396  -9.1e-05  4.005655  0.0
C  C57  1  0.37036186  0.69530116  0.04767868  1  -0.067652  8.1e-05  3.779928  0.0  -0.045643  6.5e-05  4.021129  0.0  -0.05367  4.1e-05  4.044773  0.0  -0.017102  -0.040417  7.5e-05  4.004829  0.0
C  C58  1  0.47501003  0.19326743  0.84448309  1  -0.043976  2e-05  3.692649  0.0  -0.072424  -1.8e-05  3.942185  0.0  -0.070283  -5e-06  3.960101  0.0  -0.07137  -0.073256  -3.5e-05  3.929846  0.0
C  C59  1  0.68168040  0.30626426  0.84453474  1  -0.044716  1.3e-05  3.691628  0.0  -0.072593  1.6e-05  3.941121  0.0  -0.070426  8e-06  3.958963  0.0  -0.072471  -0.073367  -8e-06  3.928814  0.0
C  C60  1  0.52498083  0.80675942  0.15551106  1  -0.044092  1.9e-05  3.692469  0.0  -0.072415  -1.8e-05  3.942027  0.0  -0.070282  -7e-06  3.959949  0.0  -0.071386  -0.07325  -3.5e-05  3.929692  0.0
C  C61  1  0.31831977  0.69373455  0.15546631  1  -0.044637  1.2e-05  3.691593  0.0  -0.072524  1.7e-05  3.941142  0.0  -0.070361  6e-06  3.958988  0.0  -0.072508  -0.073298  -8e-06  3.928833  0.0
C  C62  1  0.60506666  0.24972118  0.79146997  1  -0.055512  -2.3e-05  3.743554  0.0  -0.067744  2e-06  3.994164  0.0  -0.071766  -2e-06  4.016891  0.0  -0.085168  -0.065615  -3e-06  3.979341  0.0
C  C63  1  0.39492614  0.75028612  0.20853713  1  -0.05572  -1.3e-05  3.743341  0.0  -0.067884  0.0  3.993861  0.0  -0.071903  0.0  4.016585  0.0  -0.085187  -0.06576  -3e-06  3.979046  0.0
C  C64  1  0.49712184  0.25020140  0.00532409  1  -0.087213  -3e-06  3.732585  0.0  -0.128344  2e-06  3.992228  0.0  -0.125827  2e-06  4.010916  0.0  -0.081404  -0.129709  -2.6e-05  3.979393  0.0
C  C65  1  0.50288822  0.74980181  0.99467466  1  -0.087202  1.1e-05  3.732387  0.0  -0.128214  -1e-06  3.992055  0.0  -0.125678  -3e-06  4.010749  0.0  -0.081341  -0.129579  -2.6e-05  3.979218  0.0
C  C66  1  0.78177327  0.30927736  0.53805500  1  0.500523  0.006057  3.952393  0.01  0.4641  0.000891  4.267529  0.004  0.495677  0.000826  4.263196  0.003  0.17926  0.442395  0.000842  4.269612  0.004
C  C67  1  0.67986656  0.19045118  0.53851937  1  0.504105  -0.006073  3.94936  -0.01  0.4681  -0.000896  4.263998  -0.004  0.49966  -0.000831  4.259739  -0.003  0.181242  0.446345  -0.000851  4.266159  -0.004
C  C68  1  0.21822933  0.69072142  0.46194020  1  0.500689  0.006057  3.95223  0.01  0.464245  0.000892  4.267372  0.004  0.495825  0.000826  4.263032  0.003  0.179336  0.44254  0.000842  4.269456  0.004
C  C69  1  0.32013124  0.80954976  0.46147553  1  0.503929  -0.006071  3.949702  -0.01  0.467974  -0.000895  4.264293  -0.004  0.499531  -0.000831  4.260035  -0.003  0.181145  0.446217  -0.000851  4.266451  -0.004
N  N70  1  0.98999320  0.02244042  0.35499917  1  -0.265268  -0.06951  3.363455  -0.085  -0.21273  -0.048919  3.646516  -0.064  -0.241165  -0.04129  3.672544  -0.057  -0.338429  -0.197103  -0.05194  3.632094  -0.066
N  N71  1  0.65491732  0.47710923  0.35469753  1  -0.266145  0.069338  3.364257  0.085  -0.213392  0.048815  3.64727  0.064  -0.241784  0.041185  3.673225  0.057  -0.338279  -0.197857  0.05186  3.632966  0.065
N  N72  1  0.01000264  0.97755800  0.64499961  1  -0.265296  -0.06951  3.363615  -0.085  -0.212788  -0.048917  3.646654  -0.064  -0.241232  -0.04129  3.672689  -0.057  -0.338486  -0.197161  -0.051938  3.63223  -0.066
N  N73  1  0.34508595  0.52289611  0.64530408  1  -0.266275  0.069333  3.364501  0.085  -0.213548  0.04881  3.647526  0.064  -0.241939  0.04118  3.673484  0.057  -0.338291  -0.198013  0.051858  3.633218  0.065
N  N74  1  0.20506993  0.17049748  0.10684426  1  -0.436538  -0.000669  3.359773  0.0  -0.384197  -0.000443  3.597223  0.0  -0.405919  -0.000365  3.607956  0.0  -0.395338  -0.369313  -0.000508  3.589812  0.0
N  N75  1  0.68694161  0.32988583  0.10709672  1  -0.437972  0.000664  3.360008  0.0  -0.385358  0.000443  3.597232  0.0  -0.407048  0.000366  3.607944  0.0  -0.394419  -0.370426  0.000535  3.589745  0.0
N  N76  1  0.79493160  0.82949771  0.89315875  1  -0.436869  -0.000673  3.359426  0.0  -0.384524  -0.000443  3.596897  0.0  -0.406232  -0.000365  3.607629  0.0  -0.395459  -0.369646  -0.000508  3.589489  0.0
N  N77  1  0.31306950  0.67010118  0.89290469  1  -0.43797  0.000664  3.360009  0.0  -0.385239  0.000444  3.597264  0.0  -0.406937  0.000365  3.608013  0.0  -0.394443  -0.370299  0.000535  3.589777  0.0
O  O78  1  0.23563993  0.04702556  0.95743615  1  -0.545628  -0.000503  1.940023  -0.001  -0.504339  -0.000181  2.163788  0.0  -0.525592  -0.000154  2.159763  0.0  -0.28659  -0.489616  -0.000279  2.165989  0.0
O  O79  1  0.80670205  0.45330926  0.95737517  1  -0.548229  0.000506  1.93999  0.001  -0.506727  0.000181  2.164652  0.0  -0.527985  0.000148  2.160568  0.0  -0.288114  -0.492006  0.000236  2.166917  0.0
O  O80  1  0.76435080  0.95299646  0.04256411  1  -0.545737  -0.000506  1.940222  -0.001  -0.504336  -0.000183  2.163968  0.0  -0.525592  -0.000152  2.159943  0.0  -0.286547  -0.489613  -0.000279  2.166163  0.0
O  O81  1  0.19329230  0.54669813  0.04263146  1  -0.548231  0.000504  1.940069  0.001  -0.506706  0.000179  2.164756  0.0  -0.527959  0.00015  2.16067  0.0  -0.288108  -0.49199  0.000236  2.167034  0.0
O  O82  1  0.92674194  0.24389134  0.51984914  1  -0.538686  -0.096189  2.059834  -0.124  -0.525925  -0.060101  2.327264  -0.086  -0.566253  -0.045813  2.320384  -0.069  -0.326854  -0.498091  -0.068409  2.331025  -0.094
O  O83  1  0.55288867  0.25594631  0.52060864  1  -0.539443  0.09649  2.056154  0.124  -0.526896  0.060212  2.323286  0.086  -0.56737  0.045846  2.31648  0.069  -0.32698  -0.49899  0.068593  2.327109  0.094
O  O84  1  0.07325985  0.75609852  0.48014504  1  -0.538749  -0.096181  2.059825  -0.124  -0.525996  -0.060101  2.327285  -0.086  -0.566324  -0.045814  2.320395  -0.069  -0.326886  -0.498162  -0.068407  2.331049  -0.094
O  O85  1  0.44711066  0.74405722  0.47938506  1  -0.539358  0.09649  2.056178  0.124  -0.526836  0.060209  2.323288  0.086  -0.567307  0.045842  2.31648  0.069  -0.326946  -0.498931  0.068592  2.327111  0.094
O  O86  1  0.71521219  0.45888056  0.55878903  1  -0.574318  -0.013464  1.97265  -0.016  -0.552502  -0.007404  2.208936  -0.009  -0.577001  -0.004328  2.196336  -0.005  -0.327406  -0.533687  -0.01147  2.216087  -0.015
O  O87  1  0.72547430  0.04088053  0.55965044  1  -0.575284  0.013473  1.9713  0.016  -0.553722  0.007396  2.20728  0.009  -0.578136  0.004316  2.194686  0.005  -0.32814  -0.535014  0.011462  2.214459  0.015
O  O88  1  0.28479342  0.54111338  0.44120571  1  -0.574371  -0.013473  1.972496  -0.016  -0.55254  -0.007405  2.208778  -0.009  -0.57704  -0.004327  2.196178  -0.005  -0.327448  -0.533724  -0.011472  2.215931  -0.015
O  O89  1  0.27451660  0.95912000  0.44034706  1  -0.575253  0.013471  1.971485  0.016  -0.553704  0.007395  2.20744  0.009  -0.578115  0.004317  2.194849  0.005  -0.328091  -0.534996  0.011463  2.214617  0.015
