# generated using pymatgen
data_CaH16C16(N5O3)2
_symmetry_space_group_name_H-M   'P 1'
_cell_length_a   4.79447693
_cell_length_b   15.26069123
_cell_length_c   16.20520231
_cell_angle_alpha   116.86108785
_cell_angle_beta   98.49608107
_cell_angle_gamma   89.99282004
_symmetry_Int_Tables_number   1
_chemical_formula_structural   CaH16C16(N5O3)2
_chemical_formula_sum   'Ca2 H32 C32 N20 O12'
_cell_volume   1043.16140539
_cell_formula_units_Z   2
loop_
 _symmetry_equiv_pos_site_id
 _symmetry_equiv_pos_as_xyz
  1  'x, y, z'
loop_
 _atom_site_type_symbol
 _atom_site_label
 _atom_site_symmetry_multiplicity
 _atom_site_fract_x
 _atom_site_fract_y
 _atom_site_fract_z
 _atom_site_occupancy
 _atom_site_hle17_bader_spin_density
 _atom_site_hle17_ddec_charge
 _atom_site_hle17_ddec_spin_density
 _atom_site_hle17_ddec_sum_bond_order
 _atom_site_hle17_magmom
 _atom_site_hse06_10hf_bader_spin_density
 _atom_site_hse06_10hf_ddec_charge
 _atom_site_hse06_10hf_ddec_spin_density
 _atom_site_hse06_10hf_ddec_sum_bond_order
 _atom_site_hse06_10hf_magmom
 _atom_site_hse06_bader_spin_density
 _atom_site_hse06_ddec_charge
 _atom_site_hse06_ddec_spin_density
 _atom_site_hse06_ddec_sum_bond_order
 _atom_site_hse06_magmom
 _atom_site_pbe_bader_spin_density
 _atom_site_pbe_cm5_charge
 _atom_site_pbe_ddec_charge
 _atom_site_pbe_ddec_spin_density
 _atom_site_pbe_ddec_sum_bond_order
 _atom_site_pbe_magmom
Ca  Ca0  1  0.99999957  0.50000004  0.99999961  1  0  1.541805  0  1.102279  0  0  1.419839  0  1.444047  0  0  1.459787  0  1.401295  0  0  0.884712  1.390056  0  1.473971  0
Ca  Ca1  1  0.00000070  0.00000081  0.99999947  1  0  1.542104  0  1.10226  0  0  1.420948  0  1.44216  0  0  1.461081  0  1.399108  0  0  0.885117  1.39072  0  1.472827  0
H  H2  1  0.55765894  0.36178530  0.88680583  1  0  0.422529  0  0.868975  0  0  0.389825  0  0.938787  0  0  0.400733  0  0.922534  0  0  0.305421  0.382063  0  0.950336  0
H  H3  1  0.67040772  0.13816761  0.11308353  1  0  0.421581  0  0.870108  0  0  0.388586  0  0.94053  0  0  0.399491  0  0.924314  0  0  0.304945  0.380823  0  0.952053  0
H  H4  1  0.44234117  0.63821427  0.11319284  1  0  0.42251  0  0.868998  0  0  0.389806  0  0.938815  0  0  0.400713  0  0.922564  0  0  0.305419  0.382043  0  0.950366  0
H  H5  1  0.32959030  0.86183197  0.88691630  1  0  0.421497  0  0.870221  0  0  0.38848  0  0.940664  0  0  0.399382  0  0.924453  0  0  0.304898  0.380717  0  0.952187  0
H  H6  1  0.77208669  0.33349594  0.81203856  1  0  0.392279  0  0.933206  0  0  0.347872  0  1.019377  0  0  0.359809  0  1.002281  0  0  0.282614  0.339497  0  1.031339  0
H  H7  1  0.95948402  0.16640641  0.18788999  1  0  0.392479  0  0.932937  0  0  0.34808  0  1.019161  0  0  0.360022  0  1.002062  0  0  0.283016  0.339701  0  1.031124  0
H  H8  1  0.22791797  0.66650512  0.18796216  1  0  0.392269  0  0.933221  0  0  0.34785  0  1.019398  0  0  0.359788  0  1.002301  0  0  0.282605  0.339476  0  1.03136  0
H  H9  1  0.04051400  0.83359317  0.81210922  1  0  0.39247  0  0.932955  0  0  0.348065  0  1.01919  0  0  0.360008  0  1.002089  0  0  0.283001  0.339685  0  1.031153  0
H  H10  1  0.22694574  0.43548184  0.16638669  1  0  0.143816  0  0.922847  0  0  0.151378  0  0.987864  0  0  0.154827  0  0.985204  0  0  0.136697  0.148935  0  0.98986  0
H  H11  1  0.06065737  0.06463486  0.83363722  1  0  0.142516  0  0.923681  0  0  0.150445  0  0.988491  0  0  0.153927  0  0.985796  0  0  0.136485  0.147981  0  0.990452  0
H  H12  1  0.77304790  0.56451701  0.83361264  1  0  0.143792  0  0.922851  0  0  0.151328  0  0.987903  0  0  0.154773  0  0.985243  0  0  0.136677  0.148884  0  0.9899  0
H  H13  1  0.93933868  0.93536544  0.16636159  1  0  0.142528  0  0.923649  0  0  0.150429  0  0.988491  0  0  0.15391  0  0.985795  0  0  0.13648  0.147964  0  0.990451  0
H  H14  1  0.30718849  0.31011480  0.10897918  1  0  0.144204  0  0.899953  0  0  0.154639  0  0.959176  0  0  0.157987  0  0.956376  0  0  0.136323  0.15224  0  0.961325  0
H  H15  1  0.19834242  0.18995647  0.89106540  1  0  0.144045  0  0.899346  0  0  0.154756  0  0.958511  0  0  0.158135  0  0.955645  0  0  0.136345  0.152303  0  0.960659  0
H  H16  1  0.69280741  0.68988477  0.89101993  1  0  0.14423  0  0.899976  0  0  0.154665  0  0.95919  0  0  0.158013  0  0.956385  0  0  0.136325  0.152266  0  0.96134  0
H  H17  1  0.80165346  0.81004309  0.10893247  1  0  0.144045  0  0.899293  0  0  0.154739  0  0.958483  0  0  0.158121  0  0.955609  0  0  0.136312  0.152283  0  0.960631  0
H  H18  1  0.26941805  0.45796470  0.47901719  1  0  0.110734  0  0.976592  0  0  0.115235  0  1.04897  0  0  0.118767  0  1.047186  0  0  0.106737  0.112709  0  1.050342  0
H  H19  1  0.79011371  0.04205672  0.52067819  1  0  0.111192  0  0.975777  0  0  0.115864  0  1.047561  0  0  0.119401  0  1.045718  0  0  0.106646  0.11332  0  1.048967  0
H  H20  1  0.73057590  0.54203562  0.52098214  1  0  0.110728  0  0.976671  0  0  0.115242  0  1.049026  0  0  0.118774  0  1.047242  0  0  0.106716  0.112716  0  1.050397  0
H  H21  1  0.20989095  0.95794434  0.47932254  1  0  0.111223  0  0.97577  0  0  0.115899  0  1.047548  0  0  0.119437  0  1.045705  0  0  0.106676  0.113356  0  1.048955  0
H  H22  1  0.66477208  0.37573181  0.52933873  1  0  0.098291  0  0.939366  0  0  0.105764  0  1.004516  0  0  0.108896  0  1.001898  0  0  0.107759  0.103409  0  1.00654  0
H  H23  1  0.13553640  0.12423719  0.47047545  1  0  0.099167  0  0.939518  0  0  0.106223  0  1.00512  0  0  0.109408  0  1.002463  0  0  0.108073  0.103876  0  1.007127  0
H  H24  1  0.33522399  0.62426852  0.47066194  1  0  0.098303  0  0.939396  0  0  0.105777  0  1.004549  0  0  0.108907  0  1.001933  0  0  0.107777  0.103437  0  1.006559  0
H  H25  1  0.86446177  0.87576313  0.52952406  1  0  0.09914  0  0.939572  0  0  0.106194  0  1.005174  0  0  0.109378  0  1.002518  0  0  0.108062  0.103847  0  1.007182  0
H  H26  1  0.74347786  0.20056684  0.41723194  1  0  0.10119  0  0.971556  0  0  0.108902  0  1.036716  0  0  0.111522  0  1.036826  0  0  0.104221  0.107015  0  1.036779  0
H  H27  1  0.32701431  0.29925411  0.58273447  1  0  0.100811  0  0.97174  0  0  0.108386  0  1.037199  0  0  0.111011  0  1.037292  0  0  0.104064  0.106508  0  1.037256  0
H  H28  1  0.25652242  0.79943348  0.58276766  1  0  0.10119  0  0.971488  0  0  0.1089  0  1.036653  0  0  0.11152  0  1.036764  0  0  0.104222  0.107014  0  1.036715  0
H  H29  1  0.67298597  0.70074621  0.41726514  1  0  0.100836  0  0.971747  0  0  0.108413  0  1.037194  0  0  0.111039  0  1.037286  0  0  0.10408  0.106536  0  1.03725  0
H  H30  1  0.43373463  0.11921511  0.26091654  1  0  0.084046  0  0.948462  0  0  0.086099  0  1.020553  0  0  0.089508  0  1.017325  0  0  0.117714  0.083561  0  1.022985  0
H  H31  1  0.17351862  0.38054050  0.73910319  1  0  0.083544  0  0.948541  0  0  0.08572  0  1.020505  0  0  0.089087  0  1.017321  0  0  0.117454  0.0832  0  1.022905  0
H  H32  1  0.56626761  0.88078448  0.73908347  1  0  0.084093  0  0.948449  0  0  0.086132  0  1.02055  0  0  0.089541  0  1.017323  0  0  0.117724  0.083595  0  1.022982  0
H  H33  1  0.82648182  0.61946056  0.26089735  1  0  0.083552  0  0.94855  0  0  0.085733  0  1.0205  0  0  0.089096  0  1.017321  0  0  0.117454  0.083214  0  1.0229  0
C  C34  1  0.52305567  0.40809480  0.07081067  1  0  0.724981  0  3.87452  0  0  0.67602  0  4.178234  0  0  0.709774  0  4.170152  0  0  0.234983  0.653027  0  4.182965  0
C  C35  1  0.45243545  0.09183839  0.92910487  1  0  0.724212  0  3.87349  0  0  0.675276  0  4.17739  0  0  0.709023  0  4.169292  0  0  0.234629  0.652248  0  4.182067  0
C  C36  1  0.47694053  0.59190624  0.92918845  1  0  0.725078  0  3.874417  0  0  0.676121  0  4.178124  0  0  0.709872  0  4.170035  0  0  0.235006  0.653128  0  4.182857  0
C  C37  1  0.54756076  0.90816265  0.07089425  1  0  0.724184  0  3.873446  0  0  0.675213  0  4.177414  0  0  0.708959  0  4.169319  0  0  0.2346  0.652186  0  4.182091  0
C  C38  1  0.39701161  0.38669648  0.14247827  1  0  -0.230189  0  3.587688  0  0  -0.2894  0  3.846637  0  0  -0.291603  0  3.850109  0  0  -0.040027  -0.287976  0  3.844629  0
C  C39  1  0.25469056  0.11336440  0.85752793  1  0  -0.227993  0  3.586093  0  0  -0.287988  0  3.844957  0  0  -0.290236  0  3.84847  0  0  -0.039584  -0.286388  0  3.842732  0
C  C40  1  0.60298234  0.61330384  0.85752169  1  0  -0.230206  0  3.587747  0  0  -0.289395  0  3.846686  0  0  -0.29159  0  3.850157  0  0  -0.039992  -0.287973  0  3.84468  0
C  C41  1  0.74530760  0.88663590  0.14247096  1  0  -0.227943  0  3.585994  0  0  -0.287864  0  3.84482  0  0  -0.290113  0  3.848342  0  0  -0.039495  -0.28626  0  3.842593  0
C  C42  1  0.93527956  0.37954119  0.30789165  1  0  0.214202  0  3.79701  0  0  0.195551  0  4.075377  0  0  0.201559  0  4.092091  0  0  0.220864  0.191403  0  4.064201  0
C  C43  1  0.62740111  0.12034790  0.69194993  1  0  0.214546  0  3.798806  0  0  0.194826  0  4.078876  0  0  0.200725  0  4.095734  0  0  0.220763  0.190753  0  4.067632  0
C  C44  1  0.06472070  0.62045910  0.69210672  1  0  0.214138  0  3.797119  0  0  0.195522  0  4.075491  0  0  0.20153  0  4.092207  0  0  0.220833  0.191372  0  4.06432  0
C  C45  1  0.37260943  0.87965098  0.30805137  1  0  0.214643  0  3.798658  0  0  0.19491  0  4.078758  0  0  0.200806  0  4.095612  0  0  0.220817  0.19084  0  4.06751  0
C  C46  1  0.15880145  0.33326509  0.34248697  1  0  0.159773  0  3.801116  0  0  0.158162  0  4.042532  0  0  0.163195  0  4.063796  0  0  0.121306  0.154861  0  4.028097  0
C  C47  1  0.81643252  0.16661126  0.65734832  1  0  0.159092  0  3.801799  0  0  0.156863  0  4.044535  0  0  0.161932  0  4.065804  0  0  0.119909  0.153495  0  4.030177  0
C  C48  1  0.84119868  0.66673449  0.65751295  1  0  0.159784  0  3.800992  0  0  0.158079  0  4.042524  0  0  0.163112  0  4.063789  0  0  0.121281  0.154781  0  4.028089  0
C  C49  1  0.18357382  0.83338763  0.34265405  1  0  0.159072  0  3.80186  0  0  0.156837  0  4.044615  0  0  0.16192  0  4.065865  0  0  0.119921  0.153469  0  4.030255  0
C  C50  1  0.31826202  0.38404170  0.43221545  1  0  -0.131113  0  3.689947  0  0  -0.154701  0  3.939599  0  0  -0.161349  0  3.960993  0  0  -0.080439  -0.150335  0  3.925157  0
C  C51  1  0.88595196  0.11590822  0.56755613  1  0  -0.130587  0  3.688773  0  0  -0.153535  0  3.938214  0  0  -0.160181  0  3.959649  0  0  -0.0795  -0.149131  0  3.923741  0
C  C52  1  0.68173357  0.61595641  0.56778304  1  0  -0.131103  0  3.689741  0  0  -0.15467  0  3.939399  0  0  -0.161318  0  3.960792  0  0  -0.0804  -0.150305  0  3.924964  0
C  C53  1  0.11405224  0.88409065  0.43244427  1  0  -0.130658  0  3.688974  0  0  -0.1536  0  3.938381  0  0  -0.160254  0  3.959814  0  0  -0.079541  -0.149196  0  3.923909  0
C  C54  1  0.53357788  0.33700652  0.46025971  1  0  -0.012769  0  3.725154  0  0  -0.026495  0  3.97197  0  0  -0.024039  0  3.990984  0  0  -0.067935  -0.027781  0  3.958914  0
C  C55  1  0.07346085  0.16295419  0.53958167  1  0  -0.014399  0  3.723998  0  0  -0.027945  0  3.971002  0  0  -0.025558  0  3.98996  0  0  -0.068266  -0.029218  0  3.95796  0
C  C56  1  0.46641216  0.66299526  0.53974007  1  0  -0.012795  0  3.725139  0  0  -0.026532  0  3.971953  0  0  -0.024075  0  3.990964  0  0  -0.067975  -0.027831  0  3.958892  0
C  C57  1  0.92653960  0.83704688  0.46041950  1  0  -0.014345  0  3.724022  0  0  -0.027885  0  3.971014  0  0  -0.025497  0  3.989973  0  0  -0.068244  -0.029159  0  3.957972  0
C  C58  1  0.57916927  0.24064836  0.39856653  1  0  -0.113797  0  3.719696  0  0  -0.129075  0  3.97013  0  0  -0.135575  0  3.992753  0  0  -0.083466  -0.12484  0  3.954781  0
C  C59  1  0.18112423  0.25921927  0.60135159  1  0  -0.113344  0  3.719913  0  0  -0.128688  0  3.970569  0  0  -0.135189  0  3.993216  0  0  -0.083453  -0.124459  0  3.955208  0
C  C60  1  0.42083057  0.75934977  0.60143401  1  0  -0.113773  0  3.719783  0  0  -0.12904  0  3.970206  0  0  -0.135539  0  3.992829  0  0  -0.083455  -0.124805  0  3.954862  0
C  C61  1  0.81888028  0.74078107  0.39864944  1  0  -0.113397  0  3.719973  0  0  -0.12874  0  3.970628  0  0  -0.13524  0  3.993272  0  0  -0.083503  -0.124513  0  3.955273  0
C  C62  1  0.40597540  0.19468590  0.31097577  1  0  0.135611  0  3.695241  0  0  0.105876  0  3.951704  0  0  0.111804  0  3.96804  0  0  0.053615  0.102045  0  3.940681  0
C  C63  1  0.09557569  0.30513469  0.68898336  1  0  0.13718  0  3.695376  0  0  0.107371  0  3.951559  0  0  0.113316  0  3.967921  0  0  0.054123  0.103547  0  3.940529  0
C  C64  1  0.59402277  0.80531441  0.68902374  1  0  0.135547  0  3.695278  0  0  0.105817  0  3.951733  0  0  0.111746  0  3.968068  0  0  0.053616  0.101985  0  3.940712  0
C  C65  1  0.90443290  0.69486492  0.31101816  1  0  0.137134  0  3.695412  0  0  0.107321  0  3.951588  0  0  0.113268  0  3.967954  0  0  0.054118  0.103499  0  3.940554  0
N  N66  1  0.77375038  0.33328809  0.22290054  1  0  -0.273813  0  2.82352  0  0  -0.263706  0  3.09211  0  0  -0.268133  0  3.103013  0  0  -0.181141  -0.26079  0  3.085078  0
N  N67  1  0.55088472  0.16667432  0.77696596  1  0  -0.27411  0  2.825018  0  0  -0.263566  0  3.093772  0  0  -0.267974  0  3.104732  0  0  -0.180961  -0.260667  0  3.086726  0
N  N68  1  0.22624569  0.66671223  0.77709951  1  0  -0.273771  0  2.823471  0  0  -0.263677  0  3.092063  0  0  -0.268103  0  3.102967  0  0  -0.18111  -0.26076  0  3.085034  0
N  N69  1  0.44912387  0.83332530  0.22303556  1  0  -0.274126  0  2.825132  0  0  -0.263582  0  3.093893  0  0  -0.26799  0  3.104854  0  0  -0.180984  -0.260685  0  3.086848  0
N  N70  1  0.60253108  0.40161031  0.22345635  1  0  0.252123  0  3.562967  0  0  0.296612  0  3.848418  0  0  0.293932  0  3.869052  0  0  -0.000694  0.298164  0  3.834729  0
N  N71  1  0.37905356  0.09842174  0.77648014  1  0  0.252229  0  3.562738  0  0  0.296795  0  3.848057  0  0  0.294122  0  3.868642  0  0  -0.000642  0.2983  0  3.834374  0
N  N72  1  0.39746483  0.59838928  0.77654339  1  0  0.252143  0  3.562905  0  0  0.296639  0  3.848354  0  0  0.293956  0  3.868983  0  0  -0.0007  0.29819  0  3.834665  0
N  N73  1  0.62094641  0.90157711  0.22351947  1  0  0.252179  0  3.562901  0  0  0.296745  0  3.848216  0  0  0.294071  0  3.868802  0  0  -0.000656  0.298249  0  3.834535  0
N  N74  1  0.65105535  0.48659262  0.30275502  1  0  -0.103909  0  2.834818  0  0  -0.100623  0  3.121706  0  0  -0.097152  0  3.130457  0  0  -0.067549  -0.102705  0  3.115802  0
N  N75  1  0.34822867  0.01341549  0.69719572  1  0  -0.103586  0  2.833613  0  0  -0.100485  0  3.120637  0  0  -0.097031  0  3.12939  0  0  -0.067164  -0.102558  0  3.114749  0
N  N76  1  0.34894478  0.51340697  0.69724490  1  0  -0.103881  0  2.834793  0  0  -0.100593  0  3.121683  0  0  -0.097122  0  3.130436  0  0  -0.067526  -0.102673  0  3.115777  0
N  N77  1  0.65177341  0.98658337  0.30280398  1  0  -0.103607  0  2.83366  0  0  -0.100506  0  3.120676  0  0  -0.097052  0  3.129429  0  0  -0.06718  -0.102577  0  3.114788  0
N  N78  1  0.86264076  0.47344308  0.35708436  1  0  -0.263648  0  2.943605  0  0  -0.246029  0  3.233766  0  0  -0.253468  0  3.245041  0  0  -0.192385  -0.240833  0  3.226089  0
N  N79  1  0.50550418  0.02648133  0.64280943  1  0  -0.263918  0  2.945423  0  0  -0.245901  0  3.235997  0  0  -0.253297  0  3.247307  0  0  -0.192639  -0.240728  0  3.228292  0
N  N80  1  0.13735951  0.52655722  0.64291463  1  0  -0.263659  0  2.943628  0  0  -0.246043  0  3.233777  0  0  -0.253482  0  3.245052  0  0  -0.192389  -0.240845  0  3.226099  0
N  N81  1  0.49450440  0.97351827  0.35719147  1  0  -0.263907  0  2.945336  0  0  -0.245883  0  3.235913  0  0  -0.253279  0  3.247224  0  0  -0.19263  -0.24071  0  3.228207  0
N  N82  1  0.20075368  0.23967972  0.28317137  1  0  -0.323897  0  3.140907  0  0  -0.266758  0  3.379241  0  0  -0.279981  0  3.394349  0  0  -0.296037  -0.257821  0  3.369005  0
N  N83  1  0.91798380  0.26012361  0.71673287  1  0  -0.325232  0  3.141718  0  0  -0.267551  0  3.380069  0  0  -0.280787  0  3.395164  0  0  -0.29588  -0.258613  0  3.369865  0
N  N84  1  0.79924450  0.76032060  0.71682877  1  0  -0.323881  0  3.140867  0  0  -0.266702  0  3.379215  0  0  -0.279926  0  3.394324  0  0  -0.296035  -0.257765  0  3.36898  0
N  N85  1  0.08202658  0.73987453  0.28326812  1  0  -0.32519  0  3.14172  0  0  -0.267505  0  3.380059  0  0  -0.280746  0  3.395147  0  0  -0.29588  -0.258569  0  3.369857  0
O  O86  1  0.77563800  0.44307786  0.09067389  1  0  -0.681864  0  1.945698  0  0  -0.624472  0  2.181448  0  0  -0.651509  0  2.172328  0  0  -0.353816  -0.605419  0  2.187122  0
O  O87  1  0.68514244  0.05678838  0.90916423  1  0  -0.681684  0  1.945231  0  0  -0.624347  0  2.180834  0  0  -0.651445  0  2.171806  0  0  -0.353595  -0.605193  0  2.186478  0
O  O88  1  0.22435855  0.55692469  0.90932834  1  0  -0.681939  0  1.945744  0  0  -0.624541  0  2.181496  0  0  -0.651577  0  2.172374  0  0  -0.353843  -0.60549  0  2.187171  0
O  O89  1  0.31485571  0.94321191  0.09083404  1  0  -0.681671  0  1.94519  0  0  -0.624335  0  2.180834  0  0  -0.651432  0  2.171807  0  0  -0.353587  -0.605183  0  2.186477  0
O  O90  1  0.35090657  0.38872727  0.99573396  1  0  -0.718031  0  1.921372  0  0  -0.65416  0  2.155102  0  0  -0.681906  0  2.14332  0  0  -0.364062  -0.634256  0  2.162371  0
O  O91  1  0.35539533  0.11118014  0.00419665  1  0  -0.717819  0  1.921698  0  0  -0.653964  0  2.155161  0  0  -0.681677  0  2.143352  0  0  -0.363801  -0.634044  0  2.162536  0
O  O92  1  0.64909160  0.61127305  0.00426618  1  0  -0.718055  0  1.921235  0  0  -0.654199  0  2.154982  0  0  -0.681947  0  2.143202  0  0  -0.364077  -0.634285  0  2.162231  0
O  O93  1  0.64460511  0.88882092  0.99580390  1  0  -0.71781  0  1.921689  0  0  -0.653953  0  2.155184  0  0  -0.681664  0  2.143377  0  0  -0.363802  -0.634031  0  2.162553  0
O  O94  1  0.70055056  0.38946877  0.86577899  1  0  -0.901721  0  1.865488  0  0  -0.846552  0  2.066573  0  0  -0.867558  0  2.033067  0  0  -0.643248  -0.831357  0  2.089734  0
O  O95  1  0.83428510  0.11047947  0.13412130  1  0  -0.900919  0  1.865798  0  0  -0.845601  0  2.067377  0  0  -0.866721  0  2.033919  0  0  -0.643346  -0.83029  0  2.090615  0
O  O96  1  0.29944956  0.61053081  0.13422030  1  0  -0.901689  0  1.865463  0  0  -0.846498  0  2.066574  0  0  -0.867504  0  2.033073  0  0  -0.643233  -0.831304  0  2.089736  0
O  O97  1  0.16571517  0.88952084  0.86587769  1  0  -0.900842  0  1.865894  0  0  -0.845483  0  2.067563  0  0  -0.866605  0  2.034105  0  0  -0.643284  -0.830172  0  2.090802  0
