# generated using pymatgen
data_NdZnH12C15NO11
_symmetry_space_group_name_H-M   'P 1'
_cell_length_a   7.73706737
_cell_length_b   10.59930531
_cell_length_c   11.72552873
_cell_angle_alpha   71.71351974
_cell_angle_beta   74.76564229
_cell_angle_gamma   80.10280617
_symmetry_Int_Tables_number   1
_chemical_formula_structural   NdZnH12C15NO11
_chemical_formula_sum   'Nd2 Zn2 H24 C30 N2 O22'
_cell_volume   876.72950638
_cell_formula_units_Z   2
loop_
 _symmetry_equiv_pos_site_id
 _symmetry_equiv_pos_as_xyz
  1  'x, y, z'
loop_
 _atom_site_type_symbol
 _atom_site_label
 _atom_site_symmetry_multiplicity
 _atom_site_fract_x
 _atom_site_fract_y
 _atom_site_fract_z
 _atom_site_occupancy
 _atom_site_hle17_bader_spin_density
 _atom_site_hle17_ddec_charge
 _atom_site_hle17_ddec_spin_density
 _atom_site_hle17_ddec_sum_bond_order
 _atom_site_hle17_magmom
 _atom_site_hse06_10hf_bader_spin_density
 _atom_site_hse06_10hf_ddec_charge
 _atom_site_hse06_10hf_ddec_spin_density
 _atom_site_hse06_10hf_ddec_sum_bond_order
 _atom_site_hse06_10hf_magmom
 _atom_site_hse06_bader_spin_density
 _atom_site_hse06_ddec_charge
 _atom_site_hse06_ddec_spin_density
 _atom_site_hse06_ddec_sum_bond_order
 _atom_site_hse06_magmom
 _atom_site_pbe_bader_spin_density
 _atom_site_pbe_cm5_charge
 _atom_site_pbe_ddec_charge
 _atom_site_pbe_ddec_spin_density
 _atom_site_pbe_ddec_sum_bond_order
 _atom_site_pbe_magmom
Nd  Nd0  1  0.88733772  0.94961248  0.18504174  1  0  2.348562  0  1.592452  0  0  2.203754  0  2.041538  0  0  2.292048  0  1.906591  0  0  1.446871  2.173558  0  2.074013  0
Nd  Nd1  1  0.11266412  0.05038625  0.81495862  1  0  2.348592  0  1.592431  0  0  2.203824  0  2.041446  0  0  2.292085  0  1.906562  0  0  1.446885  2.173632  0  2.073915  0
Zn  Zn2  1  0.84868781  0.74418782  0.96283865  1  0  1.131241  0  1.759931  0  0  0.955078  0  2.223558  0  0  1.003383  0  2.166273  0  0  0.706586  0.921228  0  2.264862  0
Zn  Zn3  1  0.15130989  0.25581190  0.03716388  1  0  1.131213  0  1.759968  0  0  0.955044  0  2.223614  0  0  1.003348  0  2.166325  0  0  0.706579  0.921195  0  2.264909  0
H  H4  1  0.77508246  0.97116412  0.97496300  1  0  0.407623  0  0.894164  0  0  0.386088  0  0.949927  0  0  0.394162  0  0.938647  0  0  0.298117  0.379639  0  0.959362  0
H  H5  1  0.22492153  0.02883861  0.02503670  1  0  0.407613  0  0.894146  0  0  0.386079  0  0.949927  0  0  0.394153  0  0.938647  0  0  0.298138  0.379631  0  0.95936  0
H  H6  1  0.95960383  0.73637072  0.45228086  1  0  0.421146  0  0.853611  0  0  0.397317  0  0.916905  0  0  0.404697  0  0.906472  0  0  0.311434  0.392282  0  0.924069  0
H  H7  1  0.04039724  0.26363399  0.54772136  1  0  0.421108  0  0.853631  0  0  0.397281  0  0.916942  0  0  0.404661  0  0.906509  0  0  0.311434  0.392248  0  0.924104  0
H  H8  1  0.78093241  0.83697299  0.45989643  1  0  0.440427  0  0.822541  0  0  0.419322  0  0.878287  0  0  0.428175  0  0.865409  0  0  0.323661  0.413037  0  0.887512  0
H  H9  1  0.21906966  0.16303373  0.54009906  1  0  0.440437  0  0.822579  0  0  0.419339  0  0.878262  0  0  0.428191  0  0.865387  0  0  0.323664  0.413054  0  0.887487  0
H  H10  1  0.17415494  0.91793938  0.33653652  1  0  0.425846  0  0.846238  0  0  0.404041  0  0.907452  0  0  0.411472  0  0.896801  0  0  0.310416  0.398831  0  0.915009  0
H  H11  1  0.82584385  0.08206234  0.66346610  1  0  0.425888  0  0.846243  0  0  0.404083  0  0.907411  0  0  0.411513  0  0.896761  0  0  0.310429  0.398872  0  0.914969  0
H  H12  1  0.27664323  0.01133883  0.20985914  1  0  0.448018  0  0.846881  0  0  0.417142  0  0.909255  0  0  0.428286  0  0.892766  0  0  0.302024  0.409393  0  0.920725  0
H  H13  1  0.72335690  0.98866289  0.79014324  1  0  0.448035  0  0.846864  0  0  0.417157  0  0.90924  0  0  0.4283  0  0.892752  0  0  0.302017  0.409404  0  0.920715  0
H  H14  1  0.44760086  0.60905178  0.32482691  1  0  0.097088  0  0.977462  0  0  0.105042  0  1.04372  0  0  0.107028  0  1.04404  0  0  0.102796  0.103628  0  1.043378  0
H  H15  1  0.55240203  0.39094895  0.67517099  1  0  0.097115  0  0.977427  0  0  0.105062  0  1.043681  0  0  0.107045  0  1.044006  0  0  0.102795  0.10365  0  1.043328  0
H  H16  1  0.21257108  0.47055596  0.47909214  1  0  0.081599  0  0.957205  0  0  0.093648  0  1.015569  0  0  0.096618  0  1.014874  0  0  0.098193  0.091605  0  1.01602  0
H  H17  1  0.78742748  0.52944676  0.52090341  1  0  0.081601  0  0.957225  0  0  0.093624  0  1.015617  0  0  0.096594  0  1.014922  0  0  0.098201  0.09158  0  1.01607  0
H  H18  1  0.04411815  0.53996792  0.66602004  1  0  0.103439  0  0.955703  0  0  0.112476  0  1.019843  0  0  0.115647  0  1.017565  0  0  0.106419  0.110119  0  1.021575  0
H  H19  1  0.95588013  0.46003680  0.33397329  1  0  0.103379  0  0.955698  0  0  0.112457  0  1.019801  0  0  0.11563  0  1.017522  0  0  0.106411  0.1101  0  1.021535  0
H  H20  1  0.34580241  0.88241726  0.54396918  1  0  0.130999  0  0.940375  0  0  0.136586  0  1.005753  0  0  0.141566  0  1.000737  0  0  0.114971  0.133068  0  1.009069  0
H  H21  1  0.65420170  0.11758447  0.45602992  1  0  0.131053  0  0.940357  0  0  0.136595  0  1.005778  0  0  0.141575  0  1.000763  0  0  0.11498  0.133082  0  1.009095  0
H  H22  1  0.24215331  0.41783479  0.22481454  1  0  0.112258  0  0.964289  0  0  0.120047  0  1.028374  0  0  0.124128  0  1.024787  0  0  0.108174  0.116851  0  1.031339  0
H  H23  1  0.75785068  0.58215795  0.77518798  1  0  0.112253  0  0.964226  0  0  0.120048  0  1.028318  0  0  0.124108  0  1.024756  0  0  0.108158  0.116855  0  1.031282  0
H  H24  1  0.55655591  0.32460471  0.24720479  1  0  0.118749  0  0.941217  0  0  0.1308  0  0.993299  0  0  0.13361  0  0.993321  0  0  0.116264  0.128775  0  0.993449  0
H  H25  1  0.44344721  0.67539402  0.75279108  1  0  0.118725  0  0.941249  0  0  0.13078  0  0.99332  0  0  0.133589  0  0.993344  0  0  0.116257  0.128754  0  0.993468  0
H  H26  1  0.80738800  0.47419232  0.13989904  1  0  0.093385  0  0.961476  0  0  0.09751  0  1.031076  0  0  0.100487  0  1.028296  0  0  0.120592  0.095241  0  1.033257  0
H  H27  1  0.19261021  0.52580341  0.86010197  1  0  0.093396  0  0.961454  0  0  0.097526  0  1.031064  0  0  0.100504  0  1.028284  0  0  0.1206  0.095255  0  1.033248  0
C  C28  1  0.55500442  0.83461071  0.33315264  1  0  0.614324  0  3.997145  0  0  0.570431  0  4.29032  0  0  0.603175  0  4.287643  0  0  0.183338  0.547729  0  4.295014  0
C  C29  1  0.44499747  0.16538703  0.66684202  1  0  0.614384  0  3.997012  0  0  0.570471  0  4.2902  0  0  0.603217  0  4.287518  0  0  0.18333  0.547767  0  4.294892  0
C  C30  1  0.40951207  0.75421304  0.42412096  1  0  -0.068476  0  3.761983  0  0  -0.039096  0  3.987489  0  0  -0.047812  0  4.009125  0  0  -0.016778  -0.033509  0  3.972504  0
C  C31  1  0.59048763  0.24579167  0.57587809  1  0  -0.068458  0  3.761952  0  0  -0.039032  0  3.987356  0  0  -0.047747  0  4.008989  0  0  -0.016821  -0.033446  0  3.972368  0
C  C32  1  0.37112352  0.63840349  0.40609756  1  0  -0.030296  0  3.688667  0  0  -0.058626  0  3.934391  0  0  -0.055424  0  3.953458  0  0  -0.070974  -0.060136  0  3.9209  0
C  C33  1  0.62887157  0.36159523  0.59390059  1  0  -0.030482  0  3.688667  0  0  -0.058791  0  3.934322  0  0  -0.055596  0  3.953403  0  0  -0.071008  -0.060293  0  3.920821  0
C  C34  1  0.23896050  0.56228039  0.49226367  1  0  -0.082983  0  3.771342  0  0  -0.091386  0  4.022401  0  0  -0.096691  0  4.043723  0  0  -0.08979  -0.088037  0  4.007745  0
C  C35  1  0.76103872  0.43772732  0.50772949  1  0  -0.08286  0  3.771021  0  0  -0.091251  0  4.022064  0  0  -0.096556  0  4.043386  0  0  -0.089772  -0.087907  0  4.007416  0
C  C36  1  0.14333887  0.60150988  0.59661847  1  0  -0.085021  0  3.743696  0  0  -0.110177  0  3.991936  0  0  -0.107587  0  4.009982  0  0  -0.082914  -0.11151  0  3.979592  0
C  C37  1  0.85665851  0.39849184  0.40337928  1  0  -0.084988  0  3.743698  0  0  -0.110184  0  3.99195  0  0  -0.107598  0  4.01  0  0  -0.082902  -0.111518  0  3.979608  0
C  C38  1  0.17995796  0.71827832  0.61461727  1  0  -0.081354  0  3.770373  0  0  -0.057019  0  4.005792  0  0  -0.066862  0  4.029147  0  0  -0.018946  -0.050747  0  3.989791  0
C  C39  1  0.82004143  0.28172840  0.38537870  1  0  -0.081308  0  3.770329  0  0  -0.057004  0  4.005761  0  0  -0.066845  0  4.029114  0  0  -0.018938  -0.050736  0  3.989765  0
C  C40  1  0.08431264  0.76245801  0.72685214  1  0  0.681877  0  3.887393  0  0  0.631253  0  4.179359  0  0  0.66655  0  4.171329  0  0  0.223933  0.60746  0  4.184874  0
C  C41  1  0.91568139  0.23753872  0.27314678  1  0  0.681929  0  3.887507  0  0  0.631351  0  4.17941  0  0  0.666648  0  4.17138  0  0  0.224032  0.607561  0  4.184926  0
C  C42  1  0.31416595  0.79353865  0.52853660  1  0  -0.081603  0  3.683017  0  0  -0.114652  0  3.925331  0  0  -0.111152  0  3.941129  0  0  -0.075109  -0.116402  0  3.914  0
C  C43  1  0.68583314  0.20646008  0.47145914  1  0  -0.081693  0  3.682823  0  0  -0.11471  0  3.925128  0  0  -0.11121  0  3.940922  0  0  -0.075117  -0.116467  0  3.913805  0
C  C44  1  0.45972365  0.81908187  0.95354557  1  0  0.666151  0  3.883253  0  0  0.613095  0  4.181959  0  0  0.647112  0  4.17338  0  0  0.235893  0.590029  0  4.187973  0
C  C45  1  0.54027263  0.18091884  0.04646034  1  0  0.666582  0  3.882933  0  0  0.613353  0  4.181893  0  0  0.647371  0  4.173311  0  0  0.236089  0.590289  0  4.18791  0
C  C46  1  0.47174078  0.68353667  0.04733125  1  0  0.084281  0  3.678372  0  0  0.076339  0  3.918502  0  0  0.078682  0  3.936272  0  0  0.120942  0.0747  0  3.90645  0
C  C47  1  0.52826010  0.31645907  0.95266842  1  0  0.084139  0  3.678523  0  0  0.076272  0  3.918652  0  0  0.078616  0  3.936417  0  0  0.120828  0.074631  0  3.906604  0
C  C48  1  0.32291425  0.61133707  0.11085598  1  0  -0.069661  0  3.655579  0  0  -0.053052  0  3.890758  0  0  -0.059504  0  3.908961  0  0  0.012356  -0.04916  0  3.878605  0
C  C49  1  0.67708409  0.38865766  0.88914528  1  0  -0.069647  0  3.655732  0  0  -0.053076  0  3.890921  0  0  -0.059526  0  3.909119  0  0  0.012367  -0.049182  0  3.878772  0
C  C50  1  0.13094904  0.66765753  0.10696877  1  0  0.724292  0  3.876553  0  0  0.66834  0  4.178882  0  0  0.705323  0  4.167382  0  0  0.235616  0.643109  0  4.186926  0
C  C51  1  0.86904994  0.33234318  0.89303836  1  0  0.724017  0  3.876861  0  0  0.668104  0  4.179126  0  0  0.705082  0  4.167632  0  0  0.235566  0.642862  0  4.187184  0
C  C52  1  0.35431351  0.47947523  0.18217379  1  0  -0.031874  0  3.673926  0  0  -0.060241  0  3.927401  0  0  -0.057438  0  3.943702  0  0  -0.063942  -0.061938  0  3.916734  0
C  C53  1  0.64568724  0.52052150  0.81782648  1  0  -0.031735  0  3.673894  0  0  -0.060107  0  3.927365  0  0  -0.057289  0  3.943679  0  0  -0.063884  -0.061808  0  3.916695  0
C  C54  1  0.52812854  0.42724517  0.19408629  1  0  -0.102864  0  3.700664  0  0  -0.117447  0  3.958321  0  0  -0.123301  0  3.978069  0  0  -0.076657  -0.11378  0  3.945294  0
C  C55  1  0.47187371  0.57275056  0.80591570  1  0  -0.102968  0  3.700837  0  0  -0.117551  0  3.958486  0  0  -0.123405  0  3.97823  0  0  -0.076697  -0.113883  0  3.945459  0
C  C56  1  0.66841794  0.50803294  0.13398118  1  0  0.148308  0  3.671395  0  0  0.110116  0  3.935387  0  0  0.118983  0  3.949391  0  0  0.05696  0.104202  0  3.925958  0
C  C57  1  0.33158547  0.49196380  0.86601690  1  0  0.148331  0  3.671419  0  0  0.110107  0  3.935405  0  0  0.118974  0  3.949407  0  0  0.056926  0.104195  0  3.925975  0
N  N58  1  0.63964557  0.63128715  0.06090063  1  0  -0.33366  0  3.325705  0  0  -0.258148  0  3.603529  0  0  -0.275332  0  3.616082  0  0  -0.31796  -0.246395  0  3.594972  0
N  N59  1  0.36035355  0.36871158  0.93909766  1  0  -0.333666  0  3.325682  0  0  -0.258112  0  3.603434  0  0  -0.275295  0  3.615986  0  0  -0.317915  -0.246362  0  3.594881  0
O  O60  1  0.59439248  0.93519518  0.35655292  1  0  -0.704721  0  1.951409  0  0  -0.658264  0  2.182903  0  0  -0.685558  0  2.170993  0  0  -0.375173  -0.6422  0  2.190546  0
O  O61  1  0.40560946  0.06480255  0.64344600  1  0  -0.704678  0  1.95143  0  0  -0.658235  0  2.182945  0  0  -0.685522  0  2.171029  0  0  -0.37514  -0.642173  0  2.190589  0
O  O62  1  0.63978915  0.79823621  0.23808131  1  0  -0.68839  0  1.966695  0  0  -0.648353  0  2.210072  0  0  -0.676061  0  2.200574  0  0  -0.375841  -0.632547  0  2.216038  0
O  O63  1  0.36020878  0.20176152  0.76191832  1  0  -0.688488  0  1.966679  0  0  -0.648476  0  2.21011  0  0  -0.676183  0  2.200613  0  0  -0.375859  -0.632669  0  2.216071  0
O  O64  1  0.14630756  0.85500864  0.74552801  1  0  -0.729894  0  2.090074  0  0  -0.678831  0  2.350699  0  0  -0.709301  0  2.336687  0  0  -0.397037  -0.662094  0  2.358069  0
O  O65  1  0.85369493  0.14499508  0.25446997  1  0  -0.729847  0  2.090456  0  0  -0.67877  0  2.351033  0  0  -0.709247  0  2.337031  0  0  -0.396999  -0.662036  0  2.358404  0
O  O66  1  0.94938949  0.70153022  0.79836464  1  0  -0.635707  0  2.038515  0  0  -0.565306  0  2.302773  0  0  -0.593276  0  2.287323  0  0  -0.307865  -0.545512  0  2.312429  0
O  O67  1  0.05061329  0.29847151  0.20163555  1  0  -0.635744  0  2.038292  0  0  -0.565387  0  2.302562  0  0  -0.593364  0  2.287115  0  0  -0.307931  -0.545594  0  2.31222  0
O  O68  1  0.60866623  0.86565081  0.89454646  1  0  -0.633236  0  2.06328  0  0  -0.563787  0  2.303215  0  0  -0.589931  0  2.288992  0  0  -0.293847  -0.545155  0  2.312382  0
O  O69  1  0.39133142  0.13434989  0.10546176  1  0  -0.63339  0  2.063242  0  0  -0.563886  0  2.303256  0  0  -0.590036  0  2.28905  0  0  -0.293931  -0.545252  0  2.312407  0
O  O70  1  0.30538078  0.87403805  0.93949133  1  0  -0.687812  0  2.058069  0  0  -0.635797  0  2.312272  0  0  -0.665653  0  2.301136  0  0  -0.349775  -0.619041  0  2.319165  0
O  O71  1  0.69461833  0.12596166  0.06051521  1  0  -0.687925  0  2.057845  0  0  -0.635878  0  2.312186  0  0  -0.66574  0  2.30105  0  0  -0.349792  -0.619108  0  2.319047  0
O  O72  1  0.05453707  0.73479946  0.18163579  1  0  -0.727413  0  2.011645  0  0  -0.678559  0  2.265974  0  0  -0.710607  0  2.252351  0  0  -0.395559  -0.66002  0  2.272902  0
O  O73  1  0.94546625  0.26519827  0.81836544  1  0  -0.727348  0  2.011688  0  0  -0.6785  0  2.265972  0  0  -0.710546  0  2.252353  0  0  -0.39552  -0.659956  0  2.2729  0
O  O74  1  0.06040667  0.63387566  0.03596113  1  0  -0.620081  0  2.024277  0  0  -0.549901  0  2.286501  0  0  -0.578976  0  2.272409  0  0  -0.294618  -0.529323  0  2.295492  0
O  O75  1  0.93958875  0.36612105  0.96404179  1  0  -0.619919  0  2.024397  0  0  -0.549743  0  2.286586  0  0  -0.578804  0  2.272485  0  0  -0.294621  -0.52917  0  2.295586  0
O  O76  1  0.88804566  0.91582105  0.98487816  1  0  -1.116913  0  1.906594  0  0  -1.039219  0  2.174134  0  0  -1.076763  0  2.139413  0  0  -0.703927  -1.020356  0  2.196864  0
O  O77  1  0.11195725  0.08417968  0.01512144  1  0  -1.116915  0  1.906601  0  0  -1.039228  0  2.174149  0  0  -1.07677  0  2.139428  0  0  -0.70396  -1.020365  0  2.196874  0
O  O78  1  0.90557348  0.82489867  0.41501234  1  0  -0.865641  0  1.871852  0  0  -0.816548  0  2.047404  0  0  -0.83786  0  2.017725  0  0  -0.597857  -0.80475  0  2.065723  0
O  O79  1  0.09442610  0.17510704  0.58498815  1  0  -0.865606  0  1.871899  0  0  -0.816511  0  2.047417  0  0  -0.837818  0  2.017739  0  0  -0.597854  -0.804714  0  2.065736  0
O  O80  1  0.17968169  0.95054873  0.24856644  1  0  -0.902039  0  1.875488  0  0  -0.854043  0  2.066652  0  0  -0.876048  0  2.034693  0  0  -0.631004  -0.841895  0  2.086746  0
O  O81  1  0.82032005  0.04945099  0.75143622  1  0  -0.902096  0  1.875518  0  0  -0.854096  0  2.066632  0  0  -0.876099  0  2.034675  0  0  -0.631002  -0.841953  0  2.086739  0
