# generated using pymatgen
data_ZnH6C18Br4N3O4F
_symmetry_space_group_name_H-M   'P 1'
_cell_length_a   13.14855181
_cell_length_b   16.24309007
_cell_length_c   17.21825538
_cell_angle_alpha   99.19879335
_cell_angle_beta   93.67172147
_cell_angle_gamma   97.11324413
_symmetry_Int_Tables_number   1
_chemical_formula_structural   ZnH6C18Br4N3O4F
_chemical_formula_sum   'Zn2 H12 C36 Br8 N6 O8 F2'
_cell_volume   3588.90777416
_cell_formula_units_Z   2
loop_
 _symmetry_equiv_pos_site_id
 _symmetry_equiv_pos_as_xyz
  1  'x, y, z'
loop_
 _atom_site_type_symbol
 _atom_site_label
 _atom_site_symmetry_multiplicity
 _atom_site_fract_x
 _atom_site_fract_y
 _atom_site_fract_z
 _atom_site_occupancy
 _atom_site_pbe_bader_charge
 _atom_site_pbe_bader_spin_density
 _atom_site_pbe_cm5_charge
 _atom_site_pbe_ddec_charge
 _atom_site_pbe_ddec_spin_density
 _atom_site_pbe_ddec_sum_bond_order
 _atom_site_pbe_magmom
Zn  Zn0  1  0.50157666  0.41050776  0.49956493  1  1.318377  0  0.667228  0.889045  0  2.301964  0
Zn  Zn1  1  0.51236995  0.59279414  0.50854064  1  1.308029  0  0.671249  0.861645  0  2.330921  0
H  H2  1  0.38170137  0.70033719  0.45248969  1  0.158344  0  0.13427  0.116143  0  0.972447  0
H  H3  1  0.36803092  0.85380447  0.44748891  1  0.134384  0  0.124791  0.139412  0  0.977525  0
H  H4  1  0.35538609  0.09397599  0.38556961  1  0.114921  0  0.124312  0.150406  0  0.976407  0
H  H5  1  0.60501048  0.12414580  0.56757890  1  0.166484  0  0.114068  0.134904  0  1.025909  0
H  H6  1  0.42377078  0.59689204  0.26093948  1  0.094275  0  0.108765  0.116127  0  0.985541  0
H  H7  1  0.41594794  0.58477388  0.11305225  1  0.109827  0  0.109599  0.113821  0  1.004745  0
H  H8  1  0.53346539  0.66045502  0.92093418  1  0.117742  0  0.110974  0.128503  0  0.993986  0
H  H9  1  0.42618595  0.39508158  0.87498554  1  0.088025  0  0.110432  0.129636  0  1.007455  0
H  H10  1  0.82737249  0.38031162  0.50564663  1  0.098156  0  0.099242  0.110067  0  1.035894  0
H  H11  1  0.82272548  0.63830687  0.47586280  1  0.128855  0  0.107503  0.13781  0  1.007127  0
H  H12  1  0.18064055  0.60243631  0.48135094  1  0.106731  0  0.104315  0.115567  0  1.014548  0
H  H13  1  0.18680571  0.34741857  0.51933263  1  0.117093  0  0.106408  0.134703  0  1.01021  0
C  C14  1  0.49986687  0.50115127  0.35196411  1  1.585953  0  0.211094  0.605856  0  4.163721  0
C  C15  1  0.30959939  0.48846290  0.50030381  1  1.596982  0  0.218073  0.604924  0  4.137088  0
C  C16  1  0.50391816  0.52431900  0.65507109  1  1.631538  0  0.206604  0.611527  0  4.163587  0
C  C17  1  0.70024538  0.49700474  0.49537592  1  1.574956  0  0.216628  0.606782  0  4.136861  0
C  C18  1  0.44149886  0.75088193  0.48047924  1  0.435306  0  0.064095  0.123777  0  3.8894  0
C  C19  1  0.43430914  0.83475863  0.47767918  1  0.062306  0  -0.068887  -0.181942  0  3.91793  0
C  C20  1  0.51407490  0.89576870  0.51624368  1  0.319718  0  0.102768  0.163653  0  4.041647  0
C  C21  1  0.59865447  0.87000655  0.55534761  1  -0.000258  0  -0.007984  -0.035705  0  3.909596  0
C  C22  1  0.59987432  0.78345048  0.55451296  1  0.556189  0  0.11547  0.193675  0  3.975694  0
C  C23  1  0.41186755  0.13319222  0.42926814  1  0.117221  0  -0.079522  -0.242092  0  3.908389  0
C  C24  1  0.47803793  0.09783598  0.47691630  1  0.256866  0  0.106173  0.237385  0  4.013338  0
C  C25  1  0.55119217  0.15044694  0.53113151  1  0.102008  0  -0.083024  -0.243785  0  3.916458  0
C  C26  1  0.55431921  0.23695271  0.53607191  1  0.379669  0  0.121391  0.266859  0  3.953444  0
C  C27  1  0.42033746  0.22083349  0.43953243  1  0.442874  0  0.123513  0.263726  0  3.960568  0
C  C28  1  0.50069000  0.48849418  0.26334054  1  0.068981  0  -0.012241  -0.046445  0  3.913425  0
C  C29  1  0.45529132  0.54642588  0.22473103  1  0.012929  0  -0.081669  -0.078774  0  3.993878  0
C  C30  1  0.45119240  0.54025881  0.14355558  1  -0.029563  0  -0.084519  -0.138928  0  3.986222  0
C  C31  1  0.49318831  0.47519864  0.09804805  1  0.425186  0  0.081813  0.129931  0  4.045017  0
C  C32  1  0.53906294  0.41626539  0.13561063  1  -0.074456  0  -0.015813  0.005758  0  3.897863  0
C  C33  1  0.54366053  0.42331667  0.21825859  1  -0.061354  0  -0.016602  0.047255  0  3.917174  0
C  C34  1  0.51207589  0.60251464  0.87861448  1  0.039803  0  -0.08705  -0.200651  0  3.947987  0
C  C35  1  0.48388171  0.52748028  0.90644168  1  0.34794  0  0.091336  0.202591  0  4.052373  0
C  C36  1  0.45206171  0.45263080  0.85297001  1  0.047761  0  -0.091827  -0.208832  0  3.944398  0
C  C37  1  0.45365432  0.45390869  0.77265803  1  -0.075912  0  -0.002487  0.125736  0  3.904395  0
C  C38  1  0.48947535  0.52730164  0.74186615  1  0.029971  0  -0.01132  -0.10368  0  3.844576  0
C  C39  1  0.51548494  0.60180361  0.79789450  1  -0.096845  0  -0.006443  0.122958  0  3.916842  0
C  C40  1  0.86859624  0.44072221  0.49881683  1  -0.049382  0  -0.087142  -0.143844  0  3.943762  0
C  C41  1  0.86623258  0.58651640  0.48185705  1  0.066561  0  -0.102494  -0.234948  0  3.986057  0
C  C42  1  0.97096888  0.59611464  0.48009439  1  0.358358  0  0.097196  0.245311  0  4.045558  0
C  C43  1  0.03151947  0.53115614  0.48893476  1  -0.028619  0  -0.010149  -0.008622  0  4.02041  0
C  C44  1  0.13976791  0.54223968  0.48898804  1  0.031506  0  -0.085048  -0.140073  0  3.950346  0
C  C45  1  0.14279371  0.39804262  0.51021443  1  0.009067  0  -0.101303  -0.234388  0  3.995284  0
C  C46  1  0.03773639  0.38740683  0.50931085  1  0.386645  0  0.098684  0.245344  0  4.047673  0
C  C47  1  0.97687869  0.45169868  0.49887191  1  0.059413  0  -0.008856  -0.003472  0  4.013372  0
C  C48  1  0.81443910  0.50728180  0.49132779  1  0.064072  0  -0.01154  0.010333  0  3.96696  0
C  C49  1  0.19461345  0.47682778  0.49946224  1  -0.008995  0  -0.015012  0.003129  0  3.972281  0
Br  Br50  1  0.71170079  0.74650981  0.60575297  1  0.060496  0  0.103831  0.026716  0  1.602724  0
Br  Br51  1  0.70839485  0.95134524  0.60369925  1  0.030543  0  0.068042  -0.004544  0  1.463036  0
Br  Br52  1  0.32894496  0.26643170  0.37476797  1  0.03873  0  0.101287  0.01959  0  1.460162  0
Br  Br53  1  0.65487854  0.30386764  0.61033096  1  0.052997  0  0.101578  0.024365  0  1.498999  0
Br  Br54  1  0.61493807  0.34867085  0.26815788  1  -0.015346  0  0.022835  -0.034394  0  1.508119  0
Br  Br55  1  0.59918918  0.33190256  0.07238881  1  -0.018722  0  0.013597  -0.06629  0  1.448784  0
Br  Br56  1  0.56100190  0.70870985  0.77064919  1  -0.046371  0  0.006576  -0.077479  0  1.473276  0
Br  Br57  1  0.39634321  0.35081345  0.70576004  1  -0.048378  0  0.013584  -0.063196  0  1.428957  0
N  N58  1  0.52264885  0.72579021  0.51814490  1  -1.213701  0  -0.30446  -0.221343  0  3.46588  0
N  N59  1  0.51265050  0.98314738  0.52346641  1  -0.421183  0  -0.120114  -0.075856  0  3.293497  0
N  N60  1  0.47203612  0.00845787  0.46495037  1  -0.382781  0  -0.116933  -0.095798  0  3.150388  0
N  N61  1  0.48984520  0.27326805  0.49164004  1  -1.159335  0  -0.298592  -0.286205  0  3.386717  0
N  N62  1  0.48995946  0.46592069  0.01499857  1  -0.510087  0  -0.14179  -0.100379  0  3.283634  0
N  N63  1  0.48985661  0.53484057  0.98949915  1  -0.4338  0  -0.143411  -0.127359  0  3.256746  0
O  O64  1  0.48071099  0.43657337  0.38388329  1  -1.1664  0  -0.320565  -0.575695  0  2.430661  0
O  O65  1  0.51572977  0.57749038  0.38690572  1  -1.157209  0  -0.321538  -0.54349  0  2.274782  0
O  O66  1  0.35383922  0.55811123  0.48640259  1  -1.17352  0  -0.315905  -0.548391  0  2.3177  0
O  O67  1  0.35382724  0.42638516  0.51545735  1  -1.166903  0  -0.323644  -0.56882  0  2.407885  0
O  O68  1  0.48589945  0.58765986  0.62429484  1  -1.150655  0  -0.315121  -0.540111  0  2.370073  0
O  O69  1  0.53525807  0.45870969  0.62004429  1  -1.170848  0  -0.320334  -0.565967  0  2.421792  0
O  O70  1  0.65309843  0.42221935  0.48394126  1  -1.149891  0  -0.319829  -0.549459  0  2.393049  0
O  O71  1  0.65966075  0.56431473  0.51088154  1  -1.176387  0  -0.320619  -0.563796  0  2.403769  0
F  F72  1  0.98764311  0.31154589  0.51951268  1  -0.633296  0  -0.112492  -0.153212  0  1.31078  0
F  F73  1  0.02123542  0.67204596  0.47003820  1  -0.633593  0  -0.113041  -0.157004  0  1.305364  0
