# generated using pymatgen
data_Cd2H33C40(NO3)3
_symmetry_space_group_name_H-M   'P 1'
_cell_length_a   9.58954447
_cell_length_b   14.51400792
_cell_length_c   19.91063592
_cell_angle_alpha   80.31895267
_cell_angle_beta   77.45710018
_cell_angle_gamma   82.65601420
_symmetry_Int_Tables_number   1
_chemical_formula_structural   Cd2H33C40(NO3)3
_chemical_formula_sum   'Cd4 H66 C80 N6 O18'
_cell_volume   2654.52315285
_cell_formula_units_Z   2
loop_
 _symmetry_equiv_pos_site_id
 _symmetry_equiv_pos_as_xyz
  1  'x, y, z'
loop_
 _atom_site_type_symbol
 _atom_site_label
 _atom_site_symmetry_multiplicity
 _atom_site_fract_x
 _atom_site_fract_y
 _atom_site_fract_z
 _atom_site_occupancy
 _atom_site_pbe_bader_charge
 _atom_site_pbe_bader_spin_density
 _atom_site_pbe_cm5_charge
 _atom_site_pbe_ddec_charge
 _atom_site_pbe_ddec_spin_density
 _atom_site_pbe_ddec_sum_bond_order
 _atom_site_pbe_magmom
Cd  Cd0  1  0.47762712  0.05220292  0.19554598  1  1.300156  0  0.770668  0.933993  0  2.162294  0
Cd  Cd1  1  0.52236937  0.94780327  0.80444864  1  1.300157  0  0.770741  0.934073  0  2.161998  0
Cd  Cd2  1  0.17132200  0.22352258  0.25222260  1  1.318811  0  0.77813  0.982888  0  2.156886  0
Cd  Cd3  1  0.82869381  0.77647105  0.74779510  1  1.318981  0  0.778163  0.98296  0  2.157093  0
H  H4  1  0.87336235  0.13449791  0.14138510  1  0.103508  0  0.103822  0.110862  0  1.023924  0
H  H5  1  0.12664746  0.86551187  0.85860715  1  0.104013  0  0.103803  0.11092  0  1.023892  0
H  H6  1  0.24755213  0.96373670  0.05488773  1  0.081072  0  0.100707  0.102504  0  1.03846  0
H  H7  1  0.75245901  0.03627801  0.94510126  1  0.081014  0  0.100657  0.102411  0  1.038385  0
H  H8  1  0.75008058  0.11024631  0.05001902  1  0.110769  0  0.098028  0.109404  0  1.048453  0
H  H9  1  0.24992905  0.88977119  0.94996929  1  0.110581  0  0.097981  0.109344  0  1.048529  0
H  H10  1  0.33798125  0.42397158  0.12680518  1  0.106593  0  0.104729  0.111588  0  1.023104  0
H  H11  1  0.66200108  0.57602961  0.87319207  1  0.106709  0  0.104708  0.111483  0  1.023073  0
H  H12  1  0.67820973  0.26513875  0.00450088  1  0.090845  0  0.103236  0.107082  0  1.017279  0
H  H13  1  0.32177505  0.73486737  0.99549801  1  0.090678  0  0.103219  0.107154  0  1.017353  0
H  H14  1  0.72603492  0.40698868  0.91567506  1  0.056818  0  0.099536  0.100175  0  1.007174  0
H  H15  1  0.27394613  0.59301391  0.08432316  1  0.056918  0  0.099546  0.100153  0  1.007287  0
H  H16  1  0.00478418  0.81020360  0.48983369  1  0.076898  0  0.102052  0.107016  0  1.019036  0
H  H17  1  0.99523572  0.18978304  0.51016333  1  0.077044  0  0.101951  0.106755  0  1.019044  0
H  H18  1  0.19550416  0.84115557  0.38329033  1  0.0841  0  0.106355  0.114614  0  0.995747  0
H  H19  1  0.80453040  0.15882693  0.61671718  1  0.084415  0  0.106363  0.114701  0  0.995505  0
H  H20  1  0.16796268  0.13071969  0.41071645  1  0.114388  0  0.104201  0.111836  0  1.026875  0
H  H21  1  0.83208481  0.86926218  0.58929077  1  0.114822  0  0.104226  0.111793  0  1.027128  0
H  H22  1  0.21603729  0.44163939  0.39281814  1  0.095292  0  0.10457  0.114177  0  1.003959  0
H  H23  1  0.78394183  0.55836950  0.60719256  1  0.095191  0  0.104515  0.114112  0  1.003913  0
H  H24  1  0.81234705  0.32314277  0.45873008  1  0.074595  0  0.101814  0.106348  0  1.009283  0
H  H25  1  0.18763144  0.67686963  0.54127373  1  0.074632  0  0.101806  0.106327  0  1.009472  0
H  H26  1  0.73284195  0.43047963  0.54853156  1  0.038558  0  0.10257  0.105345  0  0.991777  0
H  H27  1  0.26713168  0.56953627  0.45146833  1  0.038665  0  0.102547  0.105332  0  0.991918  0
H  H28  1  0.11111665  0.44815930  0.23894740  1  0.103289  0  0.118579  0.092233  0  0.993255  0
H  H29  1  0.88889130  0.55184906  0.76105025  1  0.103359  0  0.118561  0.092271  0  0.993255  0
H  H30  1  0.96588172  0.58657318  0.18696577  1  0.074975  0  0.107896  0.113758  0  0.992409  0
H  H31  1  0.03412752  0.41343378  0.81303241  1  0.075071  0  0.107854  0.113735  0  0.992447  0
H  H32  1  0.78791819  0.39517461  0.09142209  1  0.09259  0  0.104158  0.112105  0  1.022745  0
H  H33  1  0.21208243  0.60483300  0.90858045  1  0.092737  0  0.104139  0.112009  0  1.022859  0
H  H34  1  0.93970316  0.26478582  0.14861736  1  0.115982  0  0.114637  0.082981  0  1.03732  0
H  H35  1  0.06029351  0.73521966  0.85138486  1  0.115851  0  0.114588  0.082918  0  1.037273  0
H  H36  1  0.72855672  0.63151793  0.13642436  1  0.035836  0  0.096011  0.099402  0  0.980994  0
H  H37  1  0.27142726  0.36848678  0.86357981  1  0.036033  0  0.096011  0.099378  0  0.981008  0
H  H38  1  0.69778024  0.56039718  0.07801811  1  0.046782  0  0.095472  0.102521  0  0.987818  0
H  H39  1  0.30221306  0.43960266  0.92198516  1  0.046975  0  0.09545  0.102462  0  0.987747  0
H  H40  1  0.97155441  0.66012622  0.05824240  1  0.017077  0  0.086546  0.071462  0  1.006841  0
H  H41  1  0.02843655  0.33987501  0.94176296  1  0.017292  0  0.086603  0.071576  0  1.006764  0
H  H42  1  0.93249976  0.59432995  0.99953307  1  0.015028  0  0.088377  0.081519  0  1.006891  0
H  H43  1  0.06749237  0.40567058  0.00047175  1  0.014887  0  0.088358  0.081499  0  1.006789  0
H  H44  1  0.72540897  0.70636891  0.97751851  1  0.015642  0  0.094214  0.098684  0  1.002152  0
H  H45  1  0.27458856  0.29363798  0.02248395  1  0.015599  0  0.094154  0.098615  0  1.002202  0
H  H46  1  0.88450357  0.76199913  0.95980828  1  0.065616  0  0.098924  0.105076  0  1.004155  0
H  H47  1  0.11549805  0.23800216  0.04019393  1  0.065743  0  0.098936  0.105072  0  1.004218  0
H  H48  1  0.89242806  0.78239495  0.11397008  1  0.072083  0  0.107595  0.113381  0  1.000438  0
H  H49  1  0.10757357  0.21760634  0.88603363  1  0.072363  0  0.107607  0.113376  0  1.000438  0
H  H50  1  0.76530578  0.90534956  0.18468636  1  0.12249  0  0.122427  0.094979  0  0.977509  0
H  H51  1  0.23469812  0.09465104  0.81531970  1  0.122604  0  0.122391  0.094879  0  0.977626  0
H  H52  1  0.44432929  0.96257976  0.07094942  1  0.101517  0  0.113  0.083232  0  1.052789  0
H  H53  1  0.55567679  0.03742718  0.92905363  1  0.101467  0  0.11302  0.083224  0  1.05266  0
H  H54  1  0.55682665  0.84135578  0.99433362  1  0.107718  0  0.106806  0.12303  0  1.024533  0
H  H55  1  0.44317645  0.15864974  0.00566992  1  0.10758  0  0.106793  0.122963  0  1.024473  0
H  H56  1  0.51535134  0.10629162  0.33649954  1  0.095104  0  0.121664  0.055885  0  1.016702  0
H  H57  1  0.48464490  0.89370123  0.66347514  1  0.094691  0  0.121559  0.055832  0  1.016594  0
H  H58  1  0.55736067  0.12013056  0.43697686  1  0.076667  0  0.111461  0.120302  0  0.986997  0
H  H59  1  0.44259920  0.87985646  0.56301196  1  0.076667  0  0.111519  0.12031  0  0.987038  0
H  H60  1  0.73164473  0.15619955  0.43300858  1  0.090539  0  0.108852  0.131193  0  0.989961  0
H  H61  1  0.26831820  0.84378888  0.56698728  1  0.090881  0  0.108694  0.131025  0  0.989936  0
H  H62  1  0.69634030  0.03738996  0.46461982  1  0.063837  0  0.101164  0.114561  0  1.002007  0
H  H63  1  0.30362584  0.96259147  0.53537404  1  0.063435  0  0.101137  0.114417  0  1.002244  0
H  H64  1  0.90077590  0.97931434  0.36246395  1  0.040962  0  0.097821  0.111019  0  1.010235  0
H  H65  1  0.09920514  0.02067490  0.63753791  1  0.041655  0  0.097808  0.11101  0  1.010297  0
H  H66  1  0.93290661  0.10043894  0.34449999  1  0.108471  0  0.104382  0.127742  0  1.02678  0
H  H67  1  0.06707216  0.89955801  0.65550368  1  0.108114  0  0.104403  0.127767  0  1.026896  0
H  H68  1  0.89379320  0.04485517  0.27800367  1  0.084844  0  0.109035  0.137193  0  1.012821  0
H  H69  1  0.10620199  0.95513906  0.72199456  1  0.084792  0  0.109063  0.137215  0  1.012791  0
C  C70  1  0.15317726  0.07867307  0.15122555  1  1.603443  0  0.209321  0.59112  0  4.205947  0
C  C71  1  0.84682878  0.92132052  0.84877762  1  1.603831  0  0.209358  0.591462  0  4.205513  0
C  C72  1  0.07123996  0.05320066  0.10170029  1  -0.066647  0  -0.023394  -0.042412  0  3.99214  0
C  C73  1  0.92877326  0.94680140  0.89829907  1  -0.066623  0  -0.023402  -0.042569  0  3.992511  0
C  C74  1  0.92853273  0.09349338  0.10072162  1  -0.055132  0  -0.093311  -0.109245  0  4.003655  0
C  C75  1  0.07148571  0.90650942  0.89927609  1  -0.05527  0  -0.093314  -0.109412  0  4.00394  0
C  C76  1  0.13877248  0.99514571  0.05346419  1  -0.048962  0  -0.083562  -0.141218  0  3.955278  0
C  C77  1  0.86124565  0.00486551  0.94652700  1  -0.049105  0  -0.083551  -0.141051  0  3.955207  0
C  C78  1  0.07075451  0.97776620  0.00131606  1  -0.086405  0  -0.013365  0.067039  0  4.02302  0
C  C79  1  0.92925658  0.02224218  0.99867572  1  -0.031855  0  -0.01312  0.067112  0  4.023014  0
C  C80  1  0.85995418  0.07929627  0.04989275  1  -0.030564  0  -0.093493  -0.136972  0  3.986852  0
C  C81  1  0.14006726  0.92071427  0.95009816  1  -0.030953  0  -0.093403  -0.13679  0  3.986834  0
C  C82  1  0.44395265  0.50278496  0.03032100  1  -0.014183  0  -0.009056  0.067286  0  4.021966  0
C  C83  1  0.55602903  0.49721411  0.96968461  1  -0.054621  0  -0.009198  0.067388  0  4.022067  0
C  C84  1  0.42152349  0.42151369  0.08009188  1  -0.079562  0  -0.078502  -0.137176  0  3.931475  0
C  C85  1  0.57846124  0.57848610  0.91991030  1  -0.049589  0  -0.078448  -0.13708  0  3.931445  0
C  C86  1  0.50400200  0.33744135  0.07068222  1  -0.019302  0  -0.020062  -0.038113  0  3.995928  0
C  C87  1  0.49599233  0.66255850  0.92931792  1  -0.05044  0  -0.02009  -0.038134  0  3.996094  0
C  C88  1  0.61460567  0.33208936  0.01063863  1  -0.08375  0  -0.09027  -0.107123  0  4.012213  0
C  C89  1  0.38538563  0.66791609  0.98935965  1  -0.084285  0  -0.090245  -0.107303  0  4.012374  0
C  C90  1  0.64044547  0.41032116  0.96166668  1  -0.008639  0  -0.090636  -0.134947  0  3.999915  0
C  C91  1  0.35953730  0.58968424  0.03833352  1  -0.008233  0  -0.090689  -0.134835  0  3.999687  0
C  C92  1  0.47323930  0.25223450  0.12408154  1  1.577873  0  0.204037  0.580083  0  4.230341  0
C  C93  1  0.52675544  0.74776957  0.87591805  1  1.578119  0  0.20402  0.58003  0  4.230258  0
C  C94  1  0.04008440  0.88029640  0.47219246  1  -0.02086  0  -0.086262  -0.129819  0  3.983811  0
C  C95  1  0.95992584  0.11968386  0.52780738  1  -0.020418  0  -0.086043  -0.129165  0  3.983384  0
C  C96  1  0.14568364  0.89679171  0.41373723  1  -0.058844  0  -0.086243  -0.103963  0  3.993841  0
C  C97  1  0.85433783  0.10319213  0.58626499  1  -0.060165  0  -0.086249  -0.104175  0  3.993941  0
C  C98  1  0.19092013  0.98833292  0.39082245  1  0.0422  0  -0.019432  -0.0311  0  3.996124  0
C  C99  1  0.80911441  0.01164958  0.60918306  1  0.043264  0  -0.019375  -0.031111  0  3.996772  0
C  C100  1  0.13264272  0.06079168  0.42864144  1  -0.096292  0  -0.081042  -0.148435  0  3.94595  0
C  C101  1  0.86738679  0.93918868  0.57136236  1  -0.096027  0  -0.081013  -0.148372  0  3.946568  0
C  C102  1  0.02425174  0.04595463  0.48907117  1  -0.031491  0  -0.006139  0.067771  0  4.005936  0
C  C103  1  0.97577800  0.95402433  0.51093378  1  -0.088538  0  -0.005999  0.068036  0  4.006108  0
C  C104  1  0.29750389  0.00635243  0.32436718  1  1.528014  0  0.193784  0.563575  0  4.200188  0
C  C105  1  0.70253627  0.99362167  0.67564127  1  1.528857  0  0.193629  0.563276  0  4.200884  0
C  C106  1  0.11093376  0.44001699  0.42742063  1  -0.056306  0  -0.082569  -0.143711  0  3.935468  0
C  C107  1  0.88904079  0.55999329  0.57258336  1  -0.056734  0  -0.082464  -0.143524  0  3.935545  0
C  C108  1  0.01962773  0.37680719  0.42087891  1  -0.054956  0  -0.023189  -0.029182  0  3.996623  0
C  C109  1  0.98035063  0.62320592  0.57912232  1  -0.054507  0  -0.023302  -0.02959  0  3.996885  0
C  C110  1  0.88201164  0.37336113  0.46519218  1  -0.057053  0  -0.090649  -0.105151  0  4.014143  0
C  C111  1  0.11796605  0.62665619  0.53480911  1  -0.057206  0  -0.09045  -0.104817  0  4.014246  0
C  C112  1  0.83875958  0.43261541  0.51460988  1  0.024362  0  -0.091078  -0.136314  0  3.999455  0
C  C113  1  0.16121073  0.56740117  0.48538978  1  0.024969  0  -0.091199  -0.136414  0  3.99987  0
C  C114  1  0.93036254  0.49817559  0.52234207  1  0.003676  0  -0.008023  0.075887  0  4.009787  0
C  C115  1  0.06960294  0.50184447  0.47765767  1  -0.052569  0  -0.008061  0.07564  0  4.009782  0
C  C116  1  0.06593988  0.31356721  0.36619440  1  1.544685  0  0.182197  0.542055  0  4.260129  0
C  C117  1  0.93405585  0.68643756  0.63380902  1  1.544851  0  0.182229  0.542308  0  4.260148  0
C  C118  1  0.03883965  0.44002022  0.20531887  1  0.481335  0  0.044592  0.093386  0  3.981336  0
C  C119  1  0.96117140  0.55998885  0.79467987  1  0.481392  0  0.044517  0.093157  0  3.98156  0
C  C120  1  0.95753301  0.51641239  0.17618598  1  -0.074215  0  -0.087402  -0.19428  0  3.963113  0
C  C121  1  0.04247495  0.48359597  0.82381318  1  -0.074182  0  -0.087261  -0.194039  0  3.962991  0
C  C122  1  0.86502385  0.50286927  0.13364710  1  0.01382  0  0.012968  0.16713  0  3.955642  0
C  C123  1  0.13497192  0.49713550  0.86635982  1  0.01411  0  0.012884  0.166899  0  3.95569  0
C  C124  1  0.85846073  0.41051012  0.12356241  1  -0.000641  0  -0.084747  -0.183056  0  3.933476  0
C  C125  1  0.14154343  0.58949540  0.87644000  1  -0.000987  0  -0.084615  -0.182745  0  3.933396  0
C  C126  1  0.94275901  0.33759364  0.15493021  1  0.411412  0  0.049442  0.108108  0  3.94898  0
C  C127  1  0.05723899  0.66241044  0.84507555  1  0.411893  0  0.049463  0.108111  0  3.948992  0
C  C128  1  0.78235248  0.58483291  0.09832467  1  -0.024404  0  -0.157255  -0.204331  0  3.93416  0
C  C129  1  0.21763566  0.41517252  0.90167847  1  -0.02499  0  -0.157223  -0.204129  0  3.934282  0
C  C130  1  0.88240351  0.64045058  0.03846247  1  0.004914  0  -0.159409  -0.12854  0  3.941815  0
C  C131  1  0.11759053  0.35955137  0.96154096  1  0.005053  0  -0.159392  -0.128664  0  3.941771  0
C  C132  1  0.80574534  0.72746756  0.00237389  1  0.009245  0  -0.156622  -0.19864  0  3.9211  0
C  C133  1  0.19425595  0.27253584  0.99762910  1  0.009063  0  -0.156596  -0.198526  0  3.921183  0
C  C134  1  0.73432521  0.79971029  0.04815849  1  0.059845  0  0.016228  0.173822  0  3.923556  0
C  C135  1  0.26567703  0.20029381  0.95184330  1  0.060505  0  0.016216  0.173677  0  3.92382  0
C  C136  1  0.79220282  0.81949231  0.10249498  1  -0.10262  0  -0.085441  -0.189789  0  3.953723  0
C  C137  1  0.20779904  0.18050757  0.89750938  1  -0.103571  0  -0.085393  -0.189702  0  3.953897  0
C  C138  1  0.72229780  0.88806734  0.14239154  1  0.461735  0  0.050534  0.098435  0  3.968703  0
C  C139  1  0.27770721  0.11193959  0.85761162  1  0.46161  0  0.050536  0.098576  0  3.968674  0
C  C140  1  0.54359840  0.92004605  0.07820060  1  0.475941  0  0.043811  0.094213  0  3.945651  0
C  C141  1  0.45640171  0.07995804  0.92180242  1  0.475569  0  0.043845  0.094195  0  3.945522  0
C  C142  1  0.60653778  0.85224281  0.03643800  1  -0.049593  0  -0.084532  -0.185104  0  3.926244  0
C  C143  1  0.39347032  0.14776484  0.96356324  1  -0.049389  0  -0.084557  -0.184956  0  3.926135  0
C  C144  1  0.62689149  0.08187585  0.31416274  1  1.389616  0  0.17399  0.297257  0  4.089781  0
C  C145  1  0.37310423  0.91812823  0.68582920  1  1.390913  0  0.173789  0.296693  0  4.090459  0
C  C146  1  0.67305260  0.09889614  0.42673644  1  0.225622  0  -0.125216  -0.272209  0  3.906347  0
C  C147  1  0.32691640  0.90108741  0.57325535  1  0.225756  0  -0.125034  -0.271777  0  3.906511  0
C  C148  1  0.87097613  0.04802419  0.33379264  1  0.262314  0  -0.140121  -0.275469  0  3.865536  0
C  C149  1  0.12901524  0.95196721  0.66620735  1  0.261782  0  -0.140228  -0.275653  0  3.865775  0
N  N150  1  0.03275380  0.35157504  0.19464171  1  -1.20755  0  -0.324934  -0.257829  0  3.483599  0
N  N151  1  0.96724919  0.64843117  0.80536175  1  -1.208219  0  -0.324955  -0.257834  0  3.483971  0
N  N152  1  0.59926991  0.93760602  0.13079257  1  -1.223191  0  -0.329683  -0.239801  0  3.503717  0
N  N153  1  0.40073532  0.06239951  0.86920974  1  -1.222697  0  -0.329695  -0.239909  0  3.503627  0
N  N154  1  0.71911926  0.07613859  0.35638304  1  -1.21628  0  -0.277778  0.046222  0  3.718187  0
N  N155  1  0.28086246  0.92385206  0.64360300  1  -1.216933  0  -0.27763  0.046388  0  3.717926  0
O  O156  1  0.28414093  0.04766830  0.14458028  1  -1.18415  0  -0.327662  -0.567437  0  2.324896  0
O  O157  1  0.71587098  0.95232181  0.85542119  1  -1.184268  0  -0.327637  -0.567477  0  2.324677  0
O  O158  1  0.08351569  0.13244022  0.19443629  1  -1.174942  0  -0.326323  -0.568108  0  2.324582  0
O  O159  1  0.91649583  0.86754567  0.80556625  1  -1.17514  0  -0.32643  -0.568389  0  2.324469  0
O  O160  1  0.54127497  0.17407092  0.10947152  1  -1.156254  0  -0.323761  -0.552021  0  2.270096  0
O  O161  1  0.45872851  0.82593179  0.89052629  1  -1.156631  0  -0.323732  -0.551962  0  2.270188  0
O  O162  1  0.38287871  0.26346378  0.17939697  1  -1.189763  0  -0.338575  -0.578919  0  2.305547  0
O  O163  1  0.61711419  0.73653817  0.82060006  1  -1.189759  0  -0.338533  -0.578878  0  2.305351  0
O  O164  1  0.31435379  0.09324934  0.29712885  1  -1.172916  0  -0.344154  -0.607686  0  2.381117  0
O  O165  1  0.68567218  0.90672609  0.70287091  1  -1.173539  0  -0.344218  -0.607644  0  2.381112  0
O  O166  1  0.36895399  0.93899761  0.29621299  1  -1.148635  0  -0.327044  -0.533023  0  2.101043  0
O  O167  1  0.63109037  0.06097018  0.70379478  1  -1.148898  0  -0.326981  -0.532853  0  2.101421  0
O  O168  1  0.98175437  0.25648429  0.35921592  1  -1.165429  0  -0.335574  -0.575234  0  2.152843  0
O  O169  1  0.01825902  0.74350371  0.64079268  1  -1.165702  0  -0.335674  -0.575403  0  2.152644  0
O  O170  1  0.19127556  0.32104402  0.32732678  1  -1.154155  0  -0.347387  -0.566514  0  2.18093  0
O  O171  1  0.80871625  0.67897830  0.67266636  1  -1.154124  0  -0.34733  -0.566538  0  2.181082  0
O  O172  1  0.66104983  0.06173759  0.25318452  1  -1.15637  0  -0.316556  -0.470796  0  2.318572  0
O  O173  1  0.33897865  0.93826106  0.74679002  1  -1.156435  0  -0.316522  -0.470405  0  2.319564  0
