# generated using pymatgen
data_ZnH13C14N3O4
_symmetry_space_group_name_H-M   'P 1'
_cell_length_a   9.92459322
_cell_length_b   11.00402582
_cell_length_c   13.90880749
_cell_angle_alpha   88.58706408
_cell_angle_beta   101.15904794
_cell_angle_gamma   95.24537124
_symmetry_Int_Tables_number   1
_chemical_formula_structural   ZnH13C14N3O4
_chemical_formula_sum   'Zn2 H26 C28 N6 O8'
_cell_volume   1483.99067321
_cell_formula_units_Z   2
loop_
 _symmetry_equiv_pos_site_id
 _symmetry_equiv_pos_as_xyz
  1  'x, y, z'
loop_
 _atom_site_type_symbol
 _atom_site_label
 _atom_site_symmetry_multiplicity
 _atom_site_fract_x
 _atom_site_fract_y
 _atom_site_fract_z
 _atom_site_occupancy
 _atom_site_pbe_bader_charge
 _atom_site_pbe_bader_spin_density
 _atom_site_pbe_cm5_charge
 _atom_site_pbe_ddec_charge
 _atom_site_pbe_ddec_spin_density
 _atom_site_pbe_ddec_sum_bond_order
 _atom_site_pbe_magmom
Zn  Zn0  1  0.36955775  0.48166434  0.49026191  1  1.295606  0  0.674831  0.835211  0  2.390471  0
Zn  Zn1  1  0.66832556  0.50779528  0.51066390  1  1.307337  0  0.678686  0.865956  0  2.313286  0
H  H2  1  0.04800216  0.37419308  0.28909956  1  0.081885  0  0.102701  0.130012  0  0.983063  0
H  H3  1  0.06223612  0.25297684  0.37811782  1  0.04223  0  0.098138  0.119878  0  1.017212  0
H  H4  1  0.73520381  0.12470929  0.56943346  1  0.083354  0  0.10129  0.105901  0  0.999517  0
H  H5  1  0.73331026  0.89849492  0.57410224  1  0.081938  0  0.099608  0.102254  0  1.013248  0
H  H6  1  0.26352926  0.86762379  0.31678561  1  0.040775  0  0.10068  0.120697  0  0.977583  0
H  H7  1  0.18791712  0.85258300  0.42392845  1  0.041977  0  0.089926  0.102818  0  0.996799  0
H  H8  1  0.18792933  0.07803087  0.43160169  1  0.017068  0  0.085349  0.02336  0  0.989745  0
H  H9  1  0.35580267  0.46392336  0.96583110  1  0.098417  0  0.107807  0.132389  0  0.997377  0
H  H10  1  0.22147706  0.60303536  0.61919319  1  0.130659  0  0.130131  0.116365  0  0.999219  0
H  H11  1  0.79550899  0.47810032  0.26444608  1  0.386568  0  0.287611  0.222474  0  0.969184  0
H  H12  1  0.67458351  0.34389594  0.14052617  1  0.050238  0  0.097301  0.106902  0  1.016611  0
H  H13  1  0.69855100  0.21903205  0.22329779  1  0.056378  0  0.102394  0.112504  0  0.97485  0
H  H14  1  0.84172706  0.28865902  0.17559259  1  0.011633  0  0.076648  0.063725  0  1.025935  0
H  H15  1  0.81983156  0.26681133  0.39727828  1  0.101314  0  0.1142  0.082544  0  0.966322  0
H  H16  1  0.67167639  0.59341325  0.11554123  1  0.466004  0  0.312203  0.257161  0  0.951932  0
H  H17  1  0.88145625  0.67257323  0.06588618  1  0.057262  0  0.109223  0.115867  0  0.975256  0
H  H18  1  0.81275578  0.62208532  0.94412027  1  0.078811  0  0.105928  0.113578  0  1.00279  0
H  H19  1  0.87063237  0.51400220  0.03708627  1  0.048571  0  0.097548  0.09947  0  0.985757  0
H  H20  1  0.28572675  0.19878131  0.30318433  1  0.405454  0  0.288926  0.242454  0  0.964619  0
H  H21  1  0.12147133  0.13973065  0.16308457  1  0.034683  0  0.098615  0.105979  0  0.984601  0
H  H22  1  0.03462543  0.11014387  0.26380033  1  0.006078  0  0.075287  0.060398  0  1.037517  0
H  H23  1  0.10296220  0.98940030  0.21103702  1  0.013084  0  0.092391  0.095789  0  0.995764  0
H  H24  1  0.08297370  0.67765744  0.69199474  1  0.444104  0  0.327685  0.264203  0  0.928079  0
H  H25  1  0.91214278  0.73632347  0.75837102  1  0.028712  0  0.108189  0.112902  0  0.977422  0
H  H26  1  0.84192292  0.58066126  0.74021981  1  0.083996  0  0.100927  0.119964  0  1.011879  0
H  H27  1  0.78628332  0.69458244  0.65209495  1  0.142445  0  0.10742  0.136681  0  1.05278  0
C  C28  1  0.52409883  0.26227187  0.49522388  1  1.578036  0  0.220092  0.604184  0  4.165387  0
C  C29  1  0.45740206  0.50967463  0.20718110  1  0.147774  0  -0.05742  -0.218601  0  3.971058  0
C  C30  1  0.40988140  0.05073934  0.45109611  1  -0.107913  0  -0.00692  -0.007228  0  3.881505  0
C  C31  1  0.52454224  0.12691057  0.49349747  1  0.030711  0  -0.009455  -0.046976  0  3.962216  0
C  C32  1  0.64237720  0.06829129  0.53648982  1  -0.074699  0  -0.090658  -0.114976  0  3.998407  0
C  C33  1  0.64123058  0.94128101  0.53915985  1  -0.042335  0  -0.089929  -0.103201  0  4.00162  0
C  C34  1  0.52341791  0.86485207  0.49766700  1  0.035712  0  -0.017052  -0.078587  0  3.974386  0
C  C35  1  0.40953907  0.92412273  0.45179323  1  0.016568  0  -0.002307  0.076963  0  3.900917  0
C  C36  1  0.26607818  0.90492577  0.38975952  1  -0.019858  0  -0.153118  -0.258767  0  3.858984  0
C  C37  1  0.26472867  0.04913497  0.39015169  1  0.370638  0  0.01264  0.117058  0  3.878351  0
C  C38  1  0.92234944  0.44534761  0.44996090  1  0.413487  0  0.123043  0.124857  0  3.860245  0
C  C39  1  0.46908006  0.50689863  0.31161608  1  1.657659  0  0.207973  0.658346  0  4.265178  0
C  C40  1  0.99614322  0.57220837  0.57972890  1  0.961403  0  0.243165  0.330155  0  4.01587  0
C  C41  1  0.13473093  0.55784345  0.56839565  1  0.588313  0  0.063522  -0.037548  0  3.849588  0
C  C42  1  0.05628496  0.43332105  0.44066094  1  0.548726  0  0.10383  0.14694  0  3.984114  0
C  C43  1  0.02296675  0.34248042  0.35961132  1  -0.032595  0  -0.159053  -0.312413  0  3.859448  0
C  C44  1  0.86420291  0.35215428  0.36820050  1  0.407118  0  0.028381  0.088538  0  3.853809  0
C  C45  1  0.52174689  0.72952267  0.50317701  1  1.543663  0  0.216375  0.602582  0  4.170902  0
C  C46  1  0.54455090  0.48820164  0.69157480  1  1.674565  0  0.218014  0.657838  0  4.264428  0
C  C47  1  0.56108339  0.50151742  0.79668973  1  0.117406  0  -0.034471  -0.155626  0  3.940049  0
C  C48  1  0.56663277  0.53521952  0.98414637  1  0.537453  0  0.116998  0.256928  0  4.178354  0
C  C49  1  0.44654996  0.49834860  0.01833587  1  0.119541  0  -0.120832  -0.257068  0  4.109992  0
C  C50  1  0.44467044  0.50339898  0.11785098  1  -0.524385  0  -0.051529  0.001857  0  4.246874  0
C  C51  1  0.56906048  0.51882350  0.88392328  1  -0.394178  0  -0.032973  -0.087588  0  4.100857  0
C  C52  1  0.74674389  0.30696554  0.20181914  1  0.257313  0  -0.14662  -0.217366  0  4.011551  0
C  C53  1  0.81862573  0.59890054  0.02194472  1  0.27359  0  -0.12977  -0.213102  0  3.983182  0
C  C54  1  0.12230771  0.08646759  0.23097371  1  0.285894  0  -0.149538  -0.211713  0  4.04745  0
C  C55  1  0.87519800  0.66466918  0.70375940  1  0.251587  0  -0.142306  -0.232353  0  3.929864  0
N  N56  1  0.88474830  0.51368967  0.51858402  1  -1.188967  0  -0.298477  -0.299392  0  3.321087  0
N  N57  1  0.16600641  0.48854284  0.50056604  1  -1.245655  0  -0.297986  -0.164744  0  3.542981  0
N  N58  1  0.76966963  0.39048333  0.28405401  1  -1.069688  0  -0.481007  -0.315717  0  3.50085  0
N  N59  1  0.68146451  0.58767496  0.04430904  1  -1.210195  0  -0.425331  -0.261486  0  3.577863  0
N  N60  1  0.25692399  0.10750348  0.29473336  1  -1.05525  0  -0.492467  -0.36802  0  3.444113  0
N  N61  1  0.98855356  0.64678146  0.65449449  1  -1.201687  0  -0.417346  -0.270671  0  3.579202  0
O  O62  1  0.41046743  0.30311198  0.50261942  1  -1.160064  0  -0.316235  -0.542009  0  2.303585  0
O  O63  1  0.63675062  0.32504086  0.48969538  1  -1.167433  0  -0.30912  -0.543739  0  2.361539  0
O  O64  1  0.35996682  0.46671102  0.34311356  1  -1.150963  0  -0.324889  -0.548382  0  2.242383  0
O  O65  1  0.58523456  0.54411606  0.36364147  1  -1.160091  0  -0.320647  -0.569928  0  2.311759  0
O  O66  1  0.40509437  0.66883413  0.48011464  1  -1.165305  0  -0.310235  -0.538359  0  2.326132  0
O  O67  1  0.63738280  0.68444223  0.53186609  1  -1.179544  0  -0.319278  -0.559488  0  2.383659  0
O  O68  1  0.42442896  0.50242206  0.64311657  1  -1.152764  0  -0.309244  -0.548314  0  2.291252  0
O  O69  1  0.64979843  0.46590844  0.65788488  1  -1.150165  0  -0.309466  -0.55032  0  2.281699  0
