# generated using pymatgen
data_BaH15C8NO10
_symmetry_space_group_name_H-M   'P 1'
_cell_length_a   6.97171454
_cell_length_b   9.58595872
_cell_length_c   11.13960123
_cell_angle_alpha   113.10002326
_cell_angle_beta   95.51121548
_cell_angle_gamma   98.96775290
_symmetry_Int_Tables_number   1
_chemical_formula_structural   BaH15C8NO10
_chemical_formula_sum   'Ba2 H30 C16 N2 O20'
_cell_volume   666.20431626
_cell_formula_units_Z   2
loop_
 _symmetry_equiv_pos_site_id
 _symmetry_equiv_pos_as_xyz
  1  'x, y, z'
loop_
 _atom_site_type_symbol
 _atom_site_label
 _atom_site_symmetry_multiplicity
 _atom_site_fract_x
 _atom_site_fract_y
 _atom_site_fract_z
 _atom_site_occupancy
 _atom_site_hle17_bader_spin_density
 _atom_site_hle17_ddec_charge
 _atom_site_hle17_ddec_spin_density
 _atom_site_hle17_ddec_sum_bond_order
 _atom_site_hle17_magmom
 _atom_site_hse06_10hf_bader_spin_density
 _atom_site_hse06_10hf_ddec_charge
 _atom_site_hse06_10hf_ddec_spin_density
 _atom_site_hse06_10hf_ddec_sum_bond_order
 _atom_site_hse06_10hf_magmom
 _atom_site_hse06_bader_spin_density
 _atom_site_hse06_ddec_charge
 _atom_site_hse06_ddec_spin_density
 _atom_site_hse06_ddec_sum_bond_order
 _atom_site_hse06_magmom
 _atom_site_pbe_bader_spin_density
 _atom_site_pbe_cm5_charge
 _atom_site_pbe_ddec_charge
 _atom_site_pbe_ddec_spin_density
 _atom_site_pbe_ddec_sum_bond_order
 _atom_site_pbe_magmom
Ba  Ba0  1  0.59635945  0.76012757  0.60656271  1  0  1.646579  0  1.114706  0  0  1.496367  0  1.515454  0  0  1.535581  0  1.470078  0  0  0.906631  1.468246  0  1.546907  0
Ba  Ba1  1  0.40363920  0.23987244  0.39343723  1  0  1.646587  0  1.114689  0  0  1.496355  0  1.515463  0  0  1.535564  0  1.470097  0  0  0.906631  1.468236  0  1.546917  0
H  H2  1  0.12586859  0.75279466  0.68909529  1  0  0.410892  0  0.889548  0  0  0.380229  0  0.955592  0  0  0.391221  0  0.939409  0  0  0.2983  0.372575  0  0.966835  0
H  H3  1  0.87413116  0.24720417  0.31090432  1  0  0.410887  0  0.889589  0  0  0.380223  0  0.955606  0  0  0.391215  0  0.939425  0  0  0.298296  0.37257  0  0.966849  0
H  H4  1  0.07885175  0.66370652  0.53690821  1  0  0.422387  0  0.879533  0  0  0.392866  0  0.940452  0  0  0.404155  0  0.924  0  0  0.2988  0.384872  0  0.952089  0
H  H5  1  0.92114834  0.33629348  0.46309092  1  0  0.422371  0  0.879558  0  0  0.392849  0  0.940479  0  0  0.40414  0  0.924024  0  0  0.298789  0.384858  0  0.952113  0
H  H6  1  0.86479489  0.64848583  0.35752974  1  0  0.422036  0  0.883741  0  0  0.388351  0  0.951432  0  0  0.39967  0  0.935064  0  0  0.29245  0.380415  0  0.962869  0
H  H7  1  0.13520265  0.35151535  0.64247052  1  0  0.42205  0  0.883721  0  0  0.388326  0  0.95146  0  0  0.399645  0  0.935093  0  0  0.292435  0.380392  0  0.962896  0
H  H8  1  0.83517330  0.50419033  0.40092137  1  0  0.419718  0  0.883318  0  0  0.389953  0  0.945013  0  0  0.400773  0  0.929212  0  0  0.297952  0.382312  0  0.956121  0
H  H9  1  0.16482679  0.49580966  0.59907775  1  0  0.419731  0  0.883313  0  0  0.389965  0  0.945007  0  0  0.400786  0  0.929206  0  0  0.297959  0.382325  0  0.956115  0
H  H10  1  0.58479417  0.85135930  0.94271534  1  0  0.415029  0  0.888765  0  0  0.38247  0  0.955988  0  0  0.392881  0  0.940727  0  0  0.287463  0.375171  0  0.96666  0
H  H11  1  0.41520558  0.14863954  0.05728337  1  0  0.415003  0  0.888796  0  0  0.382439  0  0.956028  0  0  0.392851  0  0.940766  0  0  0.28745  0.37514  0  0.9667  0
H  H12  1  0.39900508  0.88252900  0.87492572  1  0  0.404623  0  0.903073  0  0  0.374545  0  0.966352  0  0  0.38542  0  0.950312  0  0  0.288242  0.366812  0  0.977731  0
H  H13  1  0.60099467  0.11746984  0.12507388  1  0  0.404614  0  0.90308  0  0  0.374539  0  0.966356  0  0  0.385414  0  0.950315  0  0  0.288238  0.366807  0  0.977734  0
H  H14  1  0.95014778  0.06357267  0.60332857  1  0  0.429979  0  0.846937  0  0  0.403186  0  0.912146  0  0  0.412614  0  0.898078  0  0  0.309342  0.396439  0  0.922221  0
H  H15  1  0.04985730  0.93641447  0.39665574  1  0  0.429981  0  0.84698  0  0  0.403196  0  0.912152  0  0  0.412627  0  0.898087  0  0  0.309332  0.396446  0  0.922228  0
H  H16  1  0.74657266  0.09434432  0.56992609  1  0  0.424115  0  0.862342  0  0  0.398267  0  0.922054  0  0  0.407475  0  0.90849  0  0  0.309719  0.392013  0  0.931268  0
H  H17  1  0.25343338  0.90566143  0.43008252  1  0  0.424079  0  0.862386  0  0  0.398208  0  0.922143  0  0  0.407419  0  0.908576  0  0  0.309687  0.391952  0  0.931361  0
H  H18  1  0.51046609  0.12611475  0.69055424  1  0  0.429644  0  0.87778  0  0  0.398817  0  0.941451  0  0  0.409717  0  0.925498  0  0  0.294696  0.390638  0  0.953449  0
H  H19  1  0.48953433  0.87388640  0.30944619  1  0  0.429668  0  0.877747  0  0  0.398843  0  0.941411  0  0  0.409742  0  0.925461  0  0  0.29471  0.390665  0  0.953409  0
H  H20  1  0.38965219  0.04934506  0.77295245  1  0  0.415752  0  0.889803  0  0  0.385182  0  0.953254  0  0  0.394823  0  0.939005  0  0  0.29358  0.378304  0  0.963375  0
H  H21  1  0.61034535  0.95065612  0.22704692  1  0  0.415772  0  0.889784  0  0  0.385204  0  0.95323  0  0  0.394845  0  0.93898  0  0  0.293591  0.378326  0  0.96335  0
H  H22  1  0.86054855  0.13555588  0.82447649  1  0  0.121013  0  0.95487  0  0  0.126486  0  1.029276  0  0  0.129979  0  1.025857  0  0  0.130092  0.12391  0  1.031879  0
H  H23  1  0.13945694  0.86444289  0.17552524  1  0  0.121011  0  0.954872  0  0  0.126477  0  1.029282  0  0  0.129964  0  1.025862  0  0  0.130104  0.123899  0  1.031887  0
H  H24  1  0.88296707  0.13083327  0.98245143  1  0  0.118626  0  0.929245  0  0  0.132397  0  0.988883  0  0  0.134565  0  0.987645  0  0  0.127111  0.130862  0  0.989889  0
H  H25  1  0.11702948  0.86916444  0.01754760  1  0  0.118608  0  0.92937  0  0  0.132381  0  0.988982  0  0  0.134543  0  0.987742  0  0  0.127095  0.130847  0  0.989985  0
H  H26  1  0.30699562  0.57419482  0.87386910  1  0  0.135759  0  0.953804  0  0  0.144265  0  1.013197  0  0  0.148946  0  1.011213  0  0  0.112175  0.140859  0  1.014772  0
H  H27  1  0.69300081  0.42580754  0.12613239  1  0  0.135697  0  0.95389  0  0  0.144254  0  1.01323  0  0  0.148936  0  1.011244  0  0  0.112182  0.14085  0  1.014807  0
H  H28  1  0.40652922  0.71147146  0.11589836  1  0  0.099159  0  0.960663  0  0  0.111597  0  1.020921  0  0  0.115182  0  1.016814  0  0  0.1123  0.108683  0  1.024343  0
H  H29  1  0.59347263  0.28852968  0.88410216  1  0  0.099125  0  0.960643  0  0  0.111565  0  1.020908  0  0  0.115149  0  1.016801  0  0  0.112302  0.108651  0  1.024331  0
H  H30  1  0.11252408  0.30489615  0.15510733  1  0  0.104834  0  0.97197  0  0  0.11135  0  1.040166  0  0  0.115469  0  1.03556  0  0  0.13406  0.108442  0  1.043228  0
H  H31  1  0.88747887  0.69510381  0.84489375  1  0  0.104802  0  0.972017  0  0  0.111331  0  1.040205  0  0  0.115448  0  1.035601  0  0  0.134061  0.108439  0  1.043248  0
C  C32  1  0.34640996  0.59052496  0.30319801  1  0  0.681645  0  3.919943  0  0  0.628722  0  4.215755  0  0  0.66408  0  4.20755  0  0  0.218853  0.605041  0  4.22053  0
C  C33  1  0.65359012  0.40947504  0.69680290  1  0  0.681717  0  3.919974  0  0  0.628791  0  4.215778  0  0  0.664153  0  4.207566  0  0  0.218831  0.605111  0  4.220551  0
C  C34  1  0.15577459  0.36051498  0.87705476  1  0  0.499141  0  3.83797  0  0  0.456035  0  4.11921  0  0  0.482911  0  4.124729  0  0  0.22125  0.43828  0  4.114644  0
C  C35  1  0.84422439  0.63948619  0.12294470  1  0  0.499137  0  3.837841  0  0  0.456038  0  4.119105  0  0  0.482912  0  4.124628  0  0  0.221247  0.438274  0  4.114549  0
C  C36  1  0.96643278  0.14368320  0.90743822  1  0  -0.180305  0  3.63459  0  0  -0.244862  0  3.891508  0  0  -0.245076  0  3.897352  0  0  -0.055857  -0.244689  0  3.887687  0
C  C37  1  0.03356940  0.85631910  0.09256270  1  0  -0.180326  0  3.634721  0  0  -0.244855  0  3.891592  0  0  -0.245038  0  3.89739  0  0  -0.055838  -0.244681  0  3.887771  0
C  C38  1  0.27520668  0.51753421  0.15659189  1  0  -0.150027  0  3.767951  0  0  -0.130151  0  4.02245  0  0  -0.145771  0  4.04538  0  0  -0.027815  -0.12036  0  4.007171  0
C  C39  1  0.72479086  0.48246697  0.84340748  1  0  -0.150131  0  3.768213  0  0  -0.130219  0  4.022665  0  0  -0.145846  0  4.045599  0  0  -0.027784  -0.120427  0  4.007388  0
C  C40  1  0.26475223  0.51709855  0.93777810  1  0  -0.253184  0  3.710993  0  0  -0.269641  0  3.975316  0  0  -0.284179  0  3.994329  0  0  -0.103871  -0.260098  0  3.962286  0
C  C41  1  0.73524531  0.48290264  0.06222306  1  0  -0.253104  0  3.710945  0  0  -0.269617  0  3.975289  0  0  -0.284157  0  3.9943  0  0  -0.103873  -0.260077  0  3.962266  0
C  C42  1  0.32159091  0.59259657  0.07266661  1  0  0.017716  0  3.724377  0  0  -0.018442  0  3.984664  0  0  -0.008098  0  3.999642  0  0  -0.067871  -0.024763  0  3.97439  0
C  C43  1  0.67840630  0.40740346  0.92733145  1  0  0.017787  0  3.724382  0  0  -0.018382  0  3.984681  0  0  -0.008031  0  3.999656  0  0  -0.067883  -0.024702  0  3.974408  0
C  C44  1  0.07308455  0.00900221  0.85820818  1  0  0.702918  0  3.848268  0  0  0.6455  0  4.162932  0  0  0.678501  0  4.15452  0  0  0.228167  0.62317  0  4.168005  0
C  C45  1  0.92691520  0.99099663  0.14179232  1  0  0.702963  0  3.848323  0  0  0.645526  0  4.16299  0  0  0.678523  0  4.154573  0  0  0.228178  0.623197  0  4.168065  0
C  C46  1  0.16056191  0.36950766  0.09796156  1  0  0.101213  0  3.616827  0  0  0.048407  0  3.870529  0  0  0.061433  0  3.884246  0  0  0.064664  0.039642  0  3.862325  0
C  C47  1  0.83943818  0.63049234  0.90203756  1  0  0.101241  0  3.616881  0  0  0.048409  0  3.870605  0  0  0.061442  0  3.884318  0  0  0.064637  0.039631  0  3.862395  0
N  N48  1  0.09777082  0.29632697  0.96512454  1  0  -0.119016  0  3.50135  0  0  -0.026972  0  3.717805  0  0  -0.046549  0  3.742324  0  0  -0.232259  -0.014057  0  3.700796  0
N  N49  1  0.90223070  0.70367301  0.03487556  1  0  -0.118964  0  3.501271  0  0  -0.026933  0  3.717717  0  0  -0.046517  0  3.742228  0  0  -0.232252  -0.014017  0  3.700713  0
O  O50  1  0.40652481  0.73844688  0.36200639  1  0  -0.701001  0  1.999767  0  0  -0.632533  0  2.224733  0  0  -0.658894  0  2.213069  0  0  -0.347754  -0.61423  0  2.232411  0
O  O51  1  0.59347627  0.26155659  0.63799576  1  0  -0.701014  0  1.999797  0  0  -0.632559  0  2.224779  0  0  -0.65892  0  2.213112  0  0  -0.347735  -0.614261  0  2.232468  0
O  O52  1  0.18208157  0.68498186  0.61466142  1  0  -0.862791  0  1.863466  0  0  -0.801885  0  2.036448  0  0  -0.823046  0  2.00408  0  0  -0.595249  -0.786662  0  2.058639  0
O  O53  1  0.81791995  0.31501812  0.38533779  1  0  -0.862772  0  1.86353  0  0  -0.801866  0  2.036495  0  0  -0.823029  0  2.004129  0  0  -0.595227  -0.786644  0  2.058683  0
O  O54  1  0.34793511  0.50331171  0.36445289  1  0  -0.722588  0  1.965397  0  0  -0.660191  0  2.210276  0  0  -0.687838  0  2.201692  0  0  -0.380978  -0.641057  0  2.215477  0
O  O55  1  0.65206365  0.49668364  0.63554548  1  0  -0.722583  0  1.96532  0  0  -0.660215  0  2.210257  0  0  -0.687865  0  2.201671  0  0  -0.380975  -0.64108  0  2.215458  0
O  O56  1  0.85696108  0.61956454  0.43438273  1  0  -0.880333  0  1.835811  0  0  -0.814281  0  2.004383  0  0  -0.836264  0  1.972738  0  0  -0.600372  -0.798697  0  2.026407  0
O  O57  1  0.14304044  0.38043544  0.56561737  1  0  -0.880351  0  1.835779  0  0  -0.814262  0  2.004412  0  0  -0.836245  0  1.972767  0  0  -0.600366  -0.798681  0  2.026432  0
O  O58  1  0.10732475  0.27789659  0.75427321  1  0  -0.584125  0  1.995304  0  0  -0.529272  0  2.215842  0  0  -0.551979  0  2.208456  0  0  -0.293037  -0.513516  0  2.220289  0
O  O59  1  0.89267346  0.72210691  0.24572788  1  0  -0.584131  0  1.9952  0  0  -0.52928  0  2.215718  0  0  -0.551987  0  2.208334  0  0  -0.293027  -0.513525  0  2.220183  0
O  O60  1  0.48616351  0.80741996  0.86051032  1  0  -0.860227  0  1.784717  0  0  -0.806726  0  1.955287  0  0  -0.826354  0  1.925258  0  0  -0.620594  -0.79244  0  1.975837  0
O  O61  1  0.51383657  0.19258003  0.13948880  1  0  -0.860188  0  1.784749  0  0  -0.806694  0  1.955318  0  0  -0.826321  0  1.925289  0  0  -0.620576  -0.792408  0  1.975867  0
O  O62  1  0.25725075  0.03482072  0.90048472  1  0  -0.673072  0  2.034634  0  0  -0.597315  0  2.249956  0  0  -0.623377  0  2.238779  0  0  -0.305276  -0.579269  0  2.257334  0
O  O63  1  0.74274867  0.96517695  0.09951357  1  0  -0.673074  0  2.034576  0  0  -0.597337  0  2.249931  0  0  -0.623394  0  2.238741  0  0  -0.305296  -0.579291  0  2.257308  0
O  O64  1  0.81564994  0.00921811  0.55749935  1  0  -0.85014  0  1.768359  0  0  -0.796964  0  1.933467  0  0  -0.815363  0  1.905141  0  0  -0.605248  -0.784223  0  1.952902  0
O  O65  1  0.18434296  0.99078196  0.44250295  1  0  -0.850118  0  1.768411  0  0  -0.796921  0  1.933404  0  0  -0.81533  0  1.90507  0  0  -0.605203  -0.784171  0  1.952847  0
O  O66  1  0.96873373  0.87795527  0.78025418  1  0  -0.67632  0  1.989381  0  0  -0.611183  0  2.226102  0  0  -0.638075  0  2.216327  0  0  -0.335342  -0.592698  0  2.23233  0
O  O67  1  0.03126347  0.12204475  0.21974926  1  0  -0.676339  0  1.989414  0  0  -0.611191  0  2.226136  0  0  -0.638083  0  2.216357  0  0  -0.335333  -0.592699  0  2.232348  0
O  O68  1  0.49002858  0.03672576  0.71579916  1  0  -0.909671  0  1.836518  0  0  -0.854563  0  2.023538  0  0  -0.874524  0  1.992064  0  0  -0.654343  -0.83992  0  2.046246  0
O  O69  1  0.50997007  0.96327425  0.28419988  1  0  -0.909711  0  1.83648  0  0  -0.854602  0  2.023502  0  0  -0.874562  0  1.992027  0  0  -0.654364  -0.839959  0  2.046209  0
