# generated using pymatgen
data_NiH12C17(NO)5
_symmetry_space_group_name_H-M   'P 1'
_cell_length_a   8.48999248
_cell_length_b   10.96387884
_cell_length_c   11.20408860
_cell_angle_alpha   77.32794908
_cell_angle_beta   81.49275364
_cell_angle_gamma   68.59898410
_symmetry_Int_Tables_number   1
_chemical_formula_structural   NiH12C17(NO)5
_chemical_formula_sum   'Ni2 H24 C34 N10 O10'
_cell_volume   944.70202789
_cell_formula_units_Z   2
loop_
 _symmetry_equiv_pos_site_id
 _symmetry_equiv_pos_as_xyz
  1  'x, y, z'
loop_
 _atom_site_type_symbol
 _atom_site_label
 _atom_site_symmetry_multiplicity
 _atom_site_fract_x
 _atom_site_fract_y
 _atom_site_fract_z
 _atom_site_occupancy
 _atom_site_pbe_bader_charge
 _atom_site_pbe_bader_spin_density
 _atom_site_pbe_cm5_charge
 _atom_site_pbe_ddec_charge
 _atom_site_pbe_ddec_spin_density
 _atom_site_pbe_ddec_sum_bond_order
 _atom_site_pbe_magmom
Ni  Ni0  1  0.50000336  0.50000121  0.49999741  1  1.183656  1.574324  0.635218  0.805867  1.790285  2.470339  1.562
Ni  Ni1  1  0.50000086  0.99999920  0.50000234  1  1.18282  1.56632  0.633139  0.783392  1.77153  2.370752  1.554
H  H2  1  0.80586728  0.75715525  0.47472311  1  0.094479  0.002296  0.119606  0.093632  0.001009  1.000547  0.001
H  H3  1  0.19413639  0.24284617  0.52527413  1  0.094483  0.002295  0.119587  0.093654  0.001009  1.000486  0.001
H  H4  1  0.03318838  0.59149401  0.60324493  1  0.090312  0.000958  0.112873  0.13225  0.000466  1.004787  0.0
H  H5  1  0.96681270  0.40850244  0.39675377  1  0.090285  0.000958  0.112847  0.13222  0.000466  1.004854  0.0
H  H6  1  0.58917282  0.97235188  0.75269469  1  0.133542  0.001656  0.118933  0.099737  0.000548  0.994984  0.001
H  H7  1  0.41081848  0.02763961  0.24730555  1  0.133185  0.001656  0.118962  0.099693  0.000548  0.995129  0.001
H  H8  1  0.82036974  0.82328928  0.89138583  1  0.105083  0.000793  0.112295  0.123797  0.000379  0.992318  0.0
H  H9  1  0.17961396  0.17669821  0.10861993  1  0.105297  0.000793  0.112268  0.12374  0.000379  0.992257  0.0
H  H10  1  0.18945969  0.65218606  0.36882174  1  0.11547  0.001504  0.120634  0.0983  0.000497  1.031565  0.001
H  H11  1  0.81053074  0.34781540  0.63117465  1  0.11568  0.001505  0.120636  0.098204  0.000497  1.031501  0.001
H  H12  1  0.61432849  0.33402659  0.29069652  1  0.142204  0.001791  0.120847  0.09874  0.000644  1.021493  0.001
H  H13  1  0.38567020  0.66597579  0.70930566  1  0.142163  0.001792  0.120852  0.098752  0.000645  1.021352  0.001
H  H14  1  0.06974728  0.67231970  0.17033179  1  0.12367  0.000854  0.118365  0.133935  0.000423  0.984114  0.0
H  H15  1  0.93024819  0.32768375  0.82966257  1  0.123485  0.000854  0.118349  0.133991  0.000423  0.984113  0.0
H  H16  1  0.51107255  0.33030055  0.10102204  1  0.084625  0.00096  0.111867  0.123804  0.000423  0.997854  0.0
H  H17  1  0.48893152  0.66970284  0.89897649  1  0.084616  0.00096  0.111876  0.123811  0.000423  0.997923  0.0
H  H18  1  0.37925758  0.31901454  0.58307505  1  0.65533  0.00017  0.290197  0.377245  0.000342  0.963129  0.0
H  H19  1  0.62074164  0.68098887  0.41692237  1  0.65529  0.000171  0.290176  0.377249  0.000343  0.963124  0.0
H  H20  1  0.09382841  0.88257762  0.32258282  1  0.044889  0.000145  0.103105  0.105492  3.2e-05  0.9984  0.0
H  H21  1  0.90617904  0.11742080  0.67741635  1  0.044914  0.000145  0.103137  0.10553  3.2e-05  0.998454  0.0
H  H22  1  0.37326961  0.35006009  0.92283624  1  0.494734  8e-05  0.363588  0.30122  2.2e-05  0.87352  0.0
H  H23  1  0.62673955  0.64994529  0.07716116  1  0.494769  8e-05  0.363484  0.301115  2.2e-05  0.873303  0.0
H  H24  1  0.27795197  0.42680448  0.67321346  1  0.638496  0.000529  0.282459  0.336968  0.000686  1.0221  0.001
H  H25  1  0.72204746  0.57319798  0.32677968  1  0.638486  0.00053  0.282417  0.336941  0.000687  1.022131  0.001
C  C26  1  0.67067059  0.20308228  0.51478240  1  1.534287  -0.001649  0.22395  0.5867  -0.0022  4.15653  -0.002
C  C27  1  0.32933646  0.79690915  0.48522103  1  1.535023  -0.001647  0.223936  0.58674  -0.002198  4.15672  -0.002
C  C28  1  0.83874134  0.09446157  0.50738026  1  -0.00419  0.00745  -0.01968  -0.066678  0.004169  4.011942  0.006
C  C29  1  0.16126949  0.90553483  0.49262156  1  -0.006496  0.007452  -0.019654  -0.066704  0.00417  4.011747  0.006
C  C30  1  0.76923795  0.05456459  0.30882640  1  1.601008  0.002288  0.189148  0.571912  0.001874  4.266336  0.002
C  C31  1  0.23076025  0.94544270  0.69118460  1  1.600016  0.002285  0.18919  0.571991  0.001873  4.266215  0.002
C  C32  1  0.81091759  0.76553236  0.56893449  1  0.488378  -0.003886  0.051708  0.104858  -0.004463  3.925306  -0.003
C  C33  1  0.18907337  0.23446809  0.43106384  1  0.48862  -0.003885  0.051694  0.10486  -0.004461  3.925403  -0.003
C  C34  1  0.93793849  0.67416048  0.64089550  1  0.037479  0.00533  -0.07805  -0.150817  0.003013  3.902625  0.004
C  C35  1  0.06205528  0.32583693  0.35910935  1  0.037088  0.005329  -0.078034  -0.150792  0.003012  3.902857  0.004
C  C36  1  0.69224000  0.88774376  0.72408344  1  0.551991  -0.004417  0.047658  0.094327  -0.004932  3.943909  -0.003
C  C37  1  0.30775249  0.11224773  0.27591664  1  0.552563  -0.004417  0.047606  0.094317  -0.004932  3.944165  -0.003
C  C38  1  0.81725509  0.80351704  0.80083984  1  -0.072991  0.005465  -0.079659  -0.157323  0.002996  3.940384  0.004
C  C39  1  0.18273440  0.19647343  0.19916356  1  -0.07361  0.005465  -0.079515  -0.156963  0.002996  3.940165  0.004
C  C40  1  0.94238162  0.69306898  0.75980526  1  -0.00842  -0.006531  0.013244  0.061809  -0.007223  3.998295  -0.004
C  C41  1  0.05760922  0.30691850  0.24019951  1  -0.008109  -0.006532  0.013145  0.061624  -0.007224  3.998246  -0.004
C  C42  1  0.25668667  0.58603768  0.30413592  1  0.475779  -0.00409  0.044275  0.087695  -0.004754  3.934021  -0.003
C  C43  1  0.74330684  0.41397071  0.69586209  1  0.476029  -0.004089  0.044412  0.08798  -0.004754  3.933864  -0.003
C  C44  1  0.49302226  0.40700265  0.26311608  1  0.515313  -0.003691  0.049421  0.106502  -0.004295  3.913918  -0.002
C  C45  1  0.50698260  0.59299877  0.73688099  1  0.515344  -0.003689  0.049423  0.106545  -0.004293  3.913828  -0.002
C  C46  1  0.05154822  0.93403815  0.40082384  1  -0.003793  0.001736  -0.089636  -0.130113  0.001017  3.978274  0.001
C  C47  1  0.94845125  0.06596226  0.59917689  1  -0.003934  0.001737  -0.089657  -0.130106  0.001017  3.978389  0.001
C  C48  1  0.21277947  0.52154535  0.00011585  1  0.987375  0.000586  0.233276  0.271874  0.000195  4.052382  0.001
C  C49  1  0.78722990  0.47845908  0.99987726  1  0.987456  0.000586  0.233331  0.271808  0.000195  4.052223  0.001
C  C50  1  0.28084039  0.50561209  0.11666909  1  -0.045076  -0.00627  0.009396  0.043699  -0.006957  4.047134  -0.004
C  C51  1  0.71916806  0.49439433  0.88332282  1  -0.04109  -0.006268  0.009445  0.043771  -0.006954  4.047072  -0.004
C  C52  1  0.19040111  0.59587134  0.19524217  1  0.049752  0.005321  -0.076455  -0.151648  0.003004  3.934579  0.004
C  C53  1  0.80960310  0.40413407  0.80475233  1  0.049179  0.005321  -0.076498  -0.15177  0.003004  3.934507  0.004
C  C54  1  0.88884036  0.02851924  0.40675886  1  -0.024716  0.002134  -0.014413  -0.042979  0.000806  3.966595  0.001
C  C55  1  0.11115982  0.97148012  0.59324735  1  -0.022373  0.002133  -0.014457  -0.043056  0.000805  3.966631  0.001
C  C56  1  0.43353579  0.40702965  0.15385892  1  -0.034775  0.005421  -0.082217  -0.168952  0.002984  3.943675  0.004
C  C57  1  0.56646657  0.59297476  0.84613785  1  -0.038212  0.005421  -0.08226  -0.169079  0.002984  3.943774  0.004
C  C58  1  0.07069271  0.60197155  0.84212417  1  0.971299  0.00057  0.229299  0.271888  0.000182  4.02412  0.001
C  C59  1  0.92929948  0.39802091  0.15787842  1  0.971372  0.00057  0.229365  0.271765  0.000182  4.024168  0.001
N  N60  1  0.68885183  0.86965136  0.60951118  1  -1.213582  0.062372  -0.323233  -0.225025  0.036205  3.590733  0.056
N  N61  1  0.31114499  0.13034112  0.39048808  1  -1.213568  0.062369  -0.323193  -0.225102  0.036204  3.590643  0.056
N  N62  1  0.40858578  0.49593441  0.33671514  1  -1.21393  0.069362  -0.319559  -0.224434  0.04018  3.53202  0.063
N  N63  1  0.59141905  0.50406998  0.66328307  1  -1.214138  0.069358  -0.319701  -0.224633  0.040178  3.532283  0.063
N  N64  1  0.18788521  0.48722643  0.81608891  1  -0.661691  -0.002411  -0.198401  -0.217722  -0.002913  3.16961  -0.002
N  N65  1  0.81211049  0.51276307  0.18391027  1  -0.66187  -0.00241  -0.198397  -0.217669  -0.002911  3.170093  -0.002
N  N66  1  0.27595390  0.43836510  0.91711337  1  -0.802197  -0.001743  -0.260342  -0.158227  -0.001932  3.695328  -0.001
N  N67  1  0.72405799  0.56163132  0.08288562  1  -0.802131  -0.001742  -0.260262  -0.158104  -0.001931  3.695342  -0.001
N  N68  1  0.08161663  0.62478709  0.95475521  1  -1.151915  -0.001868  -0.312502  -0.382914  -0.002092  3.175405  -0.002
N  N69  1  0.91838521  0.37521239  0.04523647  1  -1.152047  -0.001867  -0.31254  -0.382785  -0.002091  3.175102  -0.002
O  O70  1  0.78604516  0.12723815  0.20855663  1  -1.166698  0.021346  -0.346744  -0.549801  0.011356  2.048267  0.018
O  O71  1  0.21394403  0.87278594  0.79146711  1  -1.165892  0.021349  -0.346873  -0.549911  0.011357  2.047996  0.018
O  O72  1  0.31611029  0.41490832  0.58696499  1  -1.266167  0.067181  -0.573145  -0.742129  0.037422  2.226719  0.058
O  O73  1  0.68388085  0.58509210  0.41303688  1  -1.266051  0.067194  -0.57305  -0.742061  0.037427  2.226822  0.058
O  O74  1  0.67991163  0.31912024  0.49725962  1  -1.140335  0.074685  -0.301843  -0.532143  0.042091  2.420442  0.069
O  O75  1  0.32010515  0.68088413  0.50273784  1  -1.141195  0.074659  -0.301842  -0.532086  0.042077  2.420885  0.069
O  O76  1  0.65868342  0.99529159  0.33748039  1  -1.157126  0.068054  -0.336452  -0.589072  0.03734  2.310937  0.061
O  O77  1  0.34131921  0.00471277  0.66252171  1  -1.157052  0.068063  -0.336323  -0.588994  0.037344  2.310979  0.061
O  O78  1  0.53254180  0.17814323  0.53791037  1  -1.151002  0.055188  -0.28803  -0.531048  0.030542  2.317797  0.051
O  O79  1  0.46746436  0.82185316  0.46209388  1  -1.150944  0.055204  -0.288019  -0.531105  0.030551  2.317673  0.051
