# generated using pymatgen
data_FeH30C30(NO)4
_symmetry_space_group_name_H-M   'P 1'
_cell_length_a   11.00977278
_cell_length_b   11.59728439
_cell_length_c   12.20119485
_cell_angle_alpha   73.09438216
_cell_angle_beta   65.01392944
_cell_angle_gamma   71.97544954
_symmetry_Int_Tables_number   1
_chemical_formula_structural   FeH30C30(NO)4
_chemical_formula_sum   'Fe2 H60 C60 N8 O8'
_cell_volume   1319.42263321
_cell_formula_units_Z   2
loop_
 _symmetry_equiv_pos_site_id
 _symmetry_equiv_pos_as_xyz
  1  'x, y, z'
loop_
 _atom_site_type_symbol
 _atom_site_label
 _atom_site_symmetry_multiplicity
 _atom_site_fract_x
 _atom_site_fract_y
 _atom_site_fract_z
 _atom_site_occupancy
 _atom_site_hle17_bader_spin_density
 _atom_site_hle17_ddec_charge
 _atom_site_hle17_ddec_spin_density
 _atom_site_hle17_ddec_sum_bond_order
 _atom_site_hle17_magmom
 _atom_site_hse06_10hf_bader_spin_density
 _atom_site_hse06_10hf_ddec_charge
 _atom_site_hse06_10hf_ddec_spin_density
 _atom_site_hse06_10hf_ddec_sum_bond_order
 _atom_site_hse06_10hf_magmom
 _atom_site_hse06_bader_spin_density
 _atom_site_hse06_ddec_charge
 _atom_site_hse06_ddec_spin_density
 _atom_site_hse06_ddec_sum_bond_order
 _atom_site_hse06_magmom
 _atom_site_pbe_bader_spin_density
 _atom_site_pbe_cm5_charge
 _atom_site_pbe_ddec_charge
 _atom_site_pbe_ddec_spin_density
 _atom_site_pbe_ddec_sum_bond_order
 _atom_site_pbe_magmom
Fe  Fe0  1  0.56049604  0.32208328  0.72640527  1  0  0.518384  0  3.203168  0  0  0.50089  0  3.662184  0  0  0.531053  0  3.621117  0  0  0.789154  0.488023  0  3.681324  0
Fe  Fe1  1  0.43949624  0.67792037  0.27359487  1  0  0.518508  0  3.202978  0  0  0.500901  0  3.662029  0  0  0.531066  0  3.620958  0  0  0.789101  0.488047  0  3.681166  0
H  H2  1  0.69642996  0.48473862  0.87038147  1  0  0.055934  0  0.983507  0  0  0.071137  0  1.046597  0  0  0.070517  0  1.044314  0  0  0.110697  0.072007  0  1.047437  0
H  H3  1  0.30357009  0.51525764  0.12961941  1  0  0.055994  0  0.983544  0  0  0.071199  0  1.046625  0  0  0.070579  0  1.044344  0  0  0.110722  0.072069  0  1.047464  0
H  H4  1  0.64937180  0.39293265  0.03713263  1  0  0.088311  0  0.991848  0  0  0.097376  0  1.057885  0  0  0.100001  0  1.056756  0  0  0.095141  0.095488  0  1.059008  0
H  H5  1  0.35063205  0.60706453  0.96286328  1  0  0.088325  0  0.991844  0  0  0.097399  0  1.057868  0  0  0.100026  0  1.056738  0  0  0.095138  0.095511  0  1.058993  0
H  H6  1  0.55894891  0.27050957  0.24340802  1  0  0.086857  0  0.973794  0  0  0.095312  0  1.039192  0  0  0.097195  0  1.040084  0  0  0.097069  0.094069  0  1.038624  0
H  H7  1  0.44105527  0.72949039  0.75659027  1  0  0.086854  0  0.973803  0  0  0.095312  0  1.039199  0  0  0.097197  0  1.040085  0  0  0.097071  0.09407  0  1.03863  0
H  H8  1  0.42322436  0.11799578  0.28097358  1  0  0.09145  0  0.948627  0  0  0.106226  0  1.00277  0  0  0.108472  0  1.002605  0  0  0.102977  0.104565  0  1.003047  0
H  H9  1  0.57677335  0.88200603  0.71902992  1  0  0.091472  0  0.948606  0  0  0.106204  0  1.002797  0  0  0.10845  0  1.002633  0  0  0.102951  0.104544  0  1.003076  0
H  H10  1  0.37733962  0.08794388  0.11034491  1  0  0.090807  0  0.989171  0  0  0.099912  0  1.055519  0  0  0.102729  0  1.053998  0  0  0.096142  0.097766  0  1.056839  0
H  H11  1  0.62265575  0.91205515  0.88965862  1  0  0.090819  0  0.989172  0  0  0.099918  0  1.055527  0  0  0.102739  0  1.054001  0  0  0.096149  0.097784  0  1.056833  0
H  H12  1  0.33231436  0.10348726  0.96864340  1  0  0.058322  0  0.982838  0  0  0.074164  0  1.044631  0  0  0.074328  0  1.041044  0  0  0.110214  0.074405  0  1.046587  0
H  H13  1  0.66768769  0.89650900  0.03135590  1  0  0.058356  0  0.982788  0  0  0.074191  0  1.044582  0  0  0.074354  0  1.040999  0  0  0.110213  0.074432  0  1.046539  0
H  H14  1  0.85740646  0.46441684  0.38662363  1  0  0.123166  0  0.960152  0  0  0.142521  0  1.021337  0  0  0.144216  0  1.022024  0  0  0.092204  0.141502  0  1.020784  0
H  H15  1  0.14259481  0.53557850  0.61337704  1  0  0.12313  0  0.96021  0  0  0.142502  0  1.021373  0  0  0.144197  0  1.02206  0  0  0.092189  0.141481  0  1.020821  0
H  H16  1  0.77420485  0.61961303  0.40054021  1  0  0.133925  0  0.952391  0  0  0.156487  0  1.009653  0  0  0.158529  0  1.009203  0  0  0.099315  0.155115  0  1.009762  0
H  H17  1  0.22579497  0.38038416  0.59946296  1  0  0.133969  0  0.952395  0  0  0.156542  0  1.009633  0  0  0.158584  0  1.009182  0  0  0.099335  0.15517  0  1.009741  0
H  H18  1  0.92503149  0.55729694  0.43392156  1  0  0.128581  0  0.966664  0  0  0.146768  0  1.026956  0  0  0.14795  0  1.027763  0  0  0.093774  0.14602  0  1.026306  0
H  H19  1  0.07496598  0.44269749  0.56608572  1  0  0.128608  0  0.966656  0  0  0.146794  0  1.026944  0  0  0.147975  0  1.027751  0  0  0.093774  0.146042  0  1.026297  0
H  H20  1  0.93165981  0.67027049  0.73694856  1  0  0.12494  0  0.974616  0  0  0.144375  0  1.037072  0  0  0.146529  0  1.036364  0  0  0.093784  0.142783  0  1.037856  0
H  H21  1  0.06833836  0.32972945  0.26304954  1  0  0.12494  0  0.974608  0  0  0.144377  0  1.037064  0  0  0.146531  0  1.036357  0  0  0.093787  0.142783  0  1.037852  0
H  H22  1  0.76705918  0.64826582  0.84454471  1  0  0.118655  0  0.97739  0  0  0.136492  0  1.044745  0  0  0.137948  0  1.045514  0  0  0.089188  0.135305  0  1.0445  0
H  H23  1  0.23293722  0.35173320  0.15545269  1  0  0.11864  0  0.977394  0  0  0.136474  0  1.044757  0  0  0.137935  0  1.045516  0  0  0.089176  0.135289  0  1.044511  0
H  H24  1  0.90450130  0.51771943  0.80861499  1  0  0.116725  0  0.945446  0  0  0.137313  0  1.004057  0  0  0.139951  0  1.002188  0  0  0.089951  0.135459  0  1.005363  0
H  H25  1  0.09549731  0.48227868  0.19138428  1  0  0.116751  0  0.94547  0  0  0.137356  0  1.004053  0  0  0.139995  0  1.002184  0  0  0.089966  0.135502  0  1.00536  0
H  H26  1  0.29670616  0.19481997  0.55449963  1  0  0.145421  0  0.953431  0  0  0.161465  0  1.016925  0  0  0.16502  0  1.014384  0  0  0.101195  0.159189  0  1.018538  0
H  H27  1  0.70329257  0.80518183  0.44550022  1  0  0.145397  0  0.953417  0  0  0.161442  0  1.016918  0  0  0.164996  0  1.014378  0  0  0.101183  0.159165  0  1.018531  0
H  H28  1  0.43777988  0.07127502  0.54488995  1  0  0.127388  0  0.958379  0  0  0.1475  0  1.018426  0  0  0.150142  0  1.016874  0  0  0.096002  0.145909  0  1.019166  0
H  H29  1  0.56222130  0.92872493  0.45510784  1  0  0.127357  0  0.958399  0  0  0.147463  0  1.018459  0  0  0.150105  0  1.016907  0  0  0.095982  0.145872  0  1.019198  0
H  H30  1  0.46504780  0.22285783  0.46234406  1  0  0.119839  0  0.960161  0  0  0.138874  0  1.022364  0  0  0.140955  0  1.022164  0  0  0.091496  0.137547  0  1.022469  0
H  H31  1  0.53495292  0.77714398  0.53765666  1  0  0.119826  0  0.960174  0  0  0.138872  0  1.022359  0  0  0.140953  0  1.022161  0  0  0.091493  0.137544  0  1.022464  0
H  H32  1  0.27163811  0.93893284  0.98700396  1  0  0.125175  0  0.967828  0  0  0.142751  0  1.032254  0  0  0.144453  0  1.033351  0  0  0.091647  0.14136  0  1.031735  0
H  H33  1  0.72836161  0.06106896  0.01299632  1  0  0.125266  0  0.967816  0  0  0.142844  0  1.032227  0  0  0.144548  0  1.033323  0  0  0.091689  0.141454  0  1.031709  0
H  H34  1  0.13547971  0.07151103  0.00447170  1  0  0.115802  0  0.95299  0  0  0.134768  0  1.015997  0  0  0.136985  0  1.014782  0  0  0.089788  0.133168  0  1.016893  0
H  H35  1  0.86451835  0.92849354  0.99552844  1  0  0.115836  0  0.952998  0  0  0.134796  0  1.015999  0  0  0.137014  0  1.014784  0  0  0.089793  0.133197  0  1.016895  0
H  H36  1  0.12680259  0.94568479  0.95386945  1  0  0.126205  0  0.950232  0  0  0.146466  0  1.008155  0  0  0.149022  0  1.006623  0  0  0.093809  0.144783  0  1.009077  0
H  H37  1  0.87319369  0.05431886  0.04613081  1  0  0.126247  0  0.950208  0  0  0.146493  0  1.008132  0  0  0.149049  0  1.006598  0  0  0.093821  0.14481  0  1.009052  0
H  H38  1  0.85491951  0.28680467  0.68897636  1  0  0.07241  0  0.976052  0  0  0.080924  0  1.040581  0  0  0.082392  0  1.038903  0  0  0.115756  0.080052  0  1.041456  0
H  H39  1  0.14507443  0.71319621  0.31102474  1  0  0.072385  0  0.976096  0  0  0.080899  0  1.040623  0  0  0.082367  0  1.038946  0  0  0.11575  0.080027  0  1.041499  0
H  H40  1  0.06133464  0.11720309  0.65644188  1  0  0.12872  0  0.952489  0  0  0.138667  0  1.008907  0  0  0.14176  0  1.007881  0  0  0.112917  0.136387  0  1.009925  0
H  H41  1  0.93866084  0.88279965  0.34356385  1  0  0.128691  0  0.95251  0  0  0.138637  0  1.008939  0  0  0.141724  0  1.007912  0  0  0.11293  0.13636  0  1.009954  0
H  H42  1  0.81705333  0.88685791  0.66136858  1  0  0.115182  0  0.959916  0  0  0.12384  0  1.023398  0  0  0.126412  0  1.023548  0  0  0.10754  0.122194  0  1.023263  0
H  H43  1  0.18295051  0.11313927  0.33862979  1  0  0.115208  0  0.959907  0  0  0.123843  0  1.023427  0  0  0.126418  0  1.023572  0  0  0.107534  0.122196  0  1.023293  0
H  H44  1  0.61730711  0.06345772  0.70146536  1  0  0.066401  0  0.999034  0  0  0.074408  0  1.067735  0  0  0.075313  0  1.066766  0  0  0.114046  0.07372  0  1.068476  0
H  H45  1  0.38269396  0.93653853  0.29853104  1  0  0.066406  0  0.999054  0  0  0.074421  0  1.067753  0  0  0.075332  0  1.066775  0  0  0.114049  0.073731  0  1.068492  0
H  H46  1  0.17173994  0.91149046  0.59451052  1  0  0.092656  0  0.924019  0  0  0.111099  0  0.979325  0  0  0.112617  0  0.978896  0  0  0.101971  0.109896  0  0.979824  0
H  H47  1  0.82826134  0.08851319  0.40548948  1  0  0.092701  0  0.923959  0  0  0.111083  0  0.979298  0  0  0.112601  0  0.978867  0  0  0.101949  0.10988  0  0.979797  0
H  H48  1  0.07152415  0.81903264  0.59139663  1  0  0.086852  0  0.927753  0  0  0.102764  0  0.990519  0  0  0.104265  0  0.990351  0  0  0.097333  0.101612  0  0.990899  0
H  H49  1  0.92847879  0.18096824  0.40860514  1  0  0.086855  0  0.92782  0  0  0.102748  0  0.990571  0  0  0.104246  0  0.990408  0  0  0.097357  0.101601  0  0.990936  0
H  H50  1  0.10187073  0.85698648  0.81605398  1  0  0.093183  0  0.941034  0  0  0.109833  0  1.004742  0  0  0.112061  0  1.003175  0  0  0.099919  0.107813  0  1.006091  0
H  H51  1  0.89813155  0.14301718  0.18394645  1  0  0.093199  0  0.940972  0  0  0.10986  0  1.00468  0  0  0.112091  0  1.003114  0  0  0.099928  0.107841  0  1.006027  0
H  H52  1  0.97947183  0.77861928  0.83079733  1  0  0.069037  0  0.939288  0  0  0.088682  0  0.998887  0  0  0.089631  0  0.998605  0  0  0.090587  0.087453  0  0.999755  0
H  H53  1  0.02053157  0.22137975  0.16920233  1  0  0.069044  0  0.939192  0  0  0.088707  0  0.998779  0  0  0.089658  0  0.998497  0  0  0.090613  0.087472  0  0.999654  0
H  H54  1  0.28855896  0.40187002  0.92598225  1  0  0.07056  0  0.975185  0  0  0.0782  0  1.042113  0  0  0.079984  0  1.039878  0  0  0.112056  0.076542  0  1.044383  0
H  H55  1  0.71143999  0.59813085  0.07401612  1  0  0.070576  0  0.975251  0  0  0.078213  0  1.042177  0  0  0.080001  0  1.039939  0  0  0.11207  0.076553  0  1.044448  0
H  H56  1  0.09886716  0.58641082  0.94838705  1  0  0.097787  0  0.948516  0  0  0.11147  0  1.001997  0  0  0.113898  0  1.002267  0  0  0.102602  0.109549  0  1.002208  0
H  H57  1  0.90113034  0.41359190  0.05161300  1  0  0.097768  0  0.948547  0  0  0.11145  0  1.002032  0  0  0.113878  0  1.002304  0  0  0.102578  0.109537  0  1.002236  0
H  H58  1  0.31342240  0.73419440  0.56757052  1  0  0.121935  0  0.966498  0  0  0.127454  0  1.032264  0  0  0.131292  0  1.030486  0  0  0.113136  0.124433  0  1.034077  0
H  H59  1  0.68658801  0.26581295  0.43242827  1  0  0.121924  0  0.966611  0  0  0.127547  0  1.032255  0  0  0.131382  0  1.030484  0  0  0.113177  0.12452  0  1.034066  0
H  H60  1  0.48996156  0.54794341  0.56116961  1  0  0.093119  0  0.974735  0  0  0.097123  0  1.04357  0  0  0.100298  0  1.039341  0  0  0.124969  0.094488  0  1.047334  0
H  H61  1  0.51003994  0.45205932  0.43883220  1  0  0.093071  0  0.974752  0  0  0.097117  0  1.04351  0  0  0.100292  0  1.039282  0  0  0.124964  0.094481  0  1.047274  0
C  C62  1  0.74551686  0.48944572  0.57069624  1  0  0.471016  0  3.650072  0  0  0.453803  0  3.925534  0  0  0.484929  0  3.926614  0  0  0.136081  0.433187  0  3.923502  0
C  C63  1  0.25448097  0.51055146  0.42930441  1  0  0.470927  0  3.650062  0  0  0.453682  0  3.925572  0  0  0.484803  0  3.926656  0  0  0.136017  0.433066  0  3.923539  0
C  C64  1  0.74844804  0.51971811  0.67555625  1  0  -0.318556  0  3.75585  0  0  -0.310053  0  4.019759  0  0  -0.336392  0  4.043025  0  0  -0.065827  -0.292844  0  4.004045  0
C  C65  1  0.25155223  0.48027723  0.32444480  1  0  -0.318535  0  3.755672  0  0  -0.309925  0  4.019556  0  0  -0.336263  0  4.042823  0  0  -0.065768  -0.292719  0  4.003843  0
C  C66  1  0.68412744  0.45877248  0.79725936  1  0  0.151563  0  3.727033  0  0  0.108747  0  3.993631  0  0  0.131689  0  4.003532  0  0  0.048323  0.09476  0  3.985419  0
C  C67  1  0.31586872  0.54122747  0.20274197  1  0  0.151482  0  3.727219  0  0  0.108665  0  3.993797  0  0  0.131606  0  4.003698  0  0  0.048313  0.094677  0  3.985584  0
C  C68  1  0.56304723  0.31302519  0.95383473  1  0  0.130498  0  3.785946  0  0  0.126469  0  4.039919  0  0  0.132566  0  4.060299  0  0  0.082294  0.122191  0  4.026219  0
C  C69  1  0.43694994  0.68697476  0.04616376  1  0  0.130522  0  3.785959  0  0  0.126504  0  4.039939  0  0  0.132605  0  4.060318  0  0  0.082309  0.122226  0  4.026238  0
C  C70  1  0.58872139  0.32788644  0.05149482  1  0  -0.148534  0  3.753238  0  0  -0.166713  0  4.003988  0  0  -0.170095  0  4.02366  0  0  -0.101039  -0.164678  0  3.990818  0
C  C71  1  0.41128145  0.67211074  0.94850310  1  0  -0.148643  0  3.753269  0  0  -0.16683  0  4.004034  0  0  -0.170217  0  4.023708  0  0  -0.101071  -0.164796  0  3.990866  0
C  C72  1  0.53776371  0.25844111  0.16852111  1  0  -0.056457  0  3.774002  0  0  -0.073355  0  4.03095  0  0  -0.074498  0  4.052925  0  0  -0.095965  -0.072242  0  4.015743  0
C  C73  1  0.46223724  0.74155976  0.83147732  1  0  -0.056439  0  3.773977  0  0  -0.073336  0  4.030912  0  0  -0.074477  0  4.05289  0  0  -0.095948  -0.072224  0  4.015707  0
C  C74  1  0.46168449  0.17241677  0.18917203  1  0  -0.071978  0  3.794015  0  0  -0.089178  0  4.050686  0  0  -0.091143  0  4.073113  0  0  -0.099019  -0.087836  0  4.035456  0
C  C75  1  0.53831446  0.82758411  0.81082799  1  0  -0.071952  0  3.79403  0  0  -0.089113  0  4.05069  0  0  -0.091075  0  4.073113  0  0  -0.098975  -0.087772  0  4.035466  0
C  C76  1  0.43557391  0.15618643  0.09298813  1  0  -0.170361  0  3.783241  0  0  -0.189038  0  4.038203  0  0  -0.192359  0  4.057939  0  0  -0.104886  -0.186669  0  4.024917  0
C  C77  1  0.56442548  0.84381260  0.90701223  1  0  -0.17043  0  3.78319  0  0  -0.189102  0  4.038156  0  0  -0.192424  0  4.05789  0  0  -0.104941  -0.186743  0  4.024864  0
C  C78  1  0.48434997  0.22695375  0.97504630  1  0  0.122633  0  3.787759  0  0  0.119271  0  4.041602  0  0  0.124634  0  4.061608  0  0  0.078654  0.115653  0  4.027877  0
C  C79  1  0.51564819  0.77304620  0.02495426  1  0  0.122706  0  3.787568  0  0  0.119343  0  4.041423  0  0  0.124698  0  4.061441  0  0  0.078714  0.115726  0  4.027701  0
C  C80  1  0.38247859  0.15443113  0.87763920  1  0  0.144036  0  3.723024  0  0  0.100324  0  3.992218  0  0  0.123407  0  4.001175  0  0  0.044151  0.085474  0  3.985898  0
C  C81  1  0.61751935  0.84556975  0.12236201  1  0  0.143983  0  3.723022  0  0  0.100278  0  3.992207  0  0  0.123364  0  4.001167  0  0  0.044168  0.085426  0  3.985894  0
C  C82  1  0.35566147  0.13809529  0.77948491  1  0  -0.323401  0  3.761331  0  0  -0.317921  0  4.029416  0  0  -0.344445  0  4.052993  0  0  -0.070217  -0.300102  0  4.012164  0
C  C83  1  0.64433804  0.86190743  0.22051356  1  0  -0.323357  0  3.761372  0  0  -0.317828  0  4.029461  0  0  -0.344357  0  4.053044  0  0  -0.070191  -0.300009  0  4.012205  0
C  C84  1  0.42079311  0.19525755  0.65398872  1  0  0.460109  0  3.666935  0  0  0.445756  0  3.941413  0  0  0.476604  0  3.942928  0  0  0.130915  0.426038  0  3.938549  0
C  C85  1  0.57920640  0.80474517  0.34601057  1  0  0.460079  0  3.667055  0  0  0.445717  0  3.941532  0  0  0.476569  0  3.943045  0  0  0.130917  0.426001  0  3.938666  0
C  C86  1  0.83239045  0.53512720  0.44040357  1  0  -0.40299  0  3.675271  0  0  -0.483808  0  3.908358  0  0  -0.489905  0  3.912201  0  0  -0.248436  -0.478991  0  3.904661  0
C  C87  1  0.16760982  0.46486814  0.55959830  1  0  -0.402973  0  3.675242  0  0  -0.483815  0  3.908343  0  0  -0.489911  0  3.912187  0  0  -0.248388  -0.478996  0  3.904649  0
C  C88  1  0.82174935  0.61204878  0.66259127  1  0  0.478694  0  3.749689  0  0  0.470111  0  4.014603  0  0  0.493131  0  4.022625  0  0  0.138695  0.453627  0  4.010302  0
C  C89  1  0.17825005  0.38795024  0.33740253  1  0  0.478767  0  3.74945  0  0  0.470016  0  4.014595  0  0  0.493039  0  4.022615  0  0  0.138606  0.453531  0  4.010295  0
C  C90  1  0.85852283  0.61075437  0.77036468  1  0  -0.429895  0  3.697303  0  0  -0.511211  0  3.933287  0  0  -0.51618  0  3.937308  0  0  -0.255524  -0.507578  0  3.931056  0
C  C91  1  0.14147534  0.38924558  0.22963343  1  0  -0.42992  0  3.697309  0  0  -0.51121  0  3.933343  0  0  -0.51618  0  3.937363  0  0  -0.255508  -0.507577  0  3.931112  0
C  C92  1  0.40393831  0.17028020  0.54752640  1  0  -0.409741  0  3.693227  0  0  -0.490333  0  3.928749  0  0  -0.497034  0  3.930568  0  0  -0.248469  -0.485538  0  3.92642  0
C  C93  1  0.59606086  0.82971975  0.45247379  1  0  -0.409644  0  3.693259  0  0  -0.490231  0  3.928766  0  0  -0.496932  0  3.930589  0  0  -0.248414  -0.485434  0  3.926434  0
C  C94  1  0.26342383  0.05482710  0.81236910  1  0  0.474496  0  3.749212  0  0  0.466165  0  4.013325  0  0  0.48928  0  4.021676  0  0  0.135675  0.450138  0  4.007598  0
C  C95  1  0.73657714  0.94517377  0.18762441  1  0  0.474419  0  3.749192  0  0  0.465984  0  4.01346  0  0  0.489102  0  4.02181  0  0  0.135523  0.449959  0  4.00773  0
C  C96  1  0.19549059  0.00017014  0.94769731  1  0  -0.420466  0  3.69187  0  0  -0.498383  0  3.923791  0  0  -0.5037  0  3.927917  0  0  -0.251693  -0.494431  0  3.920798  0
C  C97  1  0.80450648  0.99983442  0.05230158  1  0  -0.420632  0  3.692033  0  0  -0.498493  0  3.923945  0  0  -0.503812  0  3.928066  0  0  -0.251701  -0.494542  0  3.920954  0
C  C98  1  0.84880743  0.19629445  0.68533081  1  0  0.12463  0  3.664418  0  0  0.094204  0  3.917834  0  0  0.103992  0  3.933442  0  0  0.043429  0.087958  0  3.907015  0
C  C99  1  0.15118672  0.80370551  0.31467292  1  0  0.124567  0  3.664373  0  0  0.094171  0  3.917813  0  0  0.103961  0  3.933415  0  0  0.043385  0.087924  0  3.906996  0
C  C100  1  0.96454316  0.10086424  0.66660076  1  0  -0.163368  0  3.685161  0  0  -0.181014  0  3.930909  0  0  -0.18927  0  3.95057  0  0  -0.080683  -0.17549  0  3.917436  0
C  C101  1  0.03545333  0.89913849  0.33340295  1  0  -0.1633  0  3.685069  0  0  -0.180987  0  3.930839  0  0  -0.189236  0  3.950497  0  0  -0.080691  -0.175467  0  3.91737  0
C  C102  1  0.95631456  0.98499692  0.66042423  1  0  0.153871  0  3.724647  0  0  0.167111  0  3.965544  0  0  0.172965  0  3.988597  0  0  0.009251  0.163603  0  3.949445  0
C  C103  1  0.04368416  0.01500489  0.33957808  1  0  0.153868  0  3.724663  0  0  0.167171  0  3.965415  0  0  0.173028  0  3.988462  0  0  0.009269  0.163661  0  3.949319  0
C  C104  1  0.82898473  0.97309606  0.67077676  1  0  -0.188096  0  3.721586  0  0  -0.202638  0  3.967331  0  0  -0.212458  0  3.990162  0  0  -0.089977  -0.196058  0  3.951925  0
C  C105  1  0.17101666  0.02690297  0.32922284  1  0  -0.188122  0  3.721564  0  0  -0.20269  0  3.967322  0  0  -0.212508  0  3.990146  0  0  -0.089992  -0.19611  0  3.951913  0
C  C106  1  0.71721324  0.07204566  0.69129516  1  0  0.106886  0  3.694637  0  0  0.076027  0  3.950063  0  0  0.085392  0  3.966589  0  0  0.035759  0.069117  0  3.939979  0
C  C107  1  0.28278859  0.92795152  0.30870397  1  0  0.106945  0  3.694601  0  0  0.076111  0  3.949991  0  0  0.085458  0  3.96655  0  0  0.035812  0.069206  0  3.939903  0
C  C108  1  0.07656060  0.87734882  0.64562083  1  0  -0.158854  0  3.693904  0  0  -0.202873  0  3.947466  0  0  -0.204653  0  3.958699  0  0  -0.156276  -0.201664  0  3.939901  0
C  C109  1  0.92344091  0.12265391  0.35438015  1  0  -0.158996  0  3.694079  0  0  -0.202894  0  3.947462  0  0  -0.20467  0  3.958696  0  0  -0.156293  -0.201679  0  3.939893  0
C  C110  1  0.08064290  0.79986161  0.77069544  1  0  -0.154077  0  3.696823  0  0  -0.199186  0  3.94941  0  0  -0.201024  0  3.960216  0  0  -0.154524  -0.197344  0  3.942662  0
C  C111  1  0.91935938  0.20014204  0.22930499  1  0  -0.15407  0  3.696798  0  0  -0.199241  0  3.949382  0  0  -0.20109  0  3.960201  0  0  -0.154563  -0.197397  0  3.942635  0
C  C112  1  0.29051144  0.47839090  0.84877274  1  0  0.100671  0  3.702223  0  0  0.071203  0  3.958857  0  0  0.081874  0  3.973633  0  0  0.032863  0.062744  0  3.951138  0
C  C113  1  0.70949175  0.52160904  0.15122100  1  0  0.100717  0  3.702243  0  0  0.071251  0  3.95886  0  0  0.081919  0  3.973637  0  0  0.032879  0.062792  0  3.951148  0
C  C114  1  0.18445440  0.58271787  0.86020739  1  0  -0.193572  0  3.75573  0  0  -0.205877  0  3.996669  0  0  -0.216211  0  4.019139  0  0  -0.093703  -0.199222  0  3.983224  0
C  C115  1  0.81554899  0.41728116  0.13979392  1  0  -0.19357  0  3.755779  0  0  -0.205881  0  3.996708  0  0  -0.216215  0  4.019179  0  0  -0.093671  -0.199233  0  3.983262  0
C  C116  1  0.18859293  0.68202043  0.76071659  1  0  0.145339  0  3.718258  0  0  0.16154  0  3.955808  0  0  0.169138  0  3.976892  0  0  0.006971  0.155003  0  3.942936  0
C  C117  1  0.81141358  0.31798230  0.23928332  1  0  0.145349  0  3.718422  0  0  0.161573  0  3.955966  0  0  0.169172  0  3.977052  0  0  0.006988  0.155034  0  3.943097  0
C  C118  1  0.30112282  0.66557052  0.65172975  1  0  -0.164592  0  3.701131  0  0  -0.182806  0  3.953228  0  0  -0.189991  0  3.968539  0  0  -0.083331  -0.178814  0  3.945522  0
C  C119  1  0.69888569  0.33443221  0.34826940  1  0  -0.164547  0  3.701197  0  0  -0.182874  0  3.953277  0  0  -0.190059  0  3.968582  0  0  -0.083353  -0.178873  0  3.945564  0
C  C120  1  0.40282444  0.55863357  0.64634855  1  0  0.135469  0  3.6386  0  0  0.100253  0  3.902444  0  0  0.112438  0  3.912735  0  0  0.048283  0.090752  0  3.898063  0
C  C121  1  0.59718150  0.44136732  0.35365454  1  0  0.135501  0  3.638431  0  0  0.100295  0  3.90225  0  0  0.112482  0  3.912542  0  0  0.048276  0.090797  0  3.897866  0
N  N122  1  0.61186043  0.37412414  0.83080353  1  0  -0.314617  0  3.463793  0  0  -0.278684  0  3.761978  0  0  -0.304615  0  3.778948  0  0  -0.387627  -0.262257  0  3.748893  0
N  N123  1  0.38814263  0.62587212  0.16919457  1  0  -0.314605  0  3.463917  0  0  -0.278686  0  3.762109  0  0  -0.304622  0  3.779087  0  0  -0.387624  -0.262258  0  3.749022  0
N  N124  1  0.46283096  0.22269544  0.87017611  1  0  -0.319879  0  3.469121  0  0  -0.282654  0  3.767493  0  0  -0.307335  0  3.783086  0  0  -0.3929  -0.266612  0  3.754657  0
N  N125  1  0.53717188  0.77730175  0.12982345  1  0  -0.319897  0  3.46914  0  0  -0.282669  0  3.767513  0  0  -0.307345  0  3.783103  0  0  -0.392945  -0.26663  0  3.754679  0
N  N126  1  0.72462884  0.18325870  0.69958220  1  0  -0.226182  0  3.334782  0  0  -0.178773  0  3.608144  0  0  -0.198701  0  3.627843  0  0  -0.337741  -0.166019  0  3.593627  0
N  N127  1  0.27536877  0.81673941  0.30041745  1  0  -0.226176  0  3.334766  0  0  -0.178817  0  3.608194  0  0  -0.198742  0  3.627889  0  0  -0.337755  -0.166064  0  3.593675  0
N  N128  1  0.40157519  0.46521816  0.74339952  1  0  -0.224733  0  3.32108  0  0  -0.174707  0  3.592463  0  0  -0.193985  0  3.610496  0  0  -0.33704  -0.163485  0  3.580845  0
N  N129  1  0.59842865  0.53477903  0.25659802  1  0  -0.224839  0  3.320957  0  0  -0.174789  0  3.592321  0  0  -0.194078  0  3.610362  0  0  -0.337047  -0.163571  0  3.580706  0
O  O130  1  0.67357570  0.41630318  0.58038758  1  0  -0.459695  0  2.230774  0  0  -0.41667  0  2.495042  0  0  -0.445683  0  2.490732  0  0  -0.277303  -0.396579  0  2.495891  0
O  O131  1  0.32642257  0.58369217  0.41961506  1  0  -0.459688  0  2.230829  0  0  -0.416668  0  2.495122  0  0  -0.44567  0  2.490803  0  0  -0.277335  -0.396575  0  2.49597  0
O  O132  1  0.50113778  0.26862783  0.62344776  1  0  -0.456589  0  2.195953  0  0  -0.415579  0  2.459081  0  0  -0.443505  0  2.454088  0  0  -0.279265  -0.396224  0  2.460078  0
O  O133  1  0.49886339  0.73137213  0.37655330  1  0  -0.456595  0  2.195912  0  0  -0.41556  0  2.459011  0  0  -0.443484  0  2.454011  0  0  -0.27925  -0.396208  0  2.460011  0
O  O134  1  0.85562895  0.69201280  0.56834840  1  0  -0.513941  0  1.893356  0  0  -0.468549  0  2.09773  0  0  -0.488107  0  2.095735  0  0  -0.289717  -0.455848  0  2.099648  0
O  O135  1  0.14437009  0.30798346  0.43165286  1  0  -0.513991  0  1.893191  0  0  -0.46852  0  2.097615  0  0  -0.488082  0  2.095623  0  0  -0.289673  -0.455817  0  2.099533  0
O  O136  1  0.23739728  0.02582839  0.73520779  1  0  -0.513053  0  1.923327  0  0  -0.466238  0  2.127304  0  0  -0.486671  0  2.125668  0  0  -0.286548  -0.452324  0  2.128465  0
O  O137  1  0.76260166  0.97417249  0.26479305  1  0  -0.513054  0  1.923099  0  0  -0.466202  0  2.127124  0  0  -0.486636  0  2.125482  0  0  -0.286524  -0.452292  0  2.128283  0
