# generated using pymatgen
data_CdH16C6(N3O4)2
_symmetry_space_group_name_H-M   'P 1'
_cell_length_a   7.46034080
_cell_length_b   7.46034158
_cell_length_c   12.92136790
_cell_angle_alpha   100.65484352
_cell_angle_beta   100.65482862
_cell_angle_gamma   108.51196566
_symmetry_Int_Tables_number   1
_chemical_formula_structural   CdH16C6(N3O4)2
_chemical_formula_sum   'Cd2 H32 C12 N12 O16'
_cell_volume   646.89052939
_cell_formula_units_Z   2
loop_
 _symmetry_equiv_pos_site_id
 _symmetry_equiv_pos_as_xyz
  1  'x, y, z'
loop_
 _atom_site_type_symbol
 _atom_site_label
 _atom_site_symmetry_multiplicity
 _atom_site_fract_x
 _atom_site_fract_y
 _atom_site_fract_z
 _atom_site_occupancy
 _atom_site_hle17_bader_spin_density
 _atom_site_hle17_ddec_charge
 _atom_site_hle17_ddec_spin_density
 _atom_site_hle17_ddec_sum_bond_order
 _atom_site_hle17_magmom
 _atom_site_hse06_10hf_bader_spin_density
 _atom_site_hse06_10hf_ddec_charge
 _atom_site_hse06_10hf_ddec_spin_density
 _atom_site_hse06_10hf_ddec_sum_bond_order
 _atom_site_hse06_10hf_magmom
 _atom_site_hse06_bader_spin_density
 _atom_site_hse06_ddec_charge
 _atom_site_hse06_ddec_spin_density
 _atom_site_hse06_ddec_sum_bond_order
 _atom_site_hse06_magmom
 _atom_site_pbe_bader_spin_density
 _atom_site_pbe_cm5_charge
 _atom_site_pbe_ddec_charge
 _atom_site_pbe_ddec_spin_density
 _atom_site_pbe_ddec_sum_bond_order
 _atom_site_pbe_magmom
Cd  Cd0  1  0.99999846  0.49999886  0.50000037  1  0  1.169278  0  1.570706  0  0  0.980414  0  1.992827  0  0  1.035575  0  1.941794  0  0  0.784816  0.940826  0  2.027995  0
Cd  Cd1  1  0.49999541  0.99999914  0.99999910  1  0  1.16924  0  1.570758  0  0  0.980413  0  1.992833  0  0  1.035576  0  1.941797  0  0  0.784823  0.940823  0  2.027995  0
H  H2  1  0.19880981  0.32313262  0.35521476  1  0  0.389484  0  0.919389  0  0  0.347901  0  1.006696  0  0  0.359468  0  0.990517  0  0  0.282054  0.339771  0  1.018039  0
H  H3  1  0.67687321  0.80119291  0.14478408  1  0  0.38953  0  0.919331  0  0  0.34793  0  1.006661  0  0  0.359496  0  0.990483  0  0  0.282042  0.339799  0  1.018005  0
H  H4  1  0.80119451  0.67687294  0.64478476  1  0  0.389524  0  0.919335  0  0  0.347918  0  1.006686  0  0  0.359484  0  0.990507  0  0  0.282057  0.339786  0  1.018031  0
H  H5  1  0.32313419  0.19880978  0.85521237  1  0  0.389564  0  0.919343  0  0  0.347986  0  1.006592  0  0  0.359553  0  0.990412  0  0  0.282103  0.339856  0  1.017934  0
H  H6  1  0.41442382  0.45022992  0.55663914  1  0  0.072483  0  0.938718  0  0  0.085083  0  1.007321  0  0  0.085475  0  1.006814  0  0  0.120372  0.084629  0  1.007958  0
H  H7  1  0.54976786  0.58557988  0.94336232  1  0  0.072442  0  0.938724  0  0  0.085037  0  1.007335  0  0  0.085428  0  1.006827  0  0  0.120384  0.084581  0  1.007968  0
H  H8  1  0.58557972  0.54976974  0.44336274  1  0  0.072484  0  0.93867  0  0  0.085072  0  1.007289  0  0  0.085464  0  1.006777  0  0  0.120378  0.084616  0  1.007928  0
H  H9  1  0.45023129  0.41442271  0.05663785  1  0  0.072432  0  0.93867  0  0  0.085048  0  1.007304  0  0  0.085439  0  1.006795  0  0  0.120362  0.084594  0  1.007938  0
H  H10  1  0.46427633  0.70910032  0.58923957  1  0  0.081932  0  0.96749  0  0  0.087371  0  1.043533  0  0  0.089052  0  1.041674  0  0  0.116294  0.086076  0  1.04496  0
H  H11  1  0.29089461  0.53572220  0.91075872  1  0  0.081892  0  0.967509  0  0  0.087328  0  1.04354  0  0  0.08901  0  1.041679  0  0  0.116258  0.086034  0  1.044965  0
H  H12  1  0.53572021  0.29089497  0.41075720  1  0  0.08193  0  0.967499  0  0  0.08735  0  1.043551  0  0  0.089033  0  1.041687  0  0  0.116258  0.086057  0  1.044977  0
H  H13  1  0.70910295  0.46427599  0.08924080  1  0  0.081896  0  0.967467  0  0  0.087354  0  1.043523  0  0  0.089038  0  1.04166  0  0  0.116272  0.086058  0  1.044949  0
H  H14  1  0.09123578  0.33970990  0.73208433  1  0  0.0857  0  0.938326  0  0  0.096131  0  1.005404  0  0  0.096951  0  1.004797  0  0  0.119941  0.095402  0  1.006041  0
H  H15  1  0.66028828  0.90876568  0.76791541  1  0  0.085682  0  0.938328  0  0  0.096143  0  1.005354  0  0  0.096963  0  1.004745  0  0  0.119928  0.095415  0  1.005995  0
H  H16  1  0.90876724  0.66028831  0.26791656  1  0  0.085686  0  0.938347  0  0  0.096154  0  1.005366  0  0  0.096974  0  1.004759  0  0  0.119927  0.095425  0  1.006006  0
H  H17  1  0.33970762  0.09123544  0.23208348  1  0  0.085717  0  0.938307  0  0  0.096156  0  1.005377  0  0  0.096976  0  1.004768  0  0  0.119938  0.095425  0  1.006014  0
H  H18  1  0.20090451  0.24027147  0.63453995  1  0  0.086889  0  0.929724  0  0  0.097098  0  0.998926  0  0  0.097787  0  0.998272  0  0  0.121256  0.096451  0  0.999626  0
H  H19  1  0.75972410  0.79909828  0.86546117  1  0  0.086932  0  0.929694  0  0  0.097133  0  0.998891  0  0  0.097825  0  0.998235  0  0  0.121265  0.096488  0  0.999592  0
H  H20  1  0.79909692  0.75972234  0.36546106  1  0  0.08693  0  0.929745  0  0  0.097136  0  0.998935  0  0  0.097826  0  0.998282  0  0  0.121267  0.096488  0  0.999636  0
H  H21  1  0.24027283  0.20090575  0.13453969  1  0  0.086899  0  0.929727  0  0  0.097121  0  0.99891  0  0  0.097812  0  0.998255  0  0  0.121248  0.096473  0  0.999609  0
H  H22  1  0.15452867  0.68735163  0.77981487  1  0  0.095697  0  0.897057  0  0  0.110295  0  0.954257  0  0  0.111066  0  0.953494  0  0  0.127347  0.109618  0  0.954963  0
H  H23  1  0.31264341  0.84546600  0.72018148  1  0  0.095701  0  0.896987  0  0  0.11029  0  0.954208  0  0  0.111062  0  0.953445  0  0  0.127329  0.109609  0  0.954914  0
H  H24  1  0.84546733  0.31264219  0.22018246  1  0  0.095672  0  0.896923  0  0  0.110269  0  0.954154  0  0  0.11104  0  0.953389  0  0  0.127322  0.109588  0  0.954864  0
H  H25  1  0.68735176  0.15452928  0.27981514  1  0  0.095687  0  0.897053  0  0  0.110294  0  0.954258  0  0  0.111064  0  0.953494  0  0  0.12735  0.109619  0  0.954963  0
H  H26  1  0.54894438  0.30645601  0.68360881  1  0  0.083336  0  0.952755  0  0  0.086966  0  1.029545  0  0  0.08939  0  1.026405  0  0  0.114452  0.085077  0  1.031974  0
H  H27  1  0.69354574  0.45105988  0.81639468  1  0  0.083294  0  0.952861  0  0  0.086943  0  1.029612  0  0  0.089367  0  1.026471  0  0  0.11443  0.085052  0  1.032042  0
H  H28  1  0.45106021  0.69354659  0.31639350  1  0  0.083328  0  0.952811  0  0  0.086962  0  1.029588  0  0  0.089384  0  1.026451  0  0  0.114442  0.085073  0  1.032018  0
H  H29  1  0.30645665  0.54894417  0.18360679  1  0  0.083287  0  0.952793  0  0  0.086921  0  1.029577  0  0  0.089345  0  1.026438  0  0  0.114428  0.085033  0  1.032006  0
H  H30  1  0.11614328  0.16592684  0.42209368  1  0  0.417678  0  0.882967  0  0  0.38174  0  0.955835  0  0  0.393505  0  0.938396  0  0  0.287936  0.373339  0  0.968269  0
H  H31  1  0.83407797  0.88386045  0.07790515  1  0  0.417659  0  0.882998  0  0  0.38171  0  0.955868  0  0  0.393476  0  0.938427  0  0  0.287908  0.373308  0  0.968302  0
H  H32  1  0.88385967  0.83407871  0.57790569  1  0  0.417635  0  0.883033  0  0  0.381687  0  0.955901  0  0  0.393451  0  0.938464  0  0  0.287908  0.373285  0  0.968336  0
H  H33  1  0.16592722  0.11614369  0.92209122  1  0  0.41766  0  0.882995  0  0  0.381745  0  0.955827  0  0  0.39351  0  0.938389  0  0  0.287933  0.373344  0  0.968261  0
C  C34  1  0.43747144  0.57952665  0.62120550  1  0  0.054828  0  3.632125  0  0  -0.016966  0  3.890217  0  0  -0.009471  0  3.900608  0  0  0.008384  -0.02201  0  3.883167  0
C  C35  1  0.42047177  0.56253097  0.87879513  1  0  0.05496  0  3.632046  0  0  -0.016824  0  3.890112  0  0  -0.009322  0  3.900492  0  0  0.008397  -0.021876  0  3.883076  0
C  C36  1  0.56252886  0.42047155  0.37879432  1  0  0.054785  0  3.632159  0  0  -0.016977  0  3.890206  0  0  -0.009475  0  3.900586  0  0  0.008357  -0.022022  0  3.883157  0
C  C37  1  0.57952684  0.43747015  0.12120559  1  0  0.055065  0  3.631946  0  0  -0.016866  0  3.890216  0  0  -0.00937  0  3.900604  0  0  0.008408  -0.021907  0  3.883149  0
C  C38  1  0.22214792  0.36581955  0.70130018  1  0  0.066858  0  3.592229  0  0  -0.006976  0  3.853903  0  0  0.000973  0  3.863839  0  0  0.013287  -0.012353  0  3.847144  0
C  C39  1  0.63417629  0.77785370  0.79870009  1  0  0.066751  0  3.592271  0  0  -0.007077  0  3.853859  0  0  0.00087  0  3.863795  0  0  0.013277  -0.012454  0  3.84709  0
C  C40  1  0.77785236  0.63417863  0.29870119  1  0  0.066769  0  3.592337  0  0  -0.007079  0  3.853887  0  0  0.000868  0  3.863825  0  0  0.013276  -0.012447  0  3.847107  0
C  C41  1  0.36581823  0.22214740  0.20129942  1  0  0.066836  0  3.592175  0  0  -0.007003  0  3.853834  0  0  0.000943  0  3.863772  0  0  0.013308  -0.012382  0  3.847079  0
C  C42  1  0.28642530  0.71356772  0.74999991  1  0  0.08185  0  3.5767  0  0  0.012048  0  3.834196  0  0  0.020378  0  3.844896  0  0  0.018782  0.006354  0  3.827049  0
C  C43  1  0.71356603  0.28642456  0.25000061  1  0  0.08194  0  3.576578  0  0  0.012099  0  3.834124  0  0  0.020431  0  3.84482  0  0  0.01881  0.006404  0  3.826982  0
C  C44  1  0.56861874  0.43138523  0.75000186  1  0  0.072798  0  3.592781  0  0  0.001401  0  3.856395  0  0  0.009025  0  3.863705  0  0  0.011894  -0.003557  0  3.851154  0
C  C45  1  0.43138366  0.56861882  0.24999961  1  0  0.072878  0  3.592743  0  0  0.001468  0  3.856376  0  0  0.009099  0  3.863669  0  0  0.011884  -0.003492  0  3.85114  0
N  N46  1  0.25550671  0.54338733  0.65896233  1  0  -0.298313  0  3.187576  0  0  -0.203763  0  3.430427  0  0  -0.224591  0  3.451316  0  0  -0.342221  -0.189218  0  3.415666  0
N  N47  1  0.45660410  0.74449066  0.84103699  1  0  -0.298271  0  3.187705  0  0  -0.203681  0  3.430486  0  0  -0.22451  0  3.451375  0  0  -0.342169  -0.189133  0  3.415721  0
N  N48  1  0.74449010  0.45660500  0.34103724  1  0  -0.298268  0  3.187683  0  0  -0.203655  0  3.43044  0  0  -0.224486  0  3.451331  0  0  -0.342178  -0.18911  0  3.415679  0
N  N49  1  0.54338854  0.25550898  0.15896137  1  0  -0.298347  0  3.187592  0  0  -0.203753  0  3.430447  0  0  -0.224581  0  3.451335  0  0  -0.342222  -0.18921  0  3.415684  0
N  N50  1  0.60737731  0.60934282  0.70955769  1  0  -0.257375  0  3.170197  0  0  -0.171518  0  3.400034  0  0  -0.187752  0  3.416667  0  0  -0.330789  -0.160121  0  3.388283  0
N  N51  1  0.39065744  0.39262112  0.79044270  1  0  -0.257511  0  3.170253  0  0  -0.171667  0  3.400085  0  0  -0.187905  0  3.416717  0  0  -0.330759  -0.160273  0  3.388332  0
N  N52  1  0.39261941  0.39065683  0.29044190  1  0  -0.257494  0  3.170287  0  0  -0.171653  0  3.40011  0  0  -0.187893  0  3.416753  0  0  -0.330744  -0.160258  0  3.388359  0
N  N53  1  0.60934475  0.60737856  0.20955749  1  0  -0.257555  0  3.170291  0  0  -0.171613  0  3.400083  0  0  -0.187848  0  3.416713  0  0  -0.33075  -0.160218  0  3.388332  0
N  N54  1  0.74213721  0.11376396  0.57002607  1  0  0.697047  0  4.155524  0  0  0.718625  0  4.463641  0  0  0.747524  0  4.47009  0  0  0.100787  0.699237  0  4.45873  0
N  N55  1  0.88623863  0.25786210  0.92997694  1  0  0.696974  0  4.155456  0  0  0.71883  0  4.463237  0  0  0.747728  0  4.469683  0  0  0.100817  0.699439  0  4.458331  0
N  N56  1  0.25786327  0.88623860  0.42997657  1  0  0.696976  0  4.155498  0  0  0.718832  0  4.463289  0  0  0.747725  0  4.469747  0  0  0.100814  0.699442  0  4.458386  0
N  N57  1  0.11376270  0.74213902  0.07002486  1  0  0.696993  0  4.155573  0  0  0.7188  0  4.463437  0  0  0.747694  0  4.469887  0  0  0.100804  0.699415  0  4.458515  0
O  O58  1  0.09576927  0.27552603  0.39478432  1  0  -0.834256  0  1.906283  0  0  -0.768489  0  2.129105  0  0  -0.790766  0  2.092068  0  0  -0.591439  -0.752645  0  2.154847  0
O  O59  1  0.72447604  0.90423052  0.10521301  1  0  -0.834266  0  1.906224  0  0  -0.76852  0  2.129151  0  0  -0.790795  0  2.092113  0  0  -0.591403  -0.752672  0  2.154882  0
O  O60  1  0.90423043  0.72447805  0.60521375  1  0  -0.834253  0  1.906267  0  0  -0.768486  0  2.129166  0  0  -0.790762  0  2.092131  0  0  -0.59142  -0.752641  0  2.154905  0
O  O61  1  0.27552296  0.09576775  0.89478126  1  0  -0.83433  0  1.9063  0  0  -0.768592  0  2.129047  0  0  -0.790865  0  2.092005  0  0  -0.591497  -0.75275  0  2.15479  0
O  O62  1  0.76293125  0.29045157  0.56667662  1  0  -0.507862  0  1.833918  0  0  -0.471308  0  2.074912  0  0  -0.492875  0  2.067343  0  0  -0.202641  -0.456156  0  2.079784  0
O  O63  1  0.70955041  0.23706405  0.93332358  1  0  -0.507784  0  1.833879  0  0  -0.47134  0  2.074806  0  0  -0.492901  0  2.067226  0  0  -0.20261  -0.456185  0  2.079672  0
O  O64  1  0.23706327  0.70954953  0.43332289  1  0  -0.507808  0  1.833898  0  0  -0.471375  0  2.074856  0  0  -0.492911  0  2.067248  0  0  -0.202625  -0.456219  0  2.079724  0
O  O65  1  0.29045073  0.76293270  0.06667617  1  0  -0.5078  0  1.83388  0  0  -0.471324  0  2.074808  0  0  -0.492869  0  2.067217  0  0  -0.202625  -0.456173  0  2.079678  0
O  O66  1  0.84074149  0.03002324  0.52411141  1  0  -0.466204  0  1.807866  0  0  -0.445696  0  2.02846  0  0  -0.461417  0  2.020763  0  0  -0.177727  -0.434713  0  2.033528  0
O  O67  1  0.96998606  0.15927100  0.97589532  1  0  -0.466152  0  1.807872  0  0  -0.445766  0  2.028411  0  0  -0.461482  0  2.020702  0  0  -0.177743  -0.434786  0  2.033479  0
O  O68  1  0.15927010  0.96998372  0.47589603  1  0  -0.466151  0  1.807862  0  0  -0.445762  0  2.028426  0  0  -0.461467  0  2.020699  0  0  -0.177732  -0.43478  0  2.033493  0
O  O69  1  0.03002354  0.84074181  0.02411176  1  0  -0.466173  0  1.807994  0  0  -0.445742  0  2.028521  0  0  -0.461461  0  2.020816  0  0  -0.177712  -0.43476  0  2.033586  0
O  O70  1  0.62529281  0.03023818  0.61957390  1  0  -0.429813  0  1.774401  0  0  -0.423339  0  1.992502  0  0  -0.436741  0  1.986631  0  0  -0.175043  -0.414102  0  1.996549  0
O  O71  1  0.96975940  0.37470587  0.88042463  1  0  -0.429844  0  1.774354  0  0  -0.423471  0  1.992339  0  0  -0.436872  0  1.986464  0  0  -0.175099  -0.414236  0  1.996387  0
O  O72  1  0.37470476  0.96976003  0.38042484  1  0  -0.429826  0  1.774374  0  0  -0.423463  0  1.992384  0  0  -0.436868  0  1.986513  0  0  -0.175081  -0.414226  0  1.996434  0
O  O73  1  0.03023871  0.62529381  0.11957357  1  0  -0.429833  0  1.774368  0  0  -0.423457  0  1.99238  0  0  -0.436871  0  1.986523  0  0  -0.175085  -0.414223  0  1.996428  0
