# generated using pymatgen
data_FeH10C8S2(N2O3)2
_symmetry_space_group_name_H-M   'P 1'
_cell_length_a   6.85677282
_cell_length_b   6.98479723
_cell_length_c   7.30814987
_cell_angle_alpha   90.04825241
_cell_angle_beta   103.44732726
_cell_angle_gamma   114.69290249
_symmetry_Int_Tables_number   1
_chemical_formula_structural   FeH10C8S2(N2O3)2
_chemical_formula_sum   'Fe1 H10 C8 S2 N4 O6'
_cell_volume   307.37946266
_cell_formula_units_Z   1
loop_
 _symmetry_equiv_pos_site_id
 _symmetry_equiv_pos_as_xyz
  1  'x, y, z'
loop_
 _atom_site_type_symbol
 _atom_site_label
 _atom_site_symmetry_multiplicity
 _atom_site_fract_x
 _atom_site_fract_y
 _atom_site_fract_z
 _atom_site_occupancy
 _atom_site_pbe_cm5_charge
 _atom_site_pbe_ddec_charge
 _atom_site_pbe_ddec_spin_density
 _atom_site_pbe_ddec_sum_bond_order
 _atom_site_pbe_magmom
Fe  Fe0  1  0.99999798  0.99999215  0.99999265  1  0.56114  0.867365  -3.817573  2.50477  -3.559
H  H1  1  0.91267878  0.03335373  0.59087680  1  0.305287  0.285538  0.000439  1.01276  0.0
H  H2  1  0.08732490  0.96665419  0.40912684  1  0.305284  0.285583  0.000439  1.012723  0.0
H  H3  1  0.55980714  0.38315255  0.59854747  1  0.308315  0.296644  -0.000207  0.980863  0.0
H  H4  1  0.44020023  0.61685708  0.40144466  1  0.308284  0.296655  -0.000207  0.980806  0.0
H  H5  1  0.83539000  0.39533230  0.13524103  1  0.104231  0.166454  0.000189  1.039131  0.0
H  H6  1  0.16461748  0.60467410  0.86475931  1  0.104219  0.166472  0.000189  1.039164  0.0
H  H7  1  0.69506431  0.65601249  0.12296500  1  0.294594  0.385876  -0.000784  0.953118  -0.003
H  H8  1  0.30493076  0.34398262  0.87704763  1  0.294557  0.385818  -0.000784  0.953198  -0.003
H  H9  1  0.63724508  0.63078203  0.89497329  1  0.297526  0.384838  -0.000719  0.953056  -0.003
H  H10  1  0.36275280  0.36921947  0.10503453  1  0.297535  0.384849  -0.000719  0.953014  -0.003
C  C11  1  0.68191364  0.40391581  0.35937101  1  0.212419  0.525387  -0.00116  4.1352  -0.002
C  C12  1  0.31809815  0.59609698  0.64062620  1  0.212471  0.525392  -0.00116  4.135572  -0.002
C  C13  1  0.88928157  0.19873754  0.35043326  1  0.218778  0.553919  -0.001644  4.10707  -0.003
C  C14  1  0.11070894  0.80125776  0.64955377  1  0.218796  0.554021  -0.001643  4.107062  -0.003
C  C15  1  0.80950668  0.34220426  0.27070551  1  -0.145819  -0.482722  -0.002381  3.945063  -0.004
C  C16  1  0.19048847  0.65778779  0.72929616  1  -0.145949  -0.48299  -0.002384  3.944878  -0.004
C  C17  1  0.73687661  0.20161239  0.61905430  1  0.244766  0.409479  -0.000734  4.091221  0.001
C  C18  1  0.26311553  0.79837966  0.38094399  1  0.244845  0.409592  -0.000735  4.091514  0.001
S  S19  1  0.70138515  0.12384653  0.83194866  1  -0.150251  -0.371461  -0.024669  2.371834  -0.038
S  S20  1  0.29860109  0.87614223  0.16805792  1  -0.150323  -0.371584  -0.024672  2.372143  -0.038
N  N21  1  0.85020076  0.13709953  0.52409392  1  -0.384894  -0.386924  -0.002788  3.563267  -0.005
N  N22  1  0.14980531  0.86290370  0.47590608  1  -0.384896  -0.386978  -0.002788  3.56343  -0.005
N  N23  1  0.65071639  0.33123069  0.53152718  1  -0.380612  -0.374491  -0.00307  3.556556  -0.005
N  N24  1  0.34928287  0.66877408  0.46847001  1  -0.380638  -0.374483  -0.00307  3.556606  -0.005
O  O25  1  0.58799744  0.52459689  0.29162386  1  -0.309247  -0.54527  -0.001799  2.228063  -0.003
O  O26  1  0.41200271  0.47542692  0.70836688  1  -0.309246  -0.545192  -0.001798  2.228464  -0.003
O  O27  1  0.99753647  0.11881559  0.28036798  1  -0.311221  -0.526964  -0.017312  2.332251  -0.027
O  O28  1  0.00247972  0.88117672  0.71962722  1  -0.311209  -0.526908  -0.017311  2.332339  -0.027
O  O29  1  0.75490489  0.71021723  0.01091367  1  -0.584389  -0.75398  -0.034574  2.269887  -0.043
O  O30  1  0.24508875  0.28977481  0.98908768  1  -0.584355  -0.753936  -0.034571  2.269973  -0.043
