# generated using pymatgen
data_CuH9C5NO5
_symmetry_space_group_name_H-M   'P 1'
_cell_length_a   7.14749830
_cell_length_b   10.09125936
_cell_length_c   10.85714003
_cell_angle_alpha   90.02775123
_cell_angle_beta   89.99329151
_cell_angle_gamma   90.01057666
_symmetry_Int_Tables_number   1
_chemical_formula_structural   CuH9C5NO5
_chemical_formula_sum   'Cu4 H36 C20 N4 O20'
_cell_volume   783.09564143
_cell_formula_units_Z   4
loop_
 _symmetry_equiv_pos_site_id
 _symmetry_equiv_pos_as_xyz
  1  'x, y, z'
loop_
 _atom_site_type_symbol
 _atom_site_label
 _atom_site_symmetry_multiplicity
 _atom_site_fract_x
 _atom_site_fract_y
 _atom_site_fract_z
 _atom_site_occupancy
 _atom_site_hle17_ddec_charge
 _atom_site_hle17_ddec_spin_density
 _atom_site_hle17_ddec_sum_bond_order
 _atom_site_hle17_magmom
 _atom_site_hse06_10hf_ddec_charge
 _atom_site_hse06_10hf_ddec_spin_density
 _atom_site_hse06_10hf_ddec_sum_bond_order
 _atom_site_hse06_10hf_magmom
 _atom_site_hse06_ddec_charge
 _atom_site_hse06_ddec_spin_density
 _atom_site_hse06_ddec_sum_bond_order
 _atom_site_hse06_magmom
 _atom_site_pbe_cm5_charge
 _atom_site_pbe_ddec_charge
 _atom_site_pbe_ddec_spin_density
 _atom_site_pbe_ddec_sum_bond_order
 _atom_site_pbe_magmom
Cu  Cu0  1  0.92911704  0.05153668  0.49800468  1  0.955985  -0.699278  1.647328  -0.511  0.942928  -0.793591  2.038435  -0.632  1.046059  -0.859169  1.948095  -0.714  0.72041  0.878194  -0.747224  2.099276  -0.58
Cu  Cu1  1  0.57031586  0.94847191  0.99778968  1  0.956534  0.753194  1.646991  0.511  0.943751  0.839076  2.037709  0.632  1.04645  0.920718  1.947856  0.714  0.720388  0.878375  0.779027  2.099081  0.579
Cu  Cu2  1  0.42908017  0.44842185  0.50204267  1  0.955845  -0.699268  1.647183  -0.511  0.94269  -0.793533  2.038338  -0.632  1.045792  -0.859075  1.947998  -0.714  0.720269  0.877865  -0.747387  2.099264  -0.58
Cu  Cu3  1  0.07068944  0.55150822  0.00215527  1  0.955978  -0.699501  1.6468  -0.511  0.943299  -0.793618  2.037218  -0.632  1.046125  -0.859193  1.947216  -0.714  0.720335  0.878078  -0.746101  2.098421  -0.579
H  H4  1  0.79280738  0.31185143  0.72781422  1  0.090254  -0.001908  0.89798  -0.002  0.103392  -0.001421  0.94917  -0.002  0.104892  -0.001051  0.948663  -0.001  0.121697  0.102155  -0.001652  0.949789  -0.002
H  H5  1  0.70760670  0.68869543  0.22757178  1  0.089998  0.002036  0.897854  0.002  0.10368  0.001467  0.948788  0.002  0.105192  0.001113  0.948287  0.001  0.121679  0.102421  0.001655  0.949418  0.002
H  H6  1  0.29292665  0.18807939  0.27224089  1  0.090047  -0.002209  0.898403  -0.003  0.103389  -0.001601  0.949434  -0.002  0.104902  -0.001146  0.948927  -0.001  0.121577  0.102122  -0.001916  0.950075  -0.002
H  H7  1  0.20739240  0.81154837  0.77244369  1  0.089869  -0.002238  0.898677  -0.003  0.103348  -0.001587  0.949557  -0.002  0.104855  -0.001162  0.949069  -0.001  0.121464  0.102073  -0.001859  0.950209  -0.002
H  H8  1  0.63571128  0.93764986  0.48697891  1  0.430166  5.2e-05  0.871418  0.0  0.404294  -0.000289  0.927604  0.0  0.416348  -0.000115  0.909815  0.0  0.296692  0.395823  -0.000473  0.940131  -0.001
H  H9  1  0.86394744  0.06237082  0.98667057  1  0.430501  0.000289  0.870843  0.0  0.40447  0.000472  0.927383  0.0  0.416534  0.000258  0.90956  0.0  0.296649  0.395966  0.000613  0.939955  0.001
H  H10  1  0.13574524  0.56225458  0.51305862  1  0.430173  3.6e-05  0.871482  0.0  0.404117  -0.000322  0.928026  0.0  0.416188  -0.000138  0.910205  0.0  0.296387  0.395646  -0.000515  0.940553  -0.001
H  H11  1  0.36432743  0.43779025  0.01320224  1  0.429879  -0.000256  0.871712  0.0  0.403818  -0.000469  0.928285  0.0  0.415905  -0.000245  0.910429  0.0  0.296301  0.395307  -0.000622  0.940861  -0.001
H  H12  1  0.74815628  0.79551743  0.51389622  1  0.449791  -0.00132  0.848738  -0.004  0.42371  -0.001574  0.90364  -0.004  0.437331  -0.001336  0.88414  -0.003  0.294586  0.414164  -0.001728  0.917235  -0.004
H  H13  1  0.75166747  0.20456829  0.01376931  1  0.449773  0.00152  0.848906  0.004  0.423559  0.00168  0.903936  0.004  0.437135  0.001452  0.884522  0.003  0.294449  0.413966  0.001741  0.917603  0.004
H  H14  1  0.24825586  0.70438784  0.48618419  1  0.449472  -0.001319  0.849183  -0.004  0.423489  -0.001577  0.90394  -0.004  0.437117  -0.001338  0.884435  -0.003  0.294524  0.413919  -0.001733  0.917567  -0.004
H  H15  1  0.25197915  0.29558702  0.98610389  1  0.449824  -0.001399  0.848777  -0.004  0.423594  -0.001587  0.903862  -0.004  0.43724  -0.001355  0.884333  -0.003  0.294542  0.413966  -0.001662  0.917566  -0.004
H  H16  1  0.81391244  0.05063390  0.72491215  1  0.319443  -0.000417  0.867737  0.0  0.312108  -0.00117  0.922197  -0.001  0.318504  -0.000732  0.919602  0.0  0.307838  0.307272  -0.001506  0.92489  -0.001
H  H17  1  0.68535488  0.94989059  0.22479559  1  0.318838  0.000448  0.868449  0.0  0.311487  0.001103  0.923108  0.001  0.31788  0.000743  0.920514  0.0  0.307489  0.306628  0.001345  0.925779  0.001
H  H18  1  0.31424064  0.44937202  0.27510449  1  0.31981  -0.000208  0.867366  0.0  0.312327  -0.000936  0.9219  -0.001  0.318711  -0.000576  0.919318  0.0  0.307929  0.307501  -0.001197  0.924581  -0.001
H  H19  1  0.18558824  0.55028590  0.77515894  1  0.319028  -0.000307  0.868234  0.0  0.311434  -0.001047  0.92322  -0.001  0.31783  -0.000633  0.920622  0.0  0.307577  0.306584  -0.001373  0.925889  -0.001
H  H20  1  0.67741012  0.13517112  0.62852619  1  0.31467  0.001124  0.894713  0.002  0.30491  2.5e-05  0.951968  0.001  0.313962  0.000255  0.945611  0.001  0.299664  0.298526  -0.000195  0.956731  0.001
H  H21  1  0.82227027  0.86554801  0.12841166  1  0.314323  -0.001483  0.895013  -0.002  0.304647  -0.000573  0.952236  -0.001  0.313706  -0.000618  0.945841  -0.001  0.299542  0.298235  -0.000518  0.957026  -0.001
H  H22  1  0.17749072  0.36481792  0.37138219  1  0.31492  0.001073  0.894444  0.002  0.305045  -3.4e-05  0.951771  0.001  0.314095  0.000224  0.945419  0.001  0.299764  0.298676  -0.000279  0.956494  0.001
H  H23  1  0.32237424  0.63479896  0.87152312  1  0.314262  0.001594  0.894589  0.002  0.304202  0.000585  0.952323  0.001  0.313243  0.000667  0.945979  0.001  0.299383  0.297812  0.000493  0.957076  0.001
H  H24  1  0.10226912  0.32578314  0.81303314  1  0.085441  -0.000168  0.961869  -0.001  0.099053  -0.000101  1.028447  0.0  0.099285  8e-06  1.029279  0.0  0.097896  0.098528  -0.000221  1.028603  -0.001
H  H25  1  0.39822605  0.67423146  0.31298510  1  0.085304  0.000546  0.961972  0.001  0.098949  0.000406  1.028473  0.0  0.099154  0.000287  1.029286  0.0  0.097833  0.098428  0.000523  1.02866  0.001
H  H26  1  0.60249526  0.17420603  0.18702196  1  0.085313  -0.000432  0.961875  0.0  0.098779  -0.000363  1.028585  0.0  0.099026  -0.000252  1.029406  0.0  0.097727  0.098264  -0.000464  1.028744  -0.001
H  H27  1  0.89802108  0.82571718  0.68707268  1  0.085188  -7.6e-05  0.961887  0.0  0.098776  -9e-05  1.028378  0.0  0.098959  2.5e-05  1.029211  0.0  0.097654  0.09826  -0.000205  1.028569  -0.001
H  H28  1  0.98443996  0.18846695  0.87213931  1  0.084663  -1.1e-05  0.967344  0.0  0.101329  8.9e-05  1.027724  0.0  0.102981  6.8e-05  1.027082  0.0  0.099528  0.100118  0.000125  1.028252  0.0
H  H29  1  0.51574699  0.81173588  0.37211368  1  0.084249  -2.4e-05  0.967362  0.0  0.100757  -0.000106  1.027882  0.0  0.102369  -7e-05  1.027219  0.0  0.099312  0.099555  -0.000152  1.028444  0.0
H  H30  1  0.48464639  0.31144727  0.12783191  1  0.084707  -0.000123  0.967512  0.0  0.101414  -0.000241  1.027683  0.0  0.103071  -0.00018  1.027052  0.0  0.099527  0.100201  -0.000306  1.028225  0.0
H  H31  1  0.01568151  0.68832035  0.62788618  1  0.084173  -0.000171  0.967391  0.0  0.100721  -0.000279  1.027798  0.0  0.102334  -0.000203  1.02712  0.0  0.099331  0.099527  -0.000351  1.028358  0.0
H  H32  1  0.31327153  0.18801807  0.69035574  1  0.116025  -0.000267  0.931739  0.0  0.131605  -9.3e-05  0.987888  0.0  0.134125  -5.9e-05  0.98699  0.0  0.101383  0.129797  -9.5e-05  0.988595  0.0
H  H33  1  0.18662974  0.81172364  0.19060529  1  0.116168  0.000475  0.931606  0.0  0.131376  0.000185  0.988075  0.0  0.133903  0.00016  0.987178  0.0  0.10133  0.12952  0.000224  0.988833  0.0
H  H34  1  0.81320966  0.31219290  0.30977615  1  0.11626  0.000432  0.931379  0.0  0.131673  0.000188  0.987649  0.0  0.134211  0.000173  0.986734  0.0  0.101502  0.129879  0.000159  0.988318  0.0
H  H35  1  0.68671974  0.68800516  0.80956918  1  0.116213  0.000274  0.931682  0.0  0.131559  2.4e-05  0.987977  0.0  0.134075  2.7e-05  0.987077  0.0  0.101368  0.129742  3.2e-05  0.9887  0.0
H  H36  1  0.17112095  0.04726527  0.70584004  1  0.09836  -0.000175  0.942669  -0.001  0.105335  1.5e-05  1.020824  0.0  0.107298  0.000113  1.018418  0.0  0.098708  0.103367  -7e-05  1.023619  0.0
H  H37  1  0.32847818  0.95264105  0.20607487  1  0.097835  -6.6e-05  0.943401  0.0  0.104977  -0.000289  1.021106  0.0  0.10696  -0.000262  1.01868  0.0  0.098603  0.103031  -0.000298  1.023842  0.0
H  H38  1  0.67109995  0.45286860  0.29401637  1  0.098188  0.000552  0.943021  0.0  0.105228  0.000217  1.020866  0.0  0.107188  0.000233  1.018471  0.0  0.09879  0.103252  0.000169  1.023648  0.0
H  H39  1  0.82863915  0.54720136  0.79388419  1  0.098308  0.000291  0.942813  0.0  0.105265  -5.9e-05  1.020754  0.0  0.107214  7.7e-05  1.018364  0.0  0.09867  0.103305  -0.000207  1.02351  0.0
C  C40  1  0.98527385  0.31069042  0.57818332  1  0.642649  0.003591  3.838549  0.005  0.598568  -0.000523  4.147842  0.0  0.633054  -0.000194  4.145495  0.0  0.214446  0.574752  -0.000787  4.148826  0.001
C  C41  1  0.51500299  0.68935149  0.07805656  1  0.643023  -0.002573  3.837093  -0.005  0.598769  0.001303  4.147323  0.0  0.633263  0.000899  4.144968  0.0  0.214438  0.57494  0.001548  4.148237  0.0
C  C42  1  0.48534451  0.18927841  0.42183575  1  0.642837  0.003577  3.838028  0.005  0.598909  -0.000571  4.147209  0.0  0.633399  -0.000223  4.144844  0.0  0.214568  0.575087  -0.000857  4.148196  0.0
C  C43  1  0.01484872  0.81063132  0.92200597  1  0.642455  0.003134  3.839609  0.005  0.598009  -0.001095  4.149685  0.0  0.632505  -0.000682  4.147333  0.0  0.214076  0.574185  -0.001412  4.15061  0.0
C  C44  1  0.90034020  0.24458869  0.69101818  1  0.052775  0.002116  3.623945  0.005  0.036398  -0.000406  3.868276  0.002  0.036655  -4.8e-05  3.883013  0.002  -0.003058  0.036449  -0.000709  3.858548  0.002
C  C45  1  0.59976277  0.75574381  0.19088802  1  0.053131  -0.001642  3.622231  -0.004  0.035351  0.000635  3.86872  -0.002  0.035576  0.00032  3.883363  -0.002  -0.003078  0.035467  0.000848  3.858889  -0.002
C  C46  1  0.40046070  0.25538689  0.30899547  1  0.053263  0.000511  3.623922  0.003  0.036643  -0.001274  3.868229  0.001  0.036862  -0.000549  3.883035  0.001  -0.002991  0.03673  -0.001885  3.858474  0.0
C  C47  1  0.09966018  0.74437591  0.80912470  1  0.052897  0.00046  3.624208  0.003  0.036209  -0.001297  3.868546  0.001  0.036436  -0.000606  3.883208  0.001  -0.002971  0.036324  -0.00187  3.858734  0.0
C  C48  1  0.05170078  0.22673243  0.78902487  1  -0.134161  0.001933  3.678969  0.002  -0.176049  0.001176  3.925438  0.001  -0.177966  0.000843  3.94094  0.001  -0.168157  -0.174414  0.001421  3.91481  0.002
C  C49  1  0.44847826  0.77335885  0.28901853  1  -0.133411  -0.001688  3.678614  -0.002  -0.175168  -0.000982  3.925522  -0.001  -0.176892  -0.000616  3.94083  -0.001  -0.1681  -0.173647  -0.001271  3.914951  -0.001
C  C50  1  0.55185197  0.27325309  0.21097428  1  -0.134276  -0.002283  3.679252  -0.003  -0.176262  -0.001774  3.926022  -0.002  -0.178212  -0.001158  3.941584  -0.001  -0.167852  -0.174622  -0.002353  3.9153  -0.003
C  C51  1  0.94839150  0.72662608  0.71100959  1  -0.132917  -0.002095  3.679011  -0.002  -0.1746  -0.001652  3.925169  -0.002  -0.176336  -0.000999  3.9405  -0.001  -0.167596  -0.172981  -0.002278  3.914377  -0.003
C  C52  1  0.21626736  0.13781456  0.75406293  1  -0.263278  0.007476  3.660535  0.007  -0.301301  0.003834  3.910163  0.004  -0.307224  0.002779  3.918829  0.003  -0.168141  -0.296928  0.004584  3.904185  0.004
C  C53  1  0.28360584  0.86205443  0.25427698  1  -0.263109  -0.0073  3.661419  -0.007  -0.300356  -0.003965  3.909778  -0.004  -0.306368  -0.002738  3.918478  -0.003  -0.167796  -0.295884  -0.004814  3.903746  -0.005
C  C54  1  0.71635019  0.36226480  0.24593550  1  -0.26348  -0.006882  3.66106  -0.007  -0.300948  -0.003745  3.909868  -0.004  -0.306891  -0.00244  3.918566  -0.003  -0.168366  -0.29656  -0.004808  3.903884  -0.005
C  C55  1  0.78363388  0.63779898  0.74578042  1  -0.263859  -0.007459  3.661894  -0.008  -0.301308  -0.004257  3.9106  -0.005  -0.307291  -0.002747  3.919292  -0.003  -0.168086  -0.29688  -0.005397  3.904625  -0.006
C  C56  1  0.32794943  0.09289712  0.86560181  1  0.703286  -0.003345  3.804634  -0.007  0.664222  -0.00031  4.108164  -0.003  0.700708  -0.000625  4.104395  -0.003  0.210002  0.639065  -9.4e-05  4.110402  -0.003
C  C57  1  0.17193195  0.90690508  0.36592762  1  0.70339  0.00454  3.805408  0.008  0.664193  0.000223  4.109119  0.003  0.700689  0.000669  4.105389  0.003  0.210322  0.639085  -0.000297  4.111353  0.002
C  C58  1  0.82827921  0.40705911  0.13443124  1  0.703457  0.003949  3.804761  0.007  0.664136  0.000499  4.108561  0.003  0.700596  0.000825  4.104817  0.003  0.209892  0.639014  0.000216  4.110769  0.003
C  C59  1  0.67182538  0.59297735  0.63419552  1  0.703812  0.004545  3.804485  0.008  0.664532  0.000151  4.108326  0.003  0.701002  0.000619  4.104569  0.003  0.209981  0.639439  -0.000399  4.110572  0.003
N  N60  1  0.81394146  0.11771018  0.65408080  1  -0.629131  -0.088367  3.147504  -0.108  -0.614032  -0.059583  3.424168  -0.076  -0.648404  -0.048361  3.42295  -0.066  -0.638013  -0.593306  -0.065061  3.427078  -0.079
N  N61  1  0.68567280  0.88275666  0.15391648  1  -0.628797  0.093941  3.147994  0.107  -0.613767  0.062014  3.425047  0.075  -0.648024  0.051285  3.423775  0.065  -0.63756  -0.592817  0.066564  3.427897  0.078
N  N62  1  0.31406752  0.38225014  0.34589531  1  -0.629645  -0.088215  3.147404  -0.108  -0.614208  -0.059458  3.424294  -0.076  -0.648556  -0.048261  3.423075  -0.066  -0.638043  -0.593482  -0.064946  3.427156  -0.079
N  N63  1  0.18580337  0.61744067  0.84601224  1  -0.628448  -0.087495  3.147507  -0.107  -0.613208  -0.058778  3.424765  -0.075  -0.647508  -0.047776  3.423572  -0.065  -0.637677  -0.592309  -0.064019  3.427538  -0.078
O  O64  1  0.75603689  0.89597198  0.50921382  1  -0.877049  -0.040065  1.981169  -0.054  -0.831642  -0.036074  2.195836  -0.051  -0.86428  -0.029663  2.15401  -0.044  -0.603913  -0.810053  -0.039995  2.225216  -0.054
O  O65  1  0.74328135  0.10419122  0.00786609  1  -0.877902  0.042323  1.980415  0.052  -0.832374  0.037792  2.195561  0.05  -0.864805  0.031776  2.153668  0.044  -0.604141  -0.810727  0.041061  2.225159  0.053
O  O66  1  0.25604789  0.60392238  0.49069006  1  -0.876662  -0.040259  1.981675  -0.054  -0.83123  -0.036354  2.196227  -0.051  -0.863893  -0.029882  2.154392  -0.044  -0.603535  -0.809598  -0.040321  2.225643  -0.054
O  O67  1  0.24385326  0.39601241  0.99141184  1  -0.877037  -0.03971  1.981143  -0.053  -0.831607  -0.03615  2.196203  -0.051  -0.864155  -0.029825  2.154241  -0.044  -0.603769  -0.809933  -0.039938  2.22583  -0.054
O  O68  1  0.01486346  0.23788152  0.48149661  1  -0.610875  -0.088075  2.026743  -0.121  -0.578696  -0.059626  2.305352  -0.088  -0.623024  -0.046255  2.294668  -0.073  -0.320713  -0.549561  -0.067963  2.312857  -0.097
O  O69  1  0.48510935  0.76200170  0.98138659  1  -0.610805  0.095951  2.026716  0.121  -0.578685  0.063786  2.305684  0.089  -0.622942  0.050395  2.294996  0.073  -0.320694  -0.549477  0.071524  2.313243  0.097
O  O70  1  0.51481309  0.26209226  0.51854407  1  -0.611014  -0.088014  2.026405  -0.121  -0.578818  -0.059572  2.304872  -0.088  -0.623127  -0.046212  2.294177  -0.073  -0.320738  -0.549664  -0.067922  2.312377  -0.097
O  O71  1  0.98512173  0.73787506  0.01866629  1  -0.611143  -0.089027  2.026688  -0.122  -0.579009  -0.060211  2.305565  -0.089  -0.623314  -0.046766  2.294905  -0.073  -0.320707  -0.549806  -0.068493  2.313077  -0.097
O  O72  1  0.03008880  0.43010865  0.58576477  1  -0.602754  -0.019866  1.984849  -0.026  -0.564519  -0.009712  2.224496  -0.014  -0.594601  -0.004631  2.216269  -0.007  -0.302648  -0.542565  -0.014971  2.229537  -0.02
O  O73  1  0.47065234  0.56984516  0.08565121  1  -0.602861  0.02233  1.984412  0.026  -0.564327  0.011435  2.223853  0.014  -0.594361  0.006255  2.215515  0.007  -0.302619  -0.542316  0.016593  2.2289  0.02
O  O74  1  0.53024184  0.06989982  0.41423973  1  -0.602839  -0.020072  1.985062  -0.026  -0.564816  -0.009854  2.224733  -0.014  -0.594868  -0.004725  2.216451  -0.007  -0.302762  -0.542868  -0.015113  2.229799  -0.02
O  O75  1  0.97031814  0.93006142  0.91451242  1  -0.602326  -0.020824  1.985858  -0.026  -0.563954  -0.010845  2.225522  -0.014  -0.594002  -0.005837  2.217275  -0.007  -0.302544  -0.541902  -0.015978  2.230507  -0.02
O  O76  1  0.44476169  0.99739729  0.84600591  1  -0.60295  0.099225  1.981426  0.122  -0.582737  0.056413  2.260202  0.077  -0.627597  0.043781  2.248696  0.063  -0.342264  -0.55283  0.063865  2.268024  0.085
O  O77  1  0.05461806  0.00208648  0.34629859  1  -0.603048  -0.095028  1.981799  -0.126  -0.582801  -0.05504  2.260688  -0.079  -0.627734  -0.041584  2.249161  -0.064  -0.342733  -0.553123  -0.063486  2.268498  -0.088
O  O78  1  0.94541759  0.50236028  0.15405373  1  -0.602857  -0.092371  1.980593  -0.123  -0.582528  -0.053719  2.259365  -0.077  -0.62739  -0.040979  2.247893  -0.063  -0.342087  -0.552672  -0.061741  2.267122  -0.085
O  O79  1  0.55446947  0.49781124  0.65384032  1  -0.603121  -0.095577  1.981095  -0.127  -0.582817  -0.055613  2.259971  -0.08  -0.627729  -0.041988  2.248468  -0.064  -0.342448  -0.553139  -0.064254  2.267769  -0.088
O  O80  1  0.30686816  0.14462327  0.97068984  1  -0.623064  -0.003436  1.941468  -0.004  -0.578353  -0.002195  2.164381  -0.003  -0.607567  -0.001929  2.153793  -0.002  -0.315439  -0.557738  -0.00291  2.171522  -0.003
O  O81  1  0.19353608  0.85549527  0.47104234  1  -0.623193  -0.006464  1.941265  -0.01  -0.578774  -0.002941  2.164251  -0.005  -0.607948  -0.000962  2.153667  -0.002  -0.315683  -0.558305  -0.005248  2.171413  -0.008
O  O82  1  0.80697643  0.35540253  0.02932552  1  -0.623286  0.003798  1.941985  0.004  -0.578574  0.002353  2.165036  0.002  -0.607746  0.002114  2.154459  0.002  -0.315516  -0.558003  0.002979  2.172174  0.003
O  O83  1  0.69341399  0.64443161  0.52908652  1  -0.623457  -0.006583  1.940846  -0.01  -0.57895  -0.003023  2.163934  -0.005  -0.608136  -0.000986  2.153368  -0.002  -0.315584  -0.558475  -0.005408  2.171069  -0.008
