# generated using pymatgen
data_Cu2H29C42N9O10
_symmetry_space_group_name_H-M   'P 1'
_cell_length_a   13.42964011
_cell_length_b   13.87354969
_cell_length_c   13.87360061
_cell_angle_alpha   68.50405600
_cell_angle_beta   72.37532878
_cell_angle_gamma   72.37449810
_symmetry_Int_Tables_number   1
_chemical_formula_structural   Cu2H29C42N9O10
_chemical_formula_sum   'Cu4 H58 C84 N18 O20'
_cell_volume   2237.91090040
_cell_formula_units_Z   2
loop_
 _symmetry_equiv_pos_site_id
 _symmetry_equiv_pos_as_xyz
  1  'x, y, z'
loop_
 _atom_site_type_symbol
 _atom_site_label
 _atom_site_symmetry_multiplicity
 _atom_site_fract_x
 _atom_site_fract_y
 _atom_site_fract_z
 _atom_site_occupancy
 _atom_site_pbe_bader_charge
 _atom_site_pbe_bader_spin_density
 _atom_site_pbe_cm5_charge
 _atom_site_pbe_ddec_charge
 _atom_site_pbe_ddec_spin_density
 _atom_site_pbe_ddec_sum_bond_order
 _atom_site_pbe_magmom
Cu  Cu0  1  0.05896876  0.79167979  0.30511878  1  1.021386  0.556052  0.763782  0.637177  0.734992  2.477435  0.555
Cu  Cu1  1  0.55897954  0.30513808  0.79167666  1  1.021065  0.555267  0.763736  0.637317  0.734014  2.477151  0.554
Cu  Cu2  1  0.89642471  0.48278652  0.98553120  1  1.031919  -0.563479  0.774822  0.638669  -0.793414  2.525102  -0.562
Cu  Cu3  1  0.39641797  0.98554418  0.48280294  1  1.031826  0.564169  0.774755  0.638555  0.745761  2.525229  0.563
H  H4  1  0.94805813  0.61072980  0.46087230  1  0.090301  0.002535  0.121238  0.091395  0.001208  0.987313  0.002
H  H5  1  0.44803885  0.46087962  0.61076191  1  0.090459  0.002536  0.121368  0.091508  0.001208  0.987152  0.002
H  H6  1  0.97505154  0.47773611  0.63672343  1  0.182094  0.00123  0.113398  0.133004  0.000714  1.021295  0.001
H  H7  1  0.47502482  0.63674031  0.47775107  1  0.182303  0.001217  0.113504  0.133147  0.000702  1.021381  0.001
H  H8  1  0.13579725  0.46466274  0.70169973  1  0.142213  1.5e-05  0.108567  0.117197  -9e-06  1.017107  0.0
H  H9  1  0.63579886  0.70170152  0.46465174  1  0.142173  3e-06  0.108587  0.1172  -2e-06  1.017155  0.0
H  H10  1  0.26370407  0.58620105  0.58519445  1  0.090517  0.001642  0.109452  0.113197  0.000896  1.015854  0.001
H  H11  1  0.76373224  0.58520401  0.58617484  1  0.090345  0.001632  0.109466  0.11323  0.000886  1.015721  0.001
H  H12  1  0.26417380  0.06389384  0.06275594  1  0.082738  0.001585  0.111325  0.117139  0.000855  1.010003  0.001
H  H13  1  0.76417492  0.06277440  0.06388254  1  0.082442  0.00155  0.111377  0.117114  0.000829  1.01011  0.001
H  H14  1  0.13348856  0.16770751  0.94208459  1  0.114625  -1e-06  0.114105  0.122263  -1.3e-05  0.988275  0.0
H  H15  1  0.63349224  0.94210374  0.16770230  1  0.115069  -1.1e-05  0.11405  0.122227  -5e-06  0.988274  0.0
H  H16  1  0.96964959  0.09946521  0.97250453  1  0.153824  0.001151  0.111073  0.129549  0.000672  1.023818  0.001
H  H17  1  0.46965232  0.97253284  0.09946288  1  0.154426  0.00115  0.111118  0.129627  0.000671  1.024008  0.001
H  H18  1  0.94304271  0.93117392  0.12287599  1  0.120659  0.002013  0.120956  0.097921  0.000939  0.98579  0.002
H  H19  1  0.44303683  0.12289862  0.93116123  1  0.120675  0.002008  0.120963  0.097993  0.000936  0.985732  0.002
H  H20  1  0.98387439  0.55800155  0.11306621  1  0.15196  -7e-06  0.113681  0.091353  -4.9e-05  1.050699  0.0
H  H21  1  0.48389252  0.11310475  0.55797611  1  0.151374  -8.9e-05  0.113625  0.091275  -3.5e-05  1.050736  0.0
H  H22  1  0.66699385  0.60637269  0.10427449  1  0.075762  7.9e-05  0.110027  0.076414  5.4e-05  1.006335  0.0
H  H23  1  0.16701505  0.10428501  0.60638893  1  0.07537  -4.3e-05  0.109945  0.076328  -3.4e-05  1.006291  0.0
H  H24  1  0.60700832  0.72411659  0.22156200  1  0.08625  1.3e-05  0.113939  0.125355  4e-06  0.980255  0.0
H  H25  1  0.10702161  0.22155228  0.72413167  1  0.086451  -3e-06  0.113927  0.125375  -4e-06  0.980373  0.0
H  H26  1  0.74543591  0.76259338  0.28123280  1  0.141681  0.000219  0.10656  0.113548  0.000179  1.030286  0.0
H  H27  1  0.24544183  0.28122344  0.76261629  1  0.14177  0.000237  0.106503  0.113454  0.00016  1.030287  0.0
H  H28  1  0.81819543  0.83001239  0.36289046  1  0.132812  -6.7e-05  0.112205  0.093546  -1.1e-05  1.062142  0.0
H  H29  1  0.31820774  0.36291227  0.82999464  1  0.133095  5.9e-05  0.1122  0.093533  8.4e-05  1.062064  0.0
H  H30  1  0.01136999  0.95664215  0.44579922  1  0.167671  4.6e-05  0.113514  0.098309  1e-06  1.055853  0.0
H  H31  1  0.51134028  0.44581110  0.95668075  1  0.167646  -8.7e-05  0.113576  0.098456  -6.1e-05  1.055917  0.0
H  H32  1  0.85320248  0.07826618  0.52051700  1  0.094696  -2.4e-05  0.111379  0.123762  1e-06  1.002225  0.0
H  H33  1  0.35316663  0.52051693  0.07830590  1  0.095126  -4e-06  0.111405  0.123801  1.9e-05  1.002192  0.0
H  H34  1  0.66829953  0.07203288  0.51900724  1  0.143597  0.000223  0.114801  0.126478  0.000182  0.995625  0.0
H  H35  1  0.16827012  0.51902246  0.07203452  1  0.143838  -0.000241  0.114775  0.126337  -0.000191  0.99567  0.0
H  H36  1  0.03129959  0.31115177  0.13890197  1  0.098444  -0.00222  0.122478  0.094122  -0.001092  0.988597  -0.001
H  H37  1  0.53129118  0.13893871  0.31114005  1  0.098637  0.002214  0.122497  0.094078  0.001021  0.988567  0.001
H  H38  1  0.01138713  0.13101820  0.26685387  1  0.1809  -0.000919  0.110367  0.124958  -0.000461  1.041509  -0.001
H  H39  1  0.51134968  0.26688235  0.13101735  1  0.181245  0.000906  0.110334  0.124954  0.000414  1.04139  0.001
H  H40  1  0.85005741  0.06524618  0.28163608  1  0.112381  8e-06  0.102103  0.092131  3e-06  1.06882  0.0
H  H41  1  0.35001603  0.28164694  0.06524530  1  0.112455  -2.1e-05  0.102174  0.092135  -1.1e-05  1.068762  0.0
H  H42  1  0.71151026  0.18608562  0.17695643  1  0.086533  -0.001485  0.11178  0.116015  -0.000836  1.011082  -0.001
H  H43  1  0.21146788  0.17696581  0.18608682  1  0.086594  0.001516  0.111744  0.116092  0.000809  1.010766  0.001
H  H44  1  0.68718947  0.71730016  0.71585312  1  0.113729  -0.001428  0.111896  0.118991  -0.000815  1.010244  -0.001
H  H45  1  0.18718316  0.71586856  0.71733552  1  0.114234  0.001443  0.111872  0.11906  0.000779  1.010091  0.001
H  H46  1  0.82024626  0.83162827  0.60315734  1  0.107098  1.9e-05  0.100856  0.092084  1.2e-05  1.069587  0.0
H  H47  1  0.32024827  0.60316421  0.83165802  1  0.106815  -3.4e-05  0.1009  0.092127  -1.4e-05  1.069456  0.0
H  H48  1  0.99552087  0.79302944  0.65538711  1  0.137739  -0.00093  0.110687  0.127834  -0.000445  1.036302  -0.001
H  H49  1  0.49553312  0.65538956  0.79304798  1  0.137343  0.000924  0.110714  0.127895  0.000403  1.036109  0.001
H  H50  1  0.02701740  0.64407342  0.82211596  1  0.114674  -0.002131  0.121109  0.095487  -0.00105  0.995607  -0.001
H  H51  1  0.52701537  0.82212472  0.64409227  1  0.113921  0.002121  0.12116  0.095542  0.000972  0.995476  0.001
H  H52  1  0.48658173  0.71296187  0.12460334  1  0.077021  -3e-06  0.117857  0.087633  -2e-06  1.000125  0.0
H  H53  1  0.98659074  0.12456476  0.71298080  1  0.077343  -7e-06  0.117871  0.087459  -2e-06  1.000232  0.0
H  H54  1  0.34076021  0.86638140  0.85408657  1  0.100756  -1.5e-05  0.106638  0.103743  -1.8e-05  1.00759  0.0
H  H55  1  0.84079964  0.85401982  0.86636839  1  0.100986  1.6e-05  0.106662  0.103834  1.9e-05  1.007281  0.0
H  H56  1  0.18180899  0.77881922  0.96600099  1  0.122912  -1.2e-05  0.09925  0.102769  -7e-06  1.051723  0.0
H  H57  1  0.68181455  0.96596395  0.77885654  1  0.121439  1e-06  0.099255  0.102729  6e-06  1.051829  0.0
H  H58  1  0.18798375  0.66693066  0.15108275  1  0.188053  -0.000272  0.111656  0.090583  -0.000263  1.059673  0.0
H  H59  1  0.68799124  0.15104144  0.66696200  1  0.188224  -0.000275  0.111725  0.090664  -0.00027  1.059745  0.0
H  H60  1  0.65144592  0.85505732  0.92674431  1  0.593641  -2e-06  0.332327  0.367965  -4e-06  0.9003  0.0
H  H61  1  0.15150740  0.92671871  0.85500525  1  0.593481  -1e-06  0.332304  0.368033  -5e-06  0.900288  0.0
C  C62  1  0.01634451  0.60177844  0.49278557  1  0.481865  -0.00089  0.055079  0.103165  0.000241  3.919963  0.0
C  C63  1  0.51632839  0.49280074  0.60178530  1  0.48157  -0.000903  0.055051  0.103279  0.000232  3.91987  0.0
C  C64  1  0.03283601  0.52745456  0.58957343  1  -0.042065  0.006517  -0.072952  -0.11432  0.004521  3.92195  0.005
C  C65  1  0.53281608  0.58959435  0.52745078  1  -0.042631  0.006501  -0.073011  -0.114462  0.004495  3.921354  0.005
C  C66  1  0.12248871  0.52056949  0.62498309  1  -0.024712  -0.00383  -0.064306  -0.026411  -0.002721  3.93695  -0.002
C  C67  1  0.62248437  0.62499427  0.52056409  1  -0.024418  -0.003831  -0.064362  -0.026444  -0.002732  3.936443  -0.002
C  C68  1  0.19249996  0.58755490  0.56209299  1  -0.032611  0.003928  -0.072897  -0.129734  0.002834  3.934434  0.003
C  C69  1  0.69251837  0.56210566  0.58752931  1  -0.031731  0.003866  -0.072786  -0.129564  0.00279  3.933826  0.003
C  C70  1  0.17012899  0.66086622  0.46673261  1  0.46413  -0.001491  0.119427  0.119563  -0.000876  3.921771  -0.001
C  C71  1  0.67014063  0.46674637  0.66084683  1  0.463799  -0.001487  0.119281  0.11927  -0.000875  3.921515  -0.001
C  C72  1  0.24051206  0.73821701  0.39640219  1  1.411519  -4.4e-05  0.241298  0.481463  0.000809  4.111932  -0.001
C  C73  1  0.74051606  0.39640729  0.73821191  1  1.411503  -2.4e-05  0.241392  0.481513  0.00084  4.112078  -0.001
C  C74  1  0.24088133  0.88670976  0.23291655  1  1.443368  -9.4e-05  0.235489  0.472459  0.000983  4.126994  -0.001
C  C75  1  0.74090187  0.23291965  0.88669412  1  1.443331  -7.7e-05  0.235668  0.472526  0.001017  4.127727  -0.001
C  C76  1  0.16859975  0.94922958  0.15538240  1  0.43303  -0.001506  0.115474  0.10965  -0.0009  3.945068  -0.001
C  C77  1  0.66860942  0.15539869  0.94921608  1  0.432802  -0.001514  0.115238  0.109366  -0.000901  3.944659  -0.001
C  C78  1  0.19146289  0.03898003  0.07193477  1  0.032163  0.003486  -0.073915  -0.134964  0.002541  3.943666  0.002
C  C79  1  0.69146456  0.07194623  0.03897899  1  0.032827  0.003389  -0.074087  -0.135007  0.002463  3.943419  0.002
C  C80  1  0.11990905  0.09462451  0.00504510  1  -0.019733  -0.003936  -0.061626  -0.022885  -0.002793  3.926636  -0.002
C  C81  1  0.61990666  0.00506925  0.09462493  1  -0.020595  -0.003943  -0.061524  -0.022838  -0.002804  3.926663  -0.002
C  C82  1  0.02868585  0.05693533  0.02171064  1  -0.055256  0.006365  -0.077436  -0.120227  0.004389  3.942256  0.005
C  C83  1  0.52869171  0.02172231  0.05693190  1  -0.055341  0.006317  -0.077458  -0.120178  0.004339  3.942455  0.005
C  C84  1  0.01209244  0.96540566  0.10546708  1  0.429371  -0.000688  0.049041  0.091888  0.000317  3.92702  0.0
C  C85  1  0.51209009  0.10548176  0.96540125  1  0.429076  -0.000702  0.048981  0.091659  0.000295  3.926851  0.0
C  C86  1  0.96780475  0.67343847  0.23512958  1  1.59089  -0.000252  0.198062  0.558735  0.000767  4.255731  -0.001
C  C87  1  0.46782668  0.23513175  0.67342902  1  1.591951  -0.000277  0.198303  0.559364  0.000754  4.255619  -0.001
C  C88  1  0.87610533  0.66057319  0.20305880  1  -0.008927  0.007486  -0.016668  -0.068894  0.005317  3.959365  0.006
C  C89  1  0.37612468  0.20308440  0.66057484  1  -0.009736  0.007922  -0.016628  -0.069075  0.00563  3.958921  0.006
C  C90  1  0.90103579  0.59589518  0.13852887  1  0.430338  0.001435  0.048838  0.087234  0.00092  3.915264  0.001
C  C91  1  0.40105099  0.13855682  0.59588251  1  0.431362  0.000631  0.048904  0.087433  0.000368  3.914644  0.001
C  C92  1  0.72444957  0.62344983  0.13379239  1  0.438314  0.000345  0.040017  0.095239  0.000208  3.9751  0.0
C  C93  1  0.22446968  0.13380209  0.62344965  1  0.439487  -0.000702  0.039987  0.09538  -0.000441  3.975268  0.0
C  C94  1  0.69163867  0.68897749  0.19862601  1  0.013541  -1.5e-05  -0.087847  -0.135862  -5.4e-05  3.98352  0.0
C  C95  1  0.19164722  0.19863120  0.68898847  1  0.013672  0.00031  -0.087834  -0.135937  0.000171  3.983391  0.0
C  C96  1  0.76885275  0.70955762  0.23253234  1  -0.040225  0.000286  -0.067664  -0.057885  0.0002  3.934065  0.0
C  C97  1  0.26886312  0.23253279  0.70956720  1  -0.040204  -0.000725  -0.067636  -0.05782  -0.000495  3.933658  -0.001
C  C98  1  0.62418795  0.93728288  0.43286552  1  1.56333  -0.000556  0.194407  0.548557  0.000575  4.272036  -0.002
C  C99  1  0.12419200  0.43286261  0.93726956  1  1.563311  0.000536  0.194311  0.548467  -0.000857  4.271915  0.002
C  C100  1  0.72922327  0.94846328  0.44154322  1  -0.05544  0.008064  -0.022708  -0.091076  0.005721  3.980846  0.006
C  C101  1  0.22922312  0.44154523  0.94845852  1  -0.055687  -0.007827  -0.022646  -0.090954  -0.005891  3.980916  -0.006
C  C102  1  0.82267896  0.88471823  0.40027502  1  0.494998  0.000212  0.035819  0.049598  0.000113  3.956461  0.0
C  C103  1  0.32267458  0.40029280  0.88472068  1  0.494065  -0.00108  0.035759  0.049487  -0.000772  3.956828  -0.001
C  C104  1  0.93052409  0.95568291  0.44560423  1  0.425562  -0.000978  0.04754  0.096727  -0.000696  3.906449  -0.001
C  C105  1  0.43050039  0.44561449  0.95571903  1  0.426254  -1.7e-05  0.047325  0.096247  1e-06  3.906534  0.0
C  C106  1  0.84134450  0.02315248  0.48789646  1  0.029404  0.000318  -0.082597  -0.127955  0.000187  3.946595  0.0
C  C107  1  0.34131328  0.48789791  0.02318226  1  0.029455  -1.8e-05  -0.082592  -0.127976  4.6e-05  3.946821  0.0
C  C108  1  0.73892598  0.01978824  0.48663145  1  -0.114612  -0.000736  -0.060022  -0.046854  -0.000467  3.905332  -0.001
C  C109  1  0.23890869  0.48663267  0.01979384  1  -0.115941  -0.000153  -0.06  -0.046666  -0.000146  3.905013  0.0
C  C110  1  0.96265397  0.27867916  0.15038379  1  0.489237  0.001405  0.055913  0.104771  -0.000138  3.919173  0.001
C  C111  1  0.46263150  0.15041783  0.27867335  1  0.488714  -0.00142  0.055894  0.104945  -0.000177  3.91907  -0.001
C  C112  1  0.95062217  0.17923167  0.22097877  1  -0.09982  -0.005787  -0.076471  -0.117658  -0.004247  3.931881  -0.004
C  C113  1  0.45058792  0.22102063  0.17922814  1  -0.099817  0.005715  -0.076351  -0.117504  0.003925  3.93154  0.004
C  C114  1  0.86055557  0.14362749  0.22989268  1  -0.009998  0.00397  -0.068107  -0.028031  0.002621  3.966184  0.002
C  C115  1  0.36051845  0.22992239  0.14363582  1  -0.009526  -0.003987  -0.068254  -0.028108  -0.002824  3.965814  -0.002
C  C116  1  0.78395379  0.20922175  0.17180098  1  -0.000682  -0.003343  -0.071309  -0.124285  -0.002559  3.931223  -0.002
C  C117  1  0.28392356  0.17181247  0.20923603  1  -0.001163  0.00326  -0.071268  -0.124554  0.002367  3.930676  0.002
C  C118  1  0.80131790  0.30769686  0.10326428  1  0.478552  0.001456  0.121033  0.12319  0.000557  3.940309  0.001
C  C119  1  0.30129643  0.10327493  0.30771209  1  0.478126  -0.001418  0.121085  0.123376  -0.000803  3.939997  -0.001
C  C120  1  0.72233932  0.38243356  0.03736908  1  1.401651  7.5e-05  0.244271  0.48329  -0.00122  4.111198  0.001
C  C121  1  0.22233148  0.03737570  0.38245238  1  1.401588  -0.000113  0.244073  0.483006  0.000859  4.11146  -0.001
C  C122  1  0.71451535  0.54912821  0.89276480  1  1.43136  -2.2e-05  0.240866  0.477657  -0.001406  4.127774  0.001
C  C123  1  0.21449766  0.89277772  0.54915313  1  1.431013  3.5e-05  0.240947  0.478088  0.001075  4.127572  -0.001
C  C124  1  0.78949456  0.62173884  0.82366952  1  0.486051  0.00156  0.115543  0.11247  0.000613  3.952348  0.001
C  C125  1  0.28949703  0.82366988  0.62175918  1  0.486075  -0.00147  0.115487  0.112293  -0.000811  3.952663  -0.001
C  C126  1  0.76417172  0.70424157  0.73464058  1  -0.100764  -0.003255  -0.073856  -0.132454  -0.002471  3.943284  -0.002
C  C127  1  0.26417168  0.73464483  0.70426930  1  -0.100654  0.003218  -0.073773  -0.132304  0.002311  3.943463  0.002
C  C128  1  0.83842588  0.76657231  0.67279726  1  0.018316  0.004035  -0.067405  -0.023538  0.002678  3.950852  0.002
C  C129  1  0.33842347  0.67280998  0.76659384  1  0.018707  -0.004029  -0.067568  -0.023785  -0.002851  3.950963  -0.002
C  C130  1  0.93540097  0.74587586  0.70183699  1  0.010535  -0.005518  -0.0755  -0.117751  -0.004117  3.932302  -0.004
C  C131  1  0.43540766  0.70184831  0.74589036  1  0.009635  0.005563  -0.075427  -0.117726  0.003878  3.93215  0.004
C  C132  1  0.95439283  0.66296874  0.79310173  1  0.445684  0.001425  0.055115  0.099418  -5.8e-05  3.929884  0.001
C  C133  1  0.45439491  0.79310645  0.66298365  1  0.446925  -0.001442  0.05508  0.099493  -0.000263  3.929973  -0.001
C  C134  1  0.51744458  0.84332782  0.91759263  1  1.478476  -5.4e-05  0.230064  0.574307  -4.2e-05  4.134369  0.0
C  C135  1  0.01749560  0.91754167  0.84330746  1  1.477508  -3.9e-05  0.230266  0.574583  -2.2e-05  4.134258  0.0
C  C136  1  0.42041625  0.72947024  0.08670829  1  0.60488  1e-05  0.056915  0.092483  1e-06  3.935879  0.0
C  C137  1  0.92043943  0.08666899  0.72947827  1  0.603824  3.6e-05  0.05675  0.092477  1.3e-05  3.935284  0.0
C  C138  1  0.42440530  0.79570797  0.98166731  1  -0.009715  -0.000202  -0.020147  -0.100009  -0.00013  3.98829  0.0
C  C139  1  0.92443302  0.98161300  0.79571653  1  -0.071351  -0.000225  -0.019998  -0.099613  -0.000151  3.98786  0.0
C  C140  1  0.33730480  0.81578147  0.93612508  1  -0.051978  -3e-06  -0.069491  -0.058315  -1e-06  3.972503  0.0
C  C141  1  0.83733781  0.93607765  0.81577816  1  0.008156  2.6e-05  -0.069553  -0.058598  2.1e-05  3.973037  0.0
C  C142  1  0.25119540  0.76908166  0.99695447  1  -0.099337  -0.0002  -0.096908  -0.148688  -0.000118  3.987458  0.0
C  C143  1  0.75121198  0.99690832  0.76910730  1  -0.097751  -0.000187  -0.096894  -0.148664  -0.0001  3.987747  0.0
C  C144  1  0.25478243  0.70463466  0.10117367  1  0.405144  -0.000258  0.049357  0.095221  -0.000259  3.949229  0.0
C  C145  1  0.75478581  0.10113188  0.70465924  1  0.405389  -0.000231  0.049271  0.095192  -0.000247  3.949012  0.0
N  N146  1  0.08295821  0.66731090  0.43363049  1  -1.221135  0.09243  -0.33454  -0.225836  0.06316  3.604007  0.081
N  N147  1  0.58295967  0.43365048  0.66729447  1  -1.221424  0.092277  -0.334682  -0.226156  0.06306  3.604508  0.081
N  N148  1  0.19511233  0.81016115  0.31417588  1  -1.194148  0.126977  -0.392941  -0.503536  0.083493  3.548613  0.105
N  N149  1  0.69513613  0.31417722  0.81015032  1  -1.194128  0.126975  -0.392945  -0.503457  0.083497  3.549215  0.105
N  N150  1  0.07995655  0.91391658  0.17118634  1  -1.195393  0.087858  -0.338313  -0.236102  0.060424  3.615136  0.077
N  N151  1  0.57995907  0.17120878  0.91390495  1  -1.19496  0.087703  -0.338152  -0.235929  0.060327  3.614678  0.077
N  N152  1  0.82779422  0.57850903  0.10288250  1  -1.219075  0.001809  -0.335784  -0.267112  0.000763  3.518569  0.0
N  N153  1  0.32780175  0.10290537  0.57850233  1  -1.219884  0.001232  -0.335762  -0.26722  0.001122  3.518822  0.002
N  N154  1  0.89037559  0.34025740  0.09187692  1  -1.207564  -0.086388  -0.337828  -0.22704  -0.063067  3.616715  -0.076
N  N155  1  0.39036055  0.09190459  0.34026354  1  -1.207107  0.086297  -0.337762  -0.227203  0.05914  3.616279  0.076
N  N156  1  0.76002380  0.47067754  0.97097574  1  -1.212782  -0.12774  -0.392603  -0.500011  -0.089626  3.562987  -0.106
N  N157  1  0.26000777  0.97098943  0.47070204  1  -1.212864  0.127608  -0.392581  -0.500001  0.084089  3.563071  0.106
N  N158  1  0.88328498  0.60225088  0.85177448  1  -1.213594  -0.084897  -0.339262  -0.231341  -0.062091  3.615539  -0.075
N  N159  1  0.38328308  0.85178374  0.60226682  1  -1.213248  0.084934  -0.33929  -0.231487  0.058305  3.615735  0.075
N  N160  1  0.92130112  0.88772160  0.40151886  1  -1.235488  0.000527  -0.336927  -0.266577  0.000606  3.497755  0.002
N  N161  1  0.42129492  0.40152857  0.88774269  1  -1.234783  -0.002504  -0.33682  -0.266308  -0.001404  3.497006  -0.001
N  N162  1  0.33792475  0.68423637  0.14576406  1  -1.189177  -0.000274  -0.325568  -0.265328  -0.000184  3.295953  0.0
N  N163  1  0.83793410  0.14572228  0.68425529  1  -1.187854  -0.000288  -0.325494  -0.265371  -0.0002  3.295562  0.0
O  O164  1  0.32585411  0.73284702  0.41677427  1  -1.108795  0.018056  -0.276888  -0.448947  0.01157  2.111408  0.015
O  O165  1  0.82584915  0.41679199  0.73284543  1  -1.108934  0.018274  -0.276971  -0.448985  0.011758  2.111352  0.015
O  O166  1  0.32902942  0.90719083  0.21745653  1  -1.115883  0.016737  -0.279833  -0.457305  0.010708  2.119347  0.014
O  O167  1  0.82904649  0.21744494  0.90717668  1  -1.116049  0.016813  -0.279931  -0.457342  0.0108  2.119721  0.014
O  O168  1  0.94697160  0.75639913  0.26626130  1  -1.143297  0.077231  -0.339322  -0.556108  0.05096  2.421438  0.07
O  O169  1  0.44700875  0.26626654  0.75637718  1  -1.143704  0.077253  -0.339326  -0.556327  0.050984  2.421598  0.07
O  O170  1  0.05440177  0.60714661  0.22932408  1  -1.177847  0.00052  -0.324027  -0.544139  6.1e-05  2.131413  0.001
O  O171  1  0.55441723  0.22931080  0.60714360  1  -1.178456  0.000543  -0.324238  -0.544422  6.9e-05  2.131176  0.001
O  O172  1  0.54107319  0.98799569  0.48525258  1  -1.133459  0.084653  -0.332632  -0.538915  0.055764  2.4221  0.077
O  O173  1  0.04107120  0.48526441  0.98796722  1  -1.133633  -0.084602  -0.332561  -0.538945  -0.059385  2.421934  -0.077
O  O174  1  0.62317668  0.88269832  0.37889823  1  -1.169418  0.000175  -0.327541  -0.563445  -0.000267  2.136295  0.001
O  O175  1  0.12318778  0.37889318  0.88268525  1  -1.169114  -7.9e-05  -0.327506  -0.563423  0.000203  2.136397  -0.001
O  O176  1  0.62515255  0.56404743  0.87496070  1  -1.122153  -0.014887  -0.273546  -0.4544  -0.010199  2.14355  -0.012
O  O177  1  0.12513896  0.87496139  0.56407655  1  -1.122197  0.014868  -0.273506  -0.454624  0.009539  2.143292  0.012
O  O178  1  0.63674352  0.35999141  0.04644682  1  -1.120852  -0.014551  -0.269949  -0.450534  -0.009977  2.158115  -0.012
O  O179  1  0.13674284  0.04644064  0.35999587  1  -1.120593  0.01443  -0.269928  -0.450427  0.009265  2.158025  0.012
O  O180  1  0.59530884  0.81689050  0.97265074  1  -1.097871  -1.6e-05  -0.330141  -0.489729  -1e-05  2.315391  0.0
O  O181  1  0.09534001  0.97262359  0.81687692  1  -1.09584  -1.6e-05  -0.330095  -0.489872  -1.5e-05  2.315277  0.0
O  O182  1  0.52562389  0.90060297  0.82528101  1  -1.14637  -9e-05  -0.285856  -0.483316  -6e-05  2.097001  0.0
O  O183  1  0.02570640  0.82522941  0.90056163  1  -1.1471  -4.2e-05  -0.286009  -0.483409  -2.8e-05  2.097072  0.0
