# generated using pymatgen
data_ZnH20C20(NO4)2
_symmetry_space_group_name_H-M   'P 1'
_cell_length_a   5.61937497
_cell_length_b   7.95042016
_cell_length_c   11.02283124
_cell_angle_alpha   107.37915064
_cell_angle_beta   97.08789623
_cell_angle_gamma   98.26384685
_symmetry_Int_Tables_number   1
_chemical_formula_structural   ZnH20C20(NO4)2
_chemical_formula_sum   'Zn1 H20 C20 N2 O8'
_cell_volume   457.83000058
_cell_formula_units_Z   1
loop_
 _symmetry_equiv_pos_site_id
 _symmetry_equiv_pos_as_xyz
  1  'x, y, z'
loop_
 _atom_site_type_symbol
 _atom_site_label
 _atom_site_symmetry_multiplicity
 _atom_site_fract_x
 _atom_site_fract_y
 _atom_site_fract_z
 _atom_site_occupancy
 _atom_site_hle17_bader_spin_density
 _atom_site_hle17_ddec_charge
 _atom_site_hle17_ddec_spin_density
 _atom_site_hle17_ddec_sum_bond_order
 _atom_site_hle17_magmom
 _atom_site_hse06_10hf_bader_spin_density
 _atom_site_hse06_10hf_ddec_charge
 _atom_site_hse06_10hf_ddec_spin_density
 _atom_site_hse06_10hf_ddec_sum_bond_order
 _atom_site_hse06_10hf_magmom
 _atom_site_hse06_bader_spin_density
 _atom_site_hse06_ddec_charge
 _atom_site_hse06_ddec_spin_density
 _atom_site_hse06_ddec_sum_bond_order
 _atom_site_hse06_magmom
 _atom_site_pbe_bader_spin_density
 _atom_site_pbe_cm5_charge
 _atom_site_pbe_ddec_charge
 _atom_site_pbe_ddec_spin_density
 _atom_site_pbe_ddec_sum_bond_order
 _atom_site_pbe_magmom
Zn  Zn0  1  0.50000504  0.49998164  0.99998536  1  0  1.062788  0  1.769229  0  0  0.886172  0  2.20242  0  0  0.933441  0  2.150347  0  0  0.669113  0.853183  0  2.237996  0
H  H1  1  0.95495024  0.62222787  0.93762142  1  0  0.423305  0  0.860077  0  0  0.39274  0  0.934379  0  0  0.40383  0  0.918199  0  0  0.292601  0.384821  0  0.945695  0
H  H2  1  0.04503295  0.37775261  0.06234276  1  0  0.423529  0  0.860007  0  0  0.392943  0  0.934164  0  0  0.404039  0  0.917976  0  0  0.292704  0.385024  0  0.945659  0
H  H3  1  0.74743014  0.74402785  0.94654988  1  0  0.407576  0  0.913739  0  0  0.37201  0  0.986645  0  0  0.38441  0  0.968829  0  0  0.280046  0.363299  0  0.999133  0
H  H4  1  0.25256843  0.25597023  0.05345985  1  0  0.407623  0  0.91368  0  0  0.372085  0  0.986546  0  0  0.384485  0  0.968732  0  0  0.280033  0.363376  0  0.999033  0
H  H5  1  0.17962593  0.99450447  0.33532757  1  0  0.108456  0  0.965095  0  0  0.118161  0  1.02618  0  0  0.121493  0  1.025087  0  0  0.108816  0.115786  0  1.027132  0
H  H6  1  0.82036738  0.00545870  0.66462986  1  0  0.108367  0  0.9652  0  0  0.11801  0  1.026386  0  0  0.121339  0  1.025295  0  0  0.108794  0.115635  0  1.027333  0
H  H7  1  0.18997300  0.77719740  0.12591802  1  0  0.09289  0  0.966789  0  0  0.099385  0  1.031893  0  0  0.102488  0  1.028827  0  0  0.118573  0.097048  0  1.034189  0
H  H8  1  0.81002792  0.22275246  0.87404426  1  0  0.09275  0  0.967153  0  0  0.099349  0  1.032155  0  0  0.102451  0  1.029083  0  0  0.118466  0.097011  0  1.034449  0
H  H9  1  0.82362436  0.63901606  0.26957461  1  0  0.085994  0  0.953553  0  0  0.090308  0  1.022147  0  0  0.092461  0  1.021467  0  0  0.114193  0.08869  0  1.022754  0
H  H10  1  0.17638449  0.36095129  0.73040462  1  0  0.085962  0  0.953453  0  0  0.090288  0  1.021943  0  0  0.092456  0  1.021224  0  0  0.114175  0.088645  0  1.022615  0
H  H11  1  0.83648814  0.84461185  0.48816355  1  0  0.103447  0  0.973647  0  0  0.113113  0  1.035674  0  0  0.11562  0  1.036303  0  0  0.105362  0.111296  0  1.035458  0
H  H12  1  0.16352396  0.15537695  0.51180417  1  0  0.103475  0  0.973458  0  0  0.113041  0  1.035606  0  0  0.115547  0  1.036239  0  0  0.105362  0.111228  0  1.035377  0
H  H13  1  0.75421495  0.05626539  0.23738369  1  0  0.0718  0  0.967682  0  0  0.077649  0  1.04259  0  0  0.078524  0  1.043407  0  0  0.098712  0.076999  0  1.042222  0
H  H14  1  0.24581774  0.94376920  0.76265413  1  0  0.071829  0  0.967659  0  0  0.07774  0  1.042572  0  0  0.078582  0  1.043421  0  0  0.098716  0.077094  0  1.042197  0
H  H15  1  0.90995306  0.05130829  0.10573815  1  0  0.112535  0  0.909169  0  0  0.126405  0  0.96557  0  0  0.1286  0  0.963546  0  0  0.120779  0.124787  0  0.967159  0
H  H16  1  0.09008782  0.94873041  0.89430376  1  0  0.11255  0  0.909031  0  0  0.126463  0  0.965465  0  0  0.12865  0  0.963445  0  0  0.120851  0.124843  0  0.967053  0
H  H17  1  0.37631521  0.52791358  0.40612247  1  0  0.107646  0  0.965505  0  0  0.118423  0  1.02632  0  0  0.121168  0  1.025886  0  0  0.10116  0.116493  0  1.026668  0
H  H18  1  0.62366775  0.47213794  0.59391416  1  0  0.107664  0  0.965776  0  0  0.118312  0  1.026726  0  0  0.121064  0  1.02627  0  0  0.101102  0.116382  0  1.027073  0
H  H19  1  0.63738768  0.26336490  0.37880906  1  0  0.108557  0  0.974615  0  0  0.118924  0  1.036268  0  0  0.121743  0  1.035445  0  0  0.102384  0.116878  0  1.036975  0
H  H20  1  0.36258910  0.73669058  0.62123169  1  0  0.108573  0  0.974369  0  0  0.118929  0  1.036021  0  0  0.121795  0  1.035138  0  0  0.102388  0.116875  0  1.036736  0
C  C21  1  0.32460297  0.91693001  0.32827181  1  0  -0.147688  0  3.679505  0  0  -0.166834  0  3.930799  0  0  -0.173965  0  3.950039  0  0  -0.076875  -0.162288  0  3.918102  0
C  C22  1  0.67540731  0.08303602  0.67170179  1  0  -0.147502  0  3.679605  0  0  -0.166549  0  3.930984  0  0  -0.173665  0  3.950214  0  0  -0.076924  -0.162008  0  3.918296  0
C  C23  1  0.33114484  0.79612333  0.20841326  1  0  0.147166  0  3.669907  0  0  0.11587  0  3.922763  0  0  0.123905  0  3.937799  0  0  0.053323  0.110601  0  3.912838  0
C  C24  1  0.66886520  0.20383465  0.79154952  1  0  0.147121  0  3.670241  0  0  0.115768  0  3.923036  0  0  0.123804  0  3.938088  0  0  0.053506  0.110505  0  3.913096  0
C  C25  1  0.68352462  0.72011256  0.28893556  1  0  0.131094  0  3.69769  0  0  0.101671  0  3.951132  0  0  0.108434  0  3.969016  0  0  0.050679  0.097295  0  3.939007  0
C  C26  1  0.31648440  0.27985612  0.71102674  1  0  0.131144  0  3.697676  0  0  0.101866  0  3.950979  0  0  0.108634  0  3.968868  0  0  0.050668  0.097487  0  3.938837  0
C  C27  1  0.68868633  0.83718214  0.41192673  1  0  -0.164058  0  3.69997  0  0  -0.181663  0  3.94912  0  0  -0.189609  0  3.970771  0  0  -0.084486  -0.17652  0  3.934568  0
C  C28  1  0.31132157  0.16280394  0.58804378  1  0  -0.164046  0  3.699787  0  0  -0.181525  0  3.949036  0  0  -0.189474  0  3.9707  0  0  -0.084452  -0.176377  0  3.934474  0
C  C29  1  0.50339494  0.93839251  0.43510952  1  0  0.085801  0  3.762434  0  0  0.096989  0  3.993526  0  0  0.100783  0  4.015044  0  0  0.011183  0.094617  0  3.978771  0
C  C30  1  0.49660677  0.06158280  0.56486011  1  0  0.085791  0  3.762128  0  0  0.096663  0  3.993474  0  0  0.10044  0  4.015021  0  0  0.011138  0.094284  0  3.97872  0
C  C31  1  0.64438485  0.22225692  0.12488299  1  0  0.667786  0  3.850362  0  0  0.613043  0  4.159107  0  0  0.646218  0  4.151915  0  0  0.208689  0.590647  0  4.163111  0
C  C32  1  0.35562273  0.77774126  0.87512912  1  0  0.668097  0  3.849176  0  0  0.613181  0  4.158396  0  0  0.646356  0  4.151189  0  0  0.208843  0.590776  0  4.162405  0
C  C33  1  0.83874801  0.13921041  0.18454156  1  0  -0.071617  0  3.617445  0  0  -0.12746  0  3.879212  0  0  -0.124217  0  3.879134  0  0  -0.070243  -0.12987  0  3.879403  0
C  C34  1  0.16126653  0.86081597  0.81549157  1  0  -0.071602  0  3.61694  0  0  -0.127663  0  3.879134  0  0  -0.124373  0  3.879047  0  0  -0.07027  -0.130072  0  3.879322  0
C  C35  1  0.01162346  0.38117102  0.37878217  1  0  0.235749  0  3.835065  0  0  0.226755  0  4.098233  0  0  0.236014  0  4.113468  0  0  0.06482  0.220187  0  4.087964  0
C  C36  1  0.98835580  0.61887243  0.62125794  1  0  0.235913  0  3.835534  0  0  0.226951  0  4.098569  0  0  0.236223  0  4.113808  0  0  0.06465  0.220378  0  4.088295  0
C  C37  1  0.21128484  0.51692452  0.44777159  1  0  -0.15789  0  3.76806  0  0  -0.178901  0  4.022022  0  0  -0.181635  0  4.041104  0  0  -0.10888  -0.176987  0  4.009131  0
C  C38  1  0.78868688  0.48310950  0.55227964  1  0  -0.158277  0  3.768235  0  0  -0.179229  0  4.022238  0  0  -0.181965  0  4.041308  0  0  -0.108938  -0.177314  0  4.00935  0
C  C39  1  0.79784295  0.36513504  0.43130028  1  0  -0.196073  0  3.78684  0  0  -0.214603  0  4.039857  0  0  -0.218123  0  4.059569  0  0  -0.116021  -0.21212  0  4.026557  0
C  C40  1  0.20210747  0.63490812  0.56872986  1  0  -0.196553  0  3.787233  0  0  -0.215095  0  4.040302  0  0  -0.21865  0  4.05998  0  0  -0.116175  -0.2126  0  4.027003  0
N  N41  1  0.50615396  0.69712988  0.18817328  1  0  -0.314625  0  3.229087  0  0  -0.238791  0  3.49015  0  0  -0.256181  0  3.505319  0  0  -0.314007  -0.227185  0  3.479917  0
N  N42  1  0.49385169  0.30283208  0.81179281  1  0  -0.314577  0  3.228998  0  0  -0.238849  0  3.490167  0  0  -0.256243  0  3.505334  0  0  -0.314013  -0.227239  0  3.479928  0
O  O43  1  0.04593813  0.26815558  0.26346116  1  0  -0.26759  0  2.361563  0  0  -0.201853  0  2.599364  0  0  -0.217351  0  2.600921  0  0  -0.189103  -0.190794  0  2.598039  0
O  O44  1  0.95404158  0.73189725  0.73657828  1  0  -0.267767  0  2.36174  0  0  -0.201913  0  2.599484  0  0  -0.217443  0  2.601055  0  0  -0.188982  -0.190839  0  2.598147  0
O  O45  1  0.82851094  0.66331386  0.98824368  1  0  -0.836466  0  1.918866  0  0  -0.777045  0  2.140205  0  0  -0.799197  0  2.104733  0  0  -0.581313  -0.761164  0  2.164563  0
O  O46  1  0.17149596  0.33666017  0.01173779  1  0  -0.83677  0  1.91885  0  0  -0.777359  0  2.139956  0  0  -0.799516  0  2.104478  0  0  -0.581424  -0.761478  0  2.16448  0
O  O47  1  0.72375953  0.36204682  0.09509441  1  0  -0.668201  0  2.071691  0  0  -0.590413  0  2.323085  0  0  -0.619825  0  2.311605  0  0  -0.316363  -0.569926  0  2.330307  0
O  O48  1  0.27622788  0.63791362  0.90487659  1  0  -0.668244  0  2.071265  0  0  -0.59045  0  2.322786  0  0  -0.61989  0  2.311365  0  0  -0.316414  -0.569951  0  2.329994  0
O  O49  1  0.42532993  0.14577156  0.10765214  1  0  -0.596646  0  1.984851  0  0  -0.546523  0  2.215339  0  0  -0.571859  0  2.208167  0  0  -0.308414  -0.528723  0  2.219686  0
O  O50  1  0.57468243  0.85426017  0.89239471  1  0  -0.596786  0  1.984421  0  0  -0.546487  0  2.214925  0  0  -0.571817  0  2.207745  0  0  -0.308527  -0.528716  0  2.219334  0
