# generated using pymatgen
data_Co2H18C28N8O9
_symmetry_space_group_name_H-M   'P 1'
_cell_length_a   12.56470481
_cell_length_b   12.58969489
_cell_length_c   13.65433133
_cell_angle_alpha   66.70928796
_cell_angle_beta   66.70644972
_cell_angle_gamma   63.93655715
_symmetry_Int_Tables_number   1
_chemical_formula_structural   Co2H18C28N8O9
_chemical_formula_sum   'Co4 H36 C56 N16 O18'
_cell_volume   1716.61430627
_cell_formula_units_Z   2
loop_
 _symmetry_equiv_pos_site_id
 _symmetry_equiv_pos_as_xyz
  1  'x, y, z'
loop_
 _atom_site_type_symbol
 _atom_site_label
 _atom_site_symmetry_multiplicity
 _atom_site_fract_x
 _atom_site_fract_y
 _atom_site_fract_z
 _atom_site_occupancy
 _atom_site_pbe_bader_charge
 _atom_site_pbe_bader_spin_density
 _atom_site_pbe_cm5_charge
 _atom_site_pbe_ddec_charge
 _atom_site_pbe_ddec_spin_density
 _atom_site_pbe_ddec_sum_bond_order
 _atom_site_pbe_magmom
Co  Co0  1  0.74496574  0.28871302  0.10482102  1  1.300962  2.618751  0.662944  0.936499  2.816104  2.438287  2.602
Co  Co1  1  0.70955096  0.25606035  0.39327137  1  1.296753  2.616828  0.655088  0.928108  2.81402  2.42476  2.6
Co  Co2  1  0.25595057  0.71169091  0.89573551  1  1.301747  2.622837  0.665265  0.940608  2.818022  2.426953  2.605
Co  Co3  1  0.28812973  0.74387235  0.60467708  1  1.303238  2.622602  0.665864  0.94137  2.817998  2.427968  2.605
H  H4  1  0.89985866  0.19068269  0.21796012  1  0.648857  0.000368  0.290911  0.38044  0.000274  0.967103  0.0
H  H5  1  0.81029789  0.10000798  0.28119242  1  0.662975  3.4e-05  0.290066  0.379694  -4.9e-05  0.967851  0.0
H  H6  1  0.10072324  0.80889931  0.78237748  1  0.654116  0.000323  0.28993  0.379347  0.000314  0.969252  0.0
H  H7  1  0.19011087  0.89907818  0.71851523  1  0.64034  0.000328  0.29029  0.380168  0.000318  0.967306  0.0
H  H8  1  0.90145891  0.55724069  0.04063153  1  0.047381  0.000332  0.107462  0.111773  6.7e-05  1.001504  0.0
H  H9  1  0.44423116  0.09838092  0.45818108  1  0.117927  0.000358  0.107497  0.112125  8.1e-05  1.001808  0.0
H  H10  1  0.09866352  0.44317664  0.95873360  1  0.050914  0.000335  0.108043  0.112487  6.1e-05  1.001118  0.0
H  H11  1  0.55572093  0.90120931  0.54129084  1  0.045255  0.000359  0.107698  0.112525  8e-05  1.001766  0.0
H  H12  1  0.60895767  0.89364372  0.21499030  1  0.097379  0.000152  0.11703  0.133404  -1.6e-05  0.994888  0.0
H  H13  1  0.10584052  0.39083025  0.28580690  1  0.099762  0.000192  0.1177  0.134336  2.2e-05  0.99326  0.0
H  H14  1  0.39121380  0.10648212  0.78485310  1  0.096719  0.000236  0.117343  0.133897  5.4e-05  0.993786  0.0
H  H15  1  0.89370893  0.60909637  0.71452327  1  0.099402  0.000195  0.117428  0.134143  3.1e-05  0.993492  0.0
H  H16  1  0.49547325  0.60756232  0.23263385  1  0.119615  0.000868  0.125496  0.125356  0.00029  1.033964  0.0
H  H17  1  0.39324682  0.50412252  0.26734220  1  0.119581  0.000858  0.125345  0.124856  0.000253  1.033208  0.0
H  H18  1  0.50496114  0.39250444  0.76713952  1  0.119006  0.000722  0.125744  0.12551  0.000215  1.033122  0.0
H  H19  1  0.60676709  0.49533701  0.73304256  1  0.11898  0.000801  0.125763  0.12513  0.000243  1.033801  0.0
H  H20  1  0.54667526  0.76197690  0.42824739  1  0.153389  0.000436  0.138517  0.10803  -0.0002  1.00226  0.0
H  H21  1  0.23725058  0.45380690  0.07217066  1  0.148523  0.000439  0.138344  0.108212  -0.000195  1.002676  0.0
H  H22  1  0.45424670  0.23776651  0.57153788  1  0.153684  0.00058  0.138288  0.107801  6.9e-05  1.00157  0.0
H  H23  1  0.76222430  0.54649109  0.92804439  1  0.15047  0.000543  0.138845  0.108269  -7e-06  1.00111  0.0
H  H24  1  0.30716860  0.60868426  0.43092770  1  0.087208  0.000926  0.122391  0.115459  0.000276  0.996407  0.001
H  H25  1  0.39225088  0.69177597  0.06917701  1  0.097745  0.000907  0.122725  0.115942  0.000268  0.995935  0.001
H  H26  1  0.69354266  0.39114250  0.56890112  1  0.087383  0.000911  0.12378  0.117405  0.000186  0.992646  0.001
H  H27  1  0.60764586  0.30789918  0.93155621  1  0.133198  0.000932  0.123773  0.117338  0.000235  0.993498  0.001
H  H28  1  0.88445270  0.96809136  0.88107399  1  0.144548  0.000742  0.124449  0.135401  0.000284  1.030931  0.0
H  H29  1  0.03191712  0.11501046  0.61886903  1  0.14445  0.000633  0.123805  0.13463  0.000235  1.032229  0.0
H  H30  1  0.11628001  0.03173989  0.11897533  1  0.144836  0.000727  0.124353  0.135672  0.00028  1.030606  0.0
H  H31  1  0.96797008  0.88393049  0.38112615  1  0.144978  0.000718  0.124295  0.135154  0.000283  1.030823  0.0
H  H32  1  0.72363908  0.00335102  0.20961967  1  0.159643  0.000407  0.134292  0.111511  -0.000157  1.027882  0.0
H  H33  1  0.99595042  0.27616704  0.29048924  1  0.158025  0.00043  0.134584  0.111746  -2.7e-05  1.027698  0.0
H  H34  1  0.27524773  0.99736503  0.79007656  1  0.19931  0.000457  0.135374  0.11268  -4e-05  1.027282  0.0
H  H35  1  0.00209113  0.72561191  0.71010411  1  0.201877  0.00046  0.135368  0.112522  -3.9e-05  1.028365  0.0
H  H36  1  0.88095056  0.18775510  0.88733113  1  0.125359  0.000816  0.12276  0.120893  0.000227  0.993695  0.001
H  H37  1  0.81137608  0.11915711  0.61249327  1  0.11618  0.000796  0.122734  0.120075  0.000146  0.994242  0.0
H  H38  1  0.11799072  0.81292230  0.11241353  1  0.124078  0.000852  0.12398  0.122208  0.000194  0.992162  0.001
H  H39  1  0.18729858  0.88212204  0.38781574  1  0.125405  0.00086  0.123662  0.121439  0.000198  0.992464  0.001
C  C40  1  0.72652110  0.48472101  0.20735747  1  1.623402  -0.002622  0.211606  0.593987  -0.003927  4.210447  -0.002
C  C41  1  0.51558928  0.27434270  0.29221806  1  1.610169  -0.007824  0.213416  0.594319  -0.010344  4.206873  -0.005
C  C42  1  0.27455149  0.51496631  0.79338419  1  1.608933  -0.004895  0.214629  0.597048  -0.006708  4.207963  -0.003
C  C43  1  0.48465225  0.72485278  0.70665604  1  1.604574  -0.005037  0.215837  0.597408  -0.006925  4.205747  -0.003
C  C44  1  0.73950782  0.60964931  0.16945509  1  -0.031464  0.007528  -0.012221  -0.090377  0.003564  3.950533  0.006
C  C45  1  0.39117138  0.26012894  0.32978066  1  0.008793  0.008184  -0.011867  -0.0919  0.003928  3.953378  0.007
C  C46  1  0.26072415  0.39059807  0.83009402  1  0.038693  0.008568  -0.011838  -0.092075  0.004283  3.951442  0.007
C  C47  1  0.60887571  0.73937717  0.66967048  1  0.017881  0.008565  -0.010726  -0.089611  0.004271  3.952763  0.007
C  C48  1  0.83903833  0.63065182  0.08054364  1  0.071464  0.005494  -0.081387  -0.108818  0.002662  3.974785  0.003
C  C49  1  0.37037337  0.16052464  0.41858882  1  -0.096206  0.004785  -0.081135  -0.108871  0.002255  3.973958  0.003
C  C50  1  0.16103973  0.36966693  0.91892060  1  0.011463  0.005107  -0.080411  -0.107176  0.002438  3.973835  0.003
C  C51  1  0.62956956  0.83907298  0.58091670  1  0.042775  0.005321  -0.081075  -0.109113  0.002588  3.971703  0.003
C  C52  1  0.65879445  0.70536323  0.21929714  1  0.348786  0.005919  0.098867  0.157156  0.003078  4.009272  0.004
C  C53  1  0.29488750  0.34099045  0.28047241  1  0.303466  0.005444  0.098558  0.156842  0.002845  4.00928  0.004
C  C54  1  0.34148953  0.29479270  0.78032865  1  0.334531  0.005796  0.099225  0.158739  0.003063  4.006916  0.004
C  C55  1  0.70483149  0.65868411  0.71941048  1  0.330525  0.005762  0.098949  0.156554  0.00305  4.009505  0.004
C  C56  1  0.86345799  0.74006066  0.04356940  1  0.000298  0.002855  -0.010024  -0.086751  0.000809  3.955997  0.002
C  C57  1  0.26060896  0.13617616  0.45607544  1  0.041881  0.003521  -0.009373  -0.086922  0.001388  3.950221  0.003
C  C58  1  0.13662431  0.26023285  0.95617130  1  0.019612  0.003835  -0.009193  -0.087191  0.001612  3.954167  0.003
C  C59  1  0.73927464  0.86341625  0.54366019  1  0.010031  0.003725  -0.008343  -0.084758  0.001565  3.951813  0.003
C  C60  1  0.67756788  0.81803871  0.18019476  1  -0.012644  -0.001444  -0.088701  -0.25154  -0.00171  3.963756  -0.001
C  C61  1  0.18201468  0.32209923  0.31990496  1  0.045841  -0.000674  -0.088049  -0.25066  -0.00086  3.962101  -0.001
C  C62  1  0.32256265  0.18216278  0.81955318  1  -0.014123  -0.000387  -0.088188  -0.251425  -0.000615  3.963184  -0.001
C  C63  1  0.81766871  0.67758036  0.68013264  1  -0.007022  -0.000526  -0.088462  -0.251289  -0.000753  3.96552  -0.001
C  C64  1  0.98143807  0.74570286  0.95496671  1  1.60922  -0.000416  0.211004  0.586109  -0.001285  4.232269  0.0
C  C65  1  0.25465691  0.01857602  0.54523688  1  1.5969  -0.000336  0.209894  0.585886  -0.0012  4.233796  0.0
C  C66  1  0.01910249  0.25432222  0.04558141  1  1.600981  -0.0006  0.210552  0.586526  -0.001617  4.231903  0.0
C  C67  1  0.74606465  0.98084855  0.45464075  1  1.603412  0.000311  0.20885  0.582669  -0.000484  4.237601  0.0
C  C68  1  0.78077301  0.83544422  0.09346284  1  0.328087  0.005744  0.101865  0.16192  0.002972  3.988835  0.004
C  C69  1  0.16479421  0.21887084  0.40641637  1  0.333302  0.005223  0.102418  0.16359  0.002744  3.985171  0.004
C  C70  1  0.21933156  0.16480911  0.90629394  1  0.318069  0.005492  0.102187  0.16276  0.002886  3.986807  0.004
C  C71  1  0.83481411  0.78074259  0.59357910  1  0.313161  0.00545  0.101267  0.16126  0.002855  3.989418  0.004
C  C72  1  0.47579436  0.63878274  0.30313350  1  0.26205  0.003941  -0.002488  -0.109175  0.001856  3.93443  0.003
C  C73  1  0.36151943  0.52382384  0.19709490  1  0.272309  0.003781  -0.001848  -0.106675  0.001692  3.933752  0.003
C  C74  1  0.52494397  0.36097027  0.69673876  1  0.266636  0.003694  -0.001992  -0.10846  0.001881  3.930127  0.002
C  C75  1  0.63815113  0.47582174  0.80343220  1  0.284258  0.003302  -0.001417  -0.106696  0.001614  3.929671  0.002
C  C76  1  0.50500345  0.72171194  0.40259497  1  0.979388  -0.006179  0.148517  0.11803  -0.007823  3.866674  -0.004
C  C77  1  0.27797555  0.49510540  0.09771929  1  0.982854  -0.005955  0.147641  0.116322  -0.007567  3.8704  -0.003
C  C78  1  0.49586121  0.27796318  0.59733507  1  0.983965  0.001807  0.149598  0.11815  0.001033  3.868179  0.002
C  C79  1  0.72146592  0.50510771  0.90259832  1  0.983446  -0.000874  0.149363  0.118313  -0.001697  3.868753  0.0
C  C80  1  0.38478901  0.64038453  0.40061285  1  0.471856  -0.000506  0.00069  -0.030544  -0.001082  4.016127  0.0
C  C81  1  0.36008627  0.61459577  0.09961456  1  0.447197  -0.000346  0.001042  -0.029702  -0.000958  4.013409  0.0
C  C82  1  0.61594562  0.35939402  0.59932394  1  0.470347  -0.000165  0.004238  -0.023331  -0.001175  4.006169  0.0
C  C83  1  0.63959088  0.38524333  0.90102174  1  0.41114  0.00033  0.00201  -0.027844  -0.000434  4.009236  0.0
C  C84  1  0.85194570  0.00845551  0.94877724  1  0.288072  0.003764  -0.005985  -0.108714  0.001859  3.907347  0.003
C  C85  1  0.99121180  0.14787032  0.55124291  1  0.289931  0.003109  -0.006671  -0.109963  0.001693  3.904172  0.002
C  C86  1  0.14804377  0.99172700  0.05116758  1  0.284684  0.003372  -0.004908  -0.107771  0.001774  3.903  0.002
C  C87  1  0.00821271  0.85199599  0.44890667  1  0.274202  0.003412  -0.004466  -0.10747  0.001817  3.903906  0.002
C  C88  1  0.76316889  0.02706288  0.12076480  1  0.977065  -0.005789  0.14324  0.108636  -0.007299  3.868069  -0.003
C  C89  1  0.97233648  0.23687063  0.37936912  1  0.982931  0.00092  0.144684  0.110043  0.000147  3.868109  0.001
C  C90  1  0.23587782  0.97365329  0.87896526  1  0.948901  -7.8e-05  0.145563  0.111044  -0.000807  3.867011  0.0
C  C91  1  0.02598251  0.76471214  0.62119463  1  0.939225  0.000175  0.144856  0.110519  -0.00055  3.868933  0.001
C  C92  1  0.84795205  0.11689147  0.95325109  1  0.381352  -0.000352  -0.003307  -0.032033  -0.00091  4.029239  0.0
C  C93  1  0.88247334  0.15215374  0.54675591  1  0.39148  0.000176  -0.001947  -0.028075  -0.000792  4.027146  0.0
C  C94  1  0.15114106  0.88375849  0.04656899  1  0.393773  0.000492  -0.002121  -0.029553  -0.000289  4.024905  0.0
C  C95  1  0.11620502  0.84914159  0.45361541  1  0.401733  0.000513  -0.002346  -0.028729  -0.000273  4.026187  0.0
N  N96  1  0.79191919  0.12789068  0.06051201  1  -1.196714  0.056642  -0.347983  -0.308372  0.030217  3.586688  0.048
N  N97  1  0.87120438  0.20843977  0.43969237  1  -1.199018  0.054306  -0.344973  -0.302781  0.028645  3.570286  0.045
N  N98  1  0.20657411  0.87308054  0.93918925  1  -1.205592  0.057784  -0.347626  -0.308462  0.030929  3.585058  0.047
N  N99  1  0.12672182  0.79405574  0.56103928  1  -1.198914  0.057749  -0.348003  -0.308726  0.030917  3.588595  0.047
N  N100  1  0.69199951  0.40440891  0.96181021  1  -1.192199  0.056791  -0.344335  -0.284524  0.030255  3.572797  0.047
N  N101  1  0.59700294  0.30713084  0.53838969  1  -1.188709  0.05495  -0.34375  -0.285219  0.029085  3.563884  0.044
N  N102  1  0.30752887  0.59575768  0.03872042  1  -1.1845  0.056804  -0.344977  -0.285106  0.030242  3.578466  0.047
N  N103  1  0.40396111  0.69251153  0.46155410  1  -1.190505  0.057075  -0.346039  -0.286062  0.03036  3.579422  0.047
N  N104  1  0.55171731  0.69060135  0.30502890  1  -1.264047  0.001528  -0.227796  0.009889  0.00018  3.809444  0.001
N  N105  1  0.30924222  0.44830342  0.19525528  1  -1.261395  0.001341  -0.227649  0.009608  4.3e-05  3.809662  0.001
N  N106  1  0.44896970  0.30911923  0.69482782  1  -1.254349  0.00421  -0.226205  0.010144  0.001822  3.807569  0.002
N  N107  1  0.69031382  0.55158988  0.80507881  1  -1.248625  0.003774  -0.226414  0.010469  0.001691  3.806712  0.002
N  N108  1  0.79819495  0.95083036  0.05623524  1  -1.255444  0.00146  -0.222658  0.009319  0.000124  3.77491  0.001
N  N109  1  0.04900049  0.20162462  0.44371297  1  -1.253097  0.003745  -0.222821  0.007942  0.001634  3.770776  0.002
N  N110  1  0.20173063  0.04941457  0.94359218  1  -1.256941  0.00371  -0.221815  0.009774  0.00161  3.770922  0.002
N  N111  1  0.95034768  0.79844942  0.55644127  1  -1.252785  0.003848  -0.221041  0.011727  0.001684  3.771531  0.002
O  O112  1  0.92597561  0.28890142  0.01119511  1  -1.145982  0.059437  -0.305493  -0.549738  0.031164  2.329686  0.05
O  O113  1  0.71397870  0.07244948  0.48991080  1  -1.147443  0.05277  -0.303786  -0.548351  0.027395  2.322093  0.044
O  O114  1  0.07370263  0.71138765  0.99034775  1  -1.148661  0.054911  -0.304598  -0.549911  0.028486  2.325159  0.046
O  O115  1  0.28920941  0.92614953  0.51026051  1  -1.146654  0.054561  -0.304573  -0.550651  0.028285  2.323141  0.046
O  O116  1  0.81264519  0.18744166  0.24935659  1  -1.282359  0.097389  -0.560673  -0.799737  0.052383  2.412197  0.082
O  O117  1  0.18824480  0.81160325  0.75013326  1  -1.264987  0.094129  -0.562228  -0.803046  0.050863  2.399793  0.078
O  O118  1  0.71955742  0.45223040  0.13406226  1  -1.162033  0.05113  -0.304466  -0.561959  0.025962  2.368919  0.046
O  O119  1  0.54872895  0.27826837  0.36694423  1  -1.163868  0.051963  -0.308618  -0.563551  0.026947  2.382141  0.045
O  O120  1  0.27830804  0.54746085  0.86838176  1  -1.162173  0.047716  -0.305508  -0.561936  0.024316  2.354  0.042
O  O121  1  0.45233396  0.72001632  0.63208001  1  -1.162729  0.048096  -0.307226  -0.562009  0.024512  2.359973  0.042
O  O122  1  0.57488029  0.27888462  0.19173550  1  -1.151465  0.078406  -0.307747  -0.548776  0.040523  2.380697  0.067
O  O123  1  0.72679202  0.42530045  0.30736132  1  -1.158964  0.065406  -0.31188  -0.557343  0.033385  2.354526  0.056
O  O124  1  0.42519745  0.72093679  0.80715707  1  -1.159426  0.07933  -0.311579  -0.554858  0.040944  2.38054  0.067
O  O125  1  0.27868577  0.57438779  0.69290111  1  -1.161347  0.078391  -0.311438  -0.555133  0.040406  2.376761  0.066
O  O126  1  0.97890202  0.78045951  0.85457787  1  -1.18276  0.001897  -0.324695  -0.56014  0.000362  2.17422  0.001
O  O127  1  0.21923358  0.02157998  0.64552338  1  -1.172859  0.001941  -0.32491  -0.561149  0.000389  2.17128  0.002
O  O128  1  0.02251623  0.21901626  0.14565715  1  -1.173171  0.002054  -0.322101  -0.557154  0.000348  2.171944  0.002
O  O129  1  0.78064340  0.97827867  0.35433045  1  -1.175069  0.003294  -0.323698  -0.558963  0.001159  2.174076  0.003
