# generated using pymatgen
data_Zn2NiH14(C3O4)4
_symmetry_space_group_name_H-M   'P 1'
_cell_length_a   6.65155244
_cell_length_b   6.92075269
_cell_length_c   9.68562981
_cell_angle_alpha   85.23557612
_cell_angle_beta   77.80292884
_cell_angle_gamma   81.13403926
_symmetry_Int_Tables_number   1
_chemical_formula_structural   Zn2NiH14(C3O4)4
_chemical_formula_sum   'Zn2 Ni1 H14 C12 O16'
_cell_volume   430.00504016
_cell_formula_units_Z   1
loop_
 _symmetry_equiv_pos_site_id
 _symmetry_equiv_pos_as_xyz
  1  'x, y, z'
loop_
 _atom_site_type_symbol
 _atom_site_label
 _atom_site_symmetry_multiplicity
 _atom_site_fract_x
 _atom_site_fract_y
 _atom_site_fract_z
 _atom_site_occupancy
 _atom_site_hle17_ddec_charge
 _atom_site_hle17_ddec_spin_density
 _atom_site_hle17_ddec_sum_bond_order
 _atom_site_hle17_magmom
 _atom_site_hse06_10hf_ddec_charge
 _atom_site_hse06_10hf_ddec_spin_density
 _atom_site_hse06_10hf_ddec_sum_bond_order
 _atom_site_hse06_10hf_magmom
 _atom_site_hse06_ddec_charge
 _atom_site_hse06_ddec_spin_density
 _atom_site_hse06_ddec_sum_bond_order
 _atom_site_hse06_magmom
 _atom_site_pbe_cm5_charge
 _atom_site_pbe_ddec_charge
 _atom_site_pbe_ddec_spin_density
 _atom_site_pbe_ddec_sum_bond_order
 _atom_site_pbe_magmom
Zn  Zn0  1  0.94437837  0.77177122  0.83373198  1  1.162935  -4.9e-05  1.663367  0.0  0.98381  0.000237  2.128306  0.0  1.036146  0.000182  2.063489  0.0  0.687918  0.946395  0.000564  2.173991  0.0
Zn  Zn1  1  0.05562251  0.22823224  0.16626771  1  1.162944  -4.9e-05  1.663317  0.0  0.983836  0.000238  2.128259  0.0  1.03617  0.000182  2.063435  0.0  0.687931  0.946412  0.000564  2.173943  0.0
Ni  Ni2  1  0.49999776  0.99999902  0.49999965  1  0.901368  0.043116  1.952801  0.037  0.927158  0.004125  2.340855  0.003  1.024008  0.001726  2.259934  0.001  0.607849  0.853394  -0.003557  2.406108  -0.004
H  H3  1  0.70323069  0.77957431  0.30888328  1  0.39111  -0.00028  0.878495  -0.001  0.365851  -4.6e-05  0.947874  0.0  0.377909  1.2e-05  0.935966  0.0  0.308073  0.357378  -0.000171  0.955997  0.0
H  H4  1  0.29676887  0.22042767  0.69111461  1  0.391175  -0.000282  0.878457  -0.001  0.365885  -4.7e-05  0.947878  0.0  0.377942  1.2e-05  0.935969  0.0  0.308092  0.357415  -0.000171  0.956003  0.0
H  H5  1  0.21188935  0.95448908  0.89290745  1  0.435833  -1e-06  0.864131  0.0  0.402664  -1.4e-05  0.931067  0.0  0.413044  -9e-06  0.916115  0.0  0.30042  0.395318  -1.2e-05  0.941677  0.0
H  H6  1  0.78811374  0.04550999  0.10709424  1  0.43582  -6e-06  0.864147  0.0  0.402642  -1.4e-05  0.931098  0.0  0.413022  -9e-06  0.916146  0.0  0.300421  0.395294  -1.2e-05  0.94171  0.0
H  H7  1  0.15562553  0.81228177  0.02486699  1  0.441494  8.5e-05  0.831358  0.0  0.409693  9.5e-05  0.907964  0.0  0.419865  5.5e-05  0.893069  0.0  0.308973  0.402216  0.00018  0.918728  0.0
H  H8  1  0.84437426  0.18771875  0.97513405  1  0.441483  8.9e-05  0.831387  0.0  0.409675  9.5e-05  0.907994  0.0  0.419848  5.5e-05  0.893098  0.0  0.308962  0.402199  0.00018  0.918771  0.0
H  H9  1  0.12016553  0.62789289  0.38016816  1  0.157173  -0.000134  0.906551  0.0  0.16969  -0.000223  0.960119  0.0  0.173582  -0.000137  0.958156  0.0  0.117655  0.166818  -0.000235  0.961706  0.0
H  H10  1  0.87983448  0.37210616  0.61983397  1  0.157174  -0.000147  0.906548  0.0  0.169677  -0.000223  0.960127  0.0  0.173565  -0.000137  0.958166  0.0  0.117648  0.166805  -0.000235  0.961717  0.0
H  H11  1  0.31849757  0.47941313  0.44756616  1  0.155664  0.000114  0.924355  0.0  0.166681  6.1e-05  0.982189  0.0  0.170448  5.9e-05  0.980269  0.0  0.116513  0.163806  2.1e-05  0.983808  0.0
H  H12  1  0.68150552  0.52058594  0.55243449  1  0.15566  0.000102  0.924388  0.0  0.166694  6.1e-05  0.982193  0.0  0.17046  5.9e-05  0.980271  0.0  0.116512  0.163828  2.1e-05  0.983799  0.0
H  H13  1  0.56421193  0.45425303  0.22849400  1  0.153424  0.000287  0.908716  0.0  0.166488  0.000158  0.96619  0.0  0.169295  0.000105  0.965251  0.0  0.116582  0.164472  0.000191  0.967007  0.0
H  H14  1  0.43578917  0.54574896  0.77150367  1  0.153396  0.000242  0.90875  0.0  0.16646  0.000158  0.966229  0.0  0.169265  0.000105  0.965294  0.0  0.116562  0.164443  0.000191  0.967039  0.0
H  H15  1  0.39311403  0.59005536  0.13138928  1  0.15246  0.000603  0.940473  0.001  0.163501  -5e-06  0.998566  0.0  0.167186  -8e-06  0.996512  0.0  0.113239  0.160913  -0.000266  1.000091  0.0
H  H16  1  0.60688684  0.40994809  0.86860937  1  0.152476  0.000561  0.940456  0.001  0.163524  -4e-06  0.998542  0.0  0.167209  -8e-06  0.996486  0.0  0.113249  0.160935  -0.000266  1.000069  0.0
C  C17  1  0.18264925  0.72496859  0.56808309  1  0.732825  0.002706  3.761471  0.004  0.687372  -0.001405  4.062542  -0.001  0.725069  -0.00095  4.054958  0.0  0.222828  0.660685  -0.000743  4.067259  0.0
C  C18  1  0.81734840  0.27501581  0.43191611  1  0.732909  0.00264  3.761536  0.004  0.687542  -0.001404  4.062482  -0.001  0.725235  -0.000949  4.054894  0.0  0.222921  0.66086  -0.000743  4.067211  0.0
C  C19  1  0.25696703  0.63320997  0.42606016  1  -0.35483  -0.000903  3.593274  -0.001  -0.393899  -8.5e-05  3.830361  0.0  -0.40258  4.2e-05  3.836077  0.0  -0.161808  -0.387641  -0.000153  3.826508  0.0
C  C20  1  0.74303276  0.36679055  0.57394088  1  -0.35478  -0.000824  3.593193  -0.001  -0.393857  -8.7e-05  3.830234  0.0  -0.402524  4.1e-05  3.835925  0.0  -0.161764  -0.387611  -0.000153  3.826384  0.0
C  C21  1  0.42072735  0.73060500  0.31973029  1  0.253979  0.000875  3.576108  0.0  0.251125  0.000962  3.824155  0.001  0.255332  0.000842  3.837706  0.001  0.068992  0.248143  0.000512  3.814398  0.002
C  C22  1  0.57927245  0.26939552  0.68026766  1  0.25399  0.000773  3.576061  0.0  0.251113  0.000963  3.824133  0.001  0.255322  0.00084  3.837677  0.001  0.069005  0.248125  0.000512  3.814384  0.002
C  C23  1  0.32468269  0.93811342  0.27436956  1  0.594188  -0.002099  3.821731  -0.002  0.546678  0.000545  4.12232  -0.001  0.581003  0.000168  4.118512  -0.001  0.209725  0.522476  0.000424  4.124531  -0.002
C  C24  1  0.67531818  0.06189003  0.72563012  1  0.594279  -0.002061  3.821674  -0.002  0.546737  0.000545  4.122306  -0.001  0.581061  0.000167  4.118497  -0.001  0.209741  0.522534  0.000424  4.124523  -0.002
C  C25  1  0.51120120  0.60477628  0.19193662  1  -0.366583  -0.000793  3.609866  -0.001  -0.409418  -0.00128  3.850784  -0.001  -0.41713  -0.000925  3.856804  -0.001  -0.165535  -0.403809  -0.002211  3.846252  -0.002
C  C26  1  0.48879792  0.39522863  0.80806116  1  -0.366616  -0.000549  3.60983  -0.001  -0.409472  -0.001281  3.850732  -0.001  -0.417185  -0.000923  3.856749  -0.001  -0.16556  -0.403855  -0.002211  3.846184  -0.002
C  C27  1  0.69368548  0.68308459  0.09381271  1  0.733375  0.000162  3.779947  0.0  0.677909  0.0001  4.08485  0.0  0.712526  6.6e-05  4.076863  0.0  0.223334  0.654343  3.1e-05  4.08959  0.0
C  C28  1  0.30631143  0.31692471  0.90618617  1  0.73338  0.000114  3.780178  0.0  0.67801  0.0001  4.084956  0.0  0.71263  6.6e-05  4.076965  0.0  0.223361  0.654444  3.1e-05  4.089691  0.0
O  O29  1  0.05744515  0.63161873  0.65970248  1  -0.640689  -0.012428  2.008051  -0.013  -0.565792  -0.005329  2.273096  -0.006  -0.596666  -0.003439  2.257033  -0.004  -0.315354  -0.544022  -0.003449  2.283893  -0.004
O  O30  1  0.94254851  0.36837151  0.34030418  1  -0.640683  -0.01241  2.008096  -0.013  -0.565872  -0.005328  2.273184  -0.006  -0.596752  -0.003438  2.257126  -0.004  -0.315367  -0.544086  -0.003449  2.283968  -0.004
O  O31  1  0.23745673  0.88192977  0.59737152  1  -0.60405  -0.077738  2.040958  -0.081  -0.5758  -0.03632  2.307001  -0.039  -0.614027  -0.028779  2.295648  -0.031  -0.305611  -0.547591  -0.02188  2.314865  -0.023
O  O32  1  0.76254111  0.11806342  0.40262508  1  -0.604171  -0.077705  2.041119  -0.081  -0.575956  -0.036318  2.307151  -0.039  -0.614183  -0.028778  2.295798  -0.031  -0.305724  -0.547747  -0.021878  2.31502  -0.023
O  O33  1  0.20522027  0.95223934  0.18472665  1  -0.637628  0.00443  2.072721  0.005  -0.562618  0.005776  2.334738  0.006  -0.592023  0.003692  2.319642  0.004  -0.310412  -0.541989  0.007599  2.345126  0.008
O  O34  1  0.79477929  0.04776265  0.81527124  1  -0.637635  0.00444  2.072805  0.005  -0.562621  0.005776  2.334861  0.006  -0.592029  0.003694  2.319769  0.004  -0.310394  -0.541978  0.007599  2.345218  0.008
O  O35  1  0.36156479  0.08423450  0.32981497  1  -0.550605  0.02871  2.065507  0.032  -0.529946  0.050429  2.333084  0.054  -0.566373  0.040766  2.323739  0.045  -0.291177  -0.50349  0.060571  2.339762  0.064
O  O36  1  0.63843215  0.91576454  0.67018451  1  -0.550674  0.028692  2.065394  0.032  -0.529999  0.050433  2.332974  0.054  -0.566431  0.040767  2.323634  0.045  -0.29121  -0.50354  0.060577  2.339645  0.064
O  O37  1  0.78901518  0.80206153  0.14065188  1  -0.654463  8.6e-05  2.015181  0.0  -0.590437  -3e-06  2.237643  0.0  -0.615713  5e-06  2.226056  0.0  -0.308355  -0.572873  -3.7e-05  2.245372  0.0
O  O38  1  0.21098791  0.19793754  0.85934981  1  -0.654569  7.4e-05  2.015246  0.0  -0.590583  -3e-06  2.237694  0.0  -0.61586  5e-06  2.226105  0.0  -0.308421  -0.573024  -3.7e-05  2.245428  0.0
O  O39  1  0.74657080  0.62418679  0.96801894  1  -0.629045  3.3e-05  2.025931  0.0  -0.548204  -2.9e-05  2.286524  0.0  -0.578105  -1.7e-05  2.271105  0.0  -0.306077  -0.527562  -2.1e-05  2.297018  0.0
O  O40  1  0.25342611  0.37582251  0.03197788  1  -0.629044  4.8e-05  2.026093  0.0  -0.548214  -2.9e-05  2.286606  0.0  -0.578118  -1.8e-05  2.271187  0.0  -0.306052  -0.52757  -2.1e-05  2.297097  0.0
O  O41  1  0.58728540  0.75046339  0.39093392  1  -0.556723  0.034854  2.155255  0.038  -0.521473  -0.015655  2.403602  -0.017  -0.551222  -0.012572  2.393198  -0.014  -0.370975  -0.498721  -0.03919  2.410244  -0.042
O  O42  1  0.41271394  0.24954006  0.60906599  1  -0.556759  0.034862  2.155313  0.038  -0.521451  -0.015651  2.403644  -0.017  -0.551196  -0.012569  2.39323  -0.014  -0.370968  -0.498703  -0.039186  2.410294  -0.042
O  O43  1  0.18418251  0.81758552  0.92082495  1  -0.820494  -0.000121  1.929675  0.0  -0.757428  -3.8e-05  2.162483  0.0  -0.779537  -2.3e-05  2.125789  0.0  -0.562883  -0.741945  4.6e-05  2.188323  0.0
O  O44  1  0.81581881  0.18241500  0.07917587  1  -0.820473  -0.000119  1.929699  0.0  -0.757379  -3.8e-05  2.162461  0.0  -0.779485  -2.3e-05  2.125765  0.0  -0.562859  -0.741893  4.6e-05  2.188313  0.0
