# generated using pymatgen
data_CdH6(C5N6)2
_symmetry_space_group_name_H-M   'P 1'
_cell_length_a   6.51267086
_cell_length_b   6.51268083
_cell_length_c   17.05061823
_cell_angle_alpha   101.00755067
_cell_angle_beta   101.00742473
_cell_angle_gamma   89.98809729
_symmetry_Int_Tables_number   1
_chemical_formula_structural   CdH6(C5N6)2
_chemical_formula_sum   'Cd2 H12 C20 N24'
_cell_volume   696.34198988
_cell_formula_units_Z   2
loop_
 _symmetry_equiv_pos_site_id
 _symmetry_equiv_pos_as_xyz
  1  'x, y, z'
loop_
 _atom_site_type_symbol
 _atom_site_label
 _atom_site_symmetry_multiplicity
 _atom_site_fract_x
 _atom_site_fract_y
 _atom_site_fract_z
 _atom_site_occupancy
 _atom_site_hle17_bader_spin_density
 _atom_site_hle17_ddec_charge
 _atom_site_hle17_ddec_spin_density
 _atom_site_hle17_ddec_sum_bond_order
 _atom_site_hle17_magmom
 _atom_site_hse06_10hf_bader_spin_density
 _atom_site_hse06_10hf_ddec_charge
 _atom_site_hse06_10hf_ddec_spin_density
 _atom_site_hse06_10hf_ddec_sum_bond_order
 _atom_site_hse06_10hf_magmom
 _atom_site_hse06_bader_spin_density
 _atom_site_hse06_ddec_charge
 _atom_site_hse06_ddec_spin_density
 _atom_site_hse06_ddec_sum_bond_order
 _atom_site_hse06_magmom
 _atom_site_pbe_bader_spin_density
 _atom_site_pbe_cm5_charge
 _atom_site_pbe_ddec_charge
 _atom_site_pbe_ddec_spin_density
 _atom_site_pbe_ddec_sum_bond_order
 _atom_site_pbe_magmom
Cd  Cd0  1  0.12501497  0.87498571  0.24999994  1  0  0.974089  0  1.868534  0  0  0.726473  0  2.343143  0  0  0.782461  0  2.300261  0  0  0.798501  0.686559  0  2.372536  0
Cd  Cd1  1  0.87498463  0.12501630  0.75000022  1  0  0.974092  0  1.868554  0  0  0.726486  0  2.343149  0  0  0.782473  0  2.300266  0  0  0.798508  0.686573  0  2.372542  0
H  H2  1  0.24033107  0.82158974  0.48069131  1  0  0.081724  0  0.954641  0  0  0.08309  0  1.032887  0  0  0.086091  0  1.028519  0  0  0.118927  0.080729  0  1.036295  0
H  H3  1  0.15892884  0.24027523  0.98069878  1  0  0.08192  0  0.955525  0  0  0.083318  0  1.033493  0  0  0.086311  0  1.029149  0  0  0.119211  0.080964  0  1.036893  0
H  H4  1  0.82158896  0.24033103  0.98069101  1  0  0.081749  0  0.954617  0  0  0.083109  0  1.03287  0  0  0.08611  0  1.028501  0  0  0.118935  0.080747  0  1.036277  0
H  H5  1  0.84107367  0.75972052  0.01930230  1  0  0.081913  0  0.955521  0  0  0.083309  0  1.033507  0  0  0.086303  0  1.029162  0  0  0.119193  0.080954  0  1.036907  0
H  H6  1  0.24027562  0.15893091  0.48069831  1  0  0.081945  0  0.955514  0  0  0.083324  0  1.033508  0  0  0.086318  0  1.029161  0  0  0.11923  0.08097  0  1.036909  0
H  H7  1  0.75972398  0.84107110  0.51930125  1  0  0.081927  0  0.955518  0  0  0.083321  0  1.033488  0  0  0.086315  0  1.029145  0  0  0.119214  0.080968  0  1.036888  0
H  H8  1  0.75966853  0.17841227  0.51930884  1  0  0.081732  0  0.954638  0  0  0.083094  0  1.03289  0  0  0.086095  0  1.028521  0  0  0.118934  0.080733  0  1.036298  0
H  H9  1  0.17841377  0.75967097  0.01930879  1  0  0.081745  0  0.954635  0  0  0.083103  0  1.03289  0  0  0.086104  0  1.028521  0  0  0.11894  0.080742  0  1.036296  0
H  H10  1  0.28020269  0.53021019  0.56057926  1  0  0.125095  0  0.920168  0  0  0.137227  0  0.967238  0  0  0.140757  0  0.967629  0  0  0.114585  0.134675  0  0.967211  0
H  H11  1  0.53020833  0.28020367  0.06057905  1  0  0.12511  0  0.920142  0  0  0.137241  0  0.967215  0  0  0.140771  0  0.967608  0  0  0.114586  0.134688  0  0.967188  0
H  H12  1  0.46979435  0.71979677  0.93942180  1  0  0.125048  0  0.92019  0  0  0.137174  0  0.967266  0  0  0.140704  0  0.967662  0  0  0.114579  0.13462  0  0.967239  0
H  H13  1  0.71979529  0.46979025  0.43942066  1  0  0.125091  0  0.920171  0  0  0.137226  0  0.967242  0  0  0.140756  0  0.967635  0  0  0.114585  0.134674  0  0.967215  0
C  C14  1  0.12126318  0.37135474  0.24280336  1  0  0.210634  0  3.813659  0  0  0.182164  0  4.070943  0  0  0.191346  0  4.087786  0  0  0.211338  0.176056  0  4.059347  0
C  C15  1  0.37135289  0.12126294  0.74280312  1  0  0.210634  0  3.813619  0  0  0.182158  0  4.070912  0  0  0.191343  0  4.087755  0  0  0.211338  0.176047  0  4.05931  0
C  C16  1  0.62864671  0.87873907  0.25719703  1  0  0.210652  0  3.813624  0  0  0.182206  0  4.070944  0  0  0.191391  0  4.08779  0  0  0.211347  0.176073  0  4.05933  0
C  C17  1  0.87873643  0.62864727  0.75719679  1  0  0.210642  0  3.813666  0  0  0.182174  0  4.07102  0  0  0.191361  0  4.087865  0  0  0.211347  0.176039  0  4.059406  0
C  C18  1  0.16575069  0.41579754  0.33174363  1  0  0.315954  0  3.80168  0  0  0.304379  0  4.050393  0  0  0.317727  0  4.062999  0  0  0.244331  0.295366  0  4.04188  0
C  C19  1  0.41579675  0.16575113  0.83174351  1  0  0.316032  0  3.80166  0  0  0.304459  0  4.050383  0  0  0.317797  0  4.063005  0  0  0.244332  0.295461  0  4.041844  0
C  C20  1  0.58420436  0.83424931  0.16825664  1  0  0.316048  0  3.801665  0  0  0.304355  0  4.050564  0  0  0.31769  0  4.063196  0  0  0.244296  0.295427  0  4.041927  0
C  C21  1  0.83424891  0.58420447  0.66825653  1  0  0.31608  0  3.801693  0  0  0.304388  0  4.050601  0  0  0.317717  0  4.063242  0  0  0.244329  0.295463  0  4.041964  0
C  C22  1  0.22501040  0.65795733  0.45013981  1  0  0.18245  0  3.68651  0  0  0.146007  0  3.957051  0  0  0.155856  0  3.971579  0  0  0.068121  0.139767  0  3.947131  0
C  C23  1  0.29203968  0.22502293  0.95014997  1  0  0.181972  0  3.683825  0  0  0.145643  0  3.954477  0  0  0.155475  0  3.969041  0  0  0.067788  0.139444  0  3.94444  0
C  C24  1  0.65795533  0.22501016  0.95013889  1  0  0.182428  0  3.68656  0  0  0.145996  0  3.957093  0  0  0.155846  0  3.971621  0  0  0.068139  0.139756  0  3.94717  0
C  C25  1  0.70796277  0.77497126  0.04985099  1  0  0.18201  0  3.68373  0  0  0.145657  0  3.95438  0  0  0.155491  0  3.968941  0  0  0.067832  0.13946  0  3.944341  0
C  C26  1  0.22502383  0.29204179  0.45015020  1  0  0.181955  0  3.683791  0  0  0.145657  0  3.954387  0  0  0.155486  0  3.968959  0  0  0.067826  0.139457  0  3.944358  0
C  C27  1  0.77497577  0.70796022  0.54984995  1  0  0.181958  0  3.683815  0  0  0.145639  0  3.954464  0  0  0.155476  0  3.969013  0  0  0.067794  0.13944  0  3.944433  0
C  C28  1  0.77498915  0.34204311  0.54986022  1  0  0.182447  0  3.686504  0  0  0.146013  0  3.957033  0  0  0.155863  0  3.971558  0  0  0.068128  0.13977  0  3.947119  0
C  C29  1  0.34204422  0.77499028  0.04985997  1  0  0.182456  0  3.686505  0  0  0.146021  0  3.957015  0  0  0.155873  0  3.971542  0  0  0.068144  0.139779  0  3.947098  0
C  C30  1  0.24709567  0.49707440  0.49425588  1  0  -0.174366  0  3.713904  0  0  -0.185927  0  3.966811  0  0  -0.196641  0  3.989329  0  0  -0.080628  -0.179134  0  3.951705  0
C  C31  1  0.49707386  0.24709529  0.99425572  1  0  -0.174374  0  3.713912  0  0  -0.185932  0  3.966836  0  0  -0.196645  0  3.989351  0  0  -0.080627  -0.179138  0  3.951725  0
C  C32  1  0.50292864  0.75290046  0.00574477  1  0  -0.174351  0  3.713965  0  0  -0.185875  0  3.966859  0  0  -0.196586  0  3.989369  0  0  -0.080664  -0.179082  0  3.95175  0
C  C33  1  0.75290388  0.50292605  0.50574416  1  0  -0.174344  0  3.713903  0  0  -0.185909  0  3.966822  0  0  -0.196621  0  3.989338  0  0  -0.08062  -0.179116  0  3.951718  0
N  N34  1  0.09791829  0.51678797  0.19597964  1  0  -0.301531  0  3.184817  0  0  -0.237428  0  3.473558  0  0  -0.255097  0  3.489532  0  0  -0.2322  -0.225152  0  3.462281  0
N  N35  1  0.17914062  0.09790578  0.69596784  1  0  -0.303292  0  3.188388  0  0  -0.239332  0  3.477095  0  0  -0.257001  0  3.49306  0  0  -0.233532  -0.227061  0  3.465827  0
N  N36  1  0.51678765  0.09791815  0.69597943  1  0  -0.301515  0  3.184736  0  0  -0.23741  0  3.47347  0  0  -0.25508  0  3.489441  0  0  -0.232157  -0.225135  0  3.462194  0
N  N37  1  0.82085893  0.90209466  0.30403219  1  0  -0.303289  0  3.188352  0  0  -0.239322  0  3.477044  0  0  -0.25699  0  3.493008  0  0  -0.233525  -0.227051  0  3.465781  0
N  N38  1  0.09790587  0.17914287  0.19596802  1  0  -0.303309  0  3.188388  0  0  -0.239359  0  3.477103  0  0  -0.257028  0  3.49307  0  0  -0.233519  -0.227087  0  3.465835  0
N  N39  1  0.90209373  0.82085914  0.80403213  1  0  -0.303317  0  3.188382  0  0  -0.239353  0  3.477098  0  0  -0.257022  0  3.493064  0  0  -0.23353  -0.227082  0  3.465834  0
N  N40  1  0.90208125  0.48321248  0.80402040  1  0  -0.301513  0  3.184743  0  0  -0.237392  0  3.473476  0  0  -0.25506  0  3.489447  0  0  -0.232173  -0.225117  0  3.462204  0
N  N41  1  0.48321190  0.90208229  0.30402060  1  0  -0.301535  0  3.184763  0  0  -0.237426  0  3.473495  0  0  -0.255096  0  3.489467  0  0  -0.232156  -0.225151  0  3.462224  0
N  N42  1  0.05926110  0.41076423  0.11847497  1  0  -0.084565  0  2.933829  0  0  -0.079368  0  3.233648  0  0  -0.079782  0  3.247217  0  0  -0.095449  -0.078752  0  3.224169  0
N  N43  1  0.20772846  0.05925331  0.61846741  1  0  -0.081648  0  2.933036  0  0  -0.07603  0  3.232275  0  0  -0.076445  0  3.245847  0  0  -0.093549  -0.075416  0  3.222797  0
N  N44  1  0.41076463  0.05926194  0.61847433  1  0  -0.084436  0  2.933781  0  0  -0.079221  0  3.233564  0  0  -0.079633  0  3.24713  0  0  -0.095403  -0.078606  0  3.224089  0
N  N45  1  0.79227109  0.94074713  0.38153263  1  0  -0.081647  0  2.933018  0  0  -0.076026  0  3.232248  0  0  -0.076441  0  3.245821  0  0  -0.093545  -0.075412  0  3.22277  0
N  N46  1  0.05925290  0.20772958  0.11846809  1  0  -0.081477  0  2.933021  0  0  -0.075845  0  3.232251  0  0  -0.076259  0  3.245827  0  0  -0.093482  -0.075231  0  3.222769  0
N  N47  1  0.94074670  0.79227243  0.88153265  1  0  -0.081589  0  2.933036  0  0  -0.075963  0  3.232273  0  0  -0.076378  0  3.245851  0  0  -0.093528  -0.075348  0  3.222791  0
N  N48  1  0.94073688  0.58923621  0.88152554  1  0  -0.084505  0  2.933819  0  0  -0.079302  0  3.233623  0  0  -0.079715  0  3.247193  0  0  -0.095432  -0.078686  0  3.224143  0
N  N49  1  0.58923492  0.94073850  0.38152570  1  0  -0.084425  0  2.933782  0  0  -0.079216  0  3.233572  0  0  -0.079628  0  3.247137  0  0  -0.095408  -0.078602  0  3.224097  0
N  N50  1  0.18420171  0.61843065  0.36853834  1  0  -0.361507  0  3.076737  0  0  -0.31432  0  3.337377  0  0  -0.330761  0  3.351293  0  0  -0.304889  -0.303206  0  3.32783  0
N  N51  1  0.24996874  0.18419273  0.86854947  1  0  -0.360105  0  3.074795  0  0  -0.312892  0  3.335327  0  0  -0.3293  0  3.349168  0  0  -0.303402  -0.301798  0  3.325825  0
N  N52  1  0.61842972  0.18420159  0.86853750  1  0  -0.361531  0  3.076816  0  0  -0.31435  0  3.337449  0  0  -0.330788  0  3.351369  0  0  -0.304912  -0.303241  0  3.327891  0
N  N53  1  0.75003225  0.81580459  0.13145162  1  0  -0.360134  0  3.074758  0  0  -0.312884  0  3.335345  0  0  -0.329291  0  3.349188  0  0  -0.303391  -0.301813  0  3.325821  0
N  N54  1  0.18419213  0.24997039  0.36854955  1  0  -0.360059  0  3.074787  0  0  -0.312855  0  3.335309  0  0  -0.329267  0  3.349145  0  0  -0.303446  -0.301754  0  3.325814  0
N  N55  1  0.81580747  0.75003162  0.63145060  1  0  -0.360123  0  3.074807  0  0  -0.312885  0  3.335388  0  0  -0.32929  0  3.349231  0  0  -0.303422  -0.301813  0  3.325865  0
N  N56  1  0.81579789  0.38157136  0.63146181  1  0  -0.361525  0  3.076752  0  0  -0.314297  0  3.337427  0  0  -0.330733  0  3.35135  0  0  -0.304883  -0.303211  0  3.327849  0
N  N57  1  0.38157139  0.81579885  0.13146206  1  0  -0.361518  0  3.076736  0  0  -0.314291  0  3.337402  0  0  -0.33073  0  3.351324  0  0  -0.304884  -0.303204  0  3.327819  0
