# generated using pymatgen
data_CoH32C38S2(N3O2)2
_symmetry_space_group_name_H-M   'P 1'
_cell_length_a   9.27690999
_cell_length_b   9.45180674
_cell_length_c   11.80239698
_cell_angle_alpha   107.09494634
_cell_angle_beta   104.69096529
_cell_angle_gamma   94.27019635
_symmetry_Int_Tables_number   1
_chemical_formula_structural   CoH32C38S2(N3O2)2
_chemical_formula_sum   'Co1 H32 C38 S2 N6 O4'
_cell_volume   944.30852614
_cell_formula_units_Z   1
loop_
 _symmetry_equiv_pos_site_id
 _symmetry_equiv_pos_as_xyz
  1  'x, y, z'
loop_
 _atom_site_type_symbol
 _atom_site_label
 _atom_site_symmetry_multiplicity
 _atom_site_fract_x
 _atom_site_fract_y
 _atom_site_fract_z
 _atom_site_occupancy
 _atom_site_hle17_ddec_charge
 _atom_site_hle17_ddec_spin_density
 _atom_site_hle17_ddec_sum_bond_order
 _atom_site_hle17_magmom
 _atom_site_hse06_10hf_ddec_charge
 _atom_site_hse06_10hf_ddec_spin_density
 _atom_site_hse06_10hf_ddec_sum_bond_order
 _atom_site_hse06_10hf_magmom
 _atom_site_hse06_ddec_charge
 _atom_site_hse06_ddec_spin_density
 _atom_site_hse06_ddec_sum_bond_order
 _atom_site_hse06_magmom
 _atom_site_pbe_cm5_charge
 _atom_site_pbe_ddec_charge
 _atom_site_pbe_ddec_spin_density
 _atom_site_pbe_ddec_sum_bond_order
 _atom_site_pbe_magmom
Co  Co0  1  0.99999493  0.00000086  0.00000427  1  0.638428  -1.144279  2.785962  -1.017  0.61693  -1.024564  3.234487  -0.937  0.67649  -1.028188  3.166273  -0.954  0.714837  0.582962  -1.008811  3.276908  -0.907
H  H1  1  0.71395640  0.83801721  0.04073881  1  0.075775  -0.000134  0.953804  -0.001  0.085749  -0.000303  1.014302  -0.001  0.086913  -0.000178  1.013712  0.0  0.112418  0.085049  -0.000383  1.014772  -0.001
H  H2  1  0.28602999  0.16197506  0.95925789  1  0.075815  -0.000132  0.953749  -0.001  0.085682  -0.000303  1.014368  -0.001  0.086842  -0.000177  1.013789  0.0  0.112387  0.085003  -0.000383  1.014807  -0.001
H  H3  1  0.44966904  0.72463545  0.91245835  1  0.113788  -0.000204  0.926873  0.0  0.125952  -0.000235  0.979751  0.0  0.12938  -0.000159  0.978472  0.0  0.111449  0.123902  -0.000331  0.980138  0.0
H  H4  1  0.55032329  0.27537580  0.08753719  1  0.113784  -0.000203  0.926834  0.0  0.125951  -0.000235  0.979721  0.0  0.129379  -0.000158  0.978438  0.0  0.111418  0.1239  -0.000331  0.980111  0.0
H  H5  1  0.46643637  0.05098526  0.72424536  1  0.103637  -9.4e-05  0.985671  0.0  0.110365  -0.000151  1.052452  0.0  0.112091  -0.000101  1.054416  0.0  0.100565  0.109868  -0.000258  1.049813  0.0
H  H6  1  0.53358015  0.94901830  0.27575896  1  0.103495  -9.8e-05  0.985713  0.0  0.110255  -0.000151  1.052471  0.0  0.111984  -0.000101  1.054433  0.0  0.100509  0.109756  -0.000258  1.04984  0.0
H  H7  1  0.73281075  0.14258281  0.85255445  1  0.063482  -0.000213  0.966564  -0.001  0.071933  -0.000306  1.033322  -0.001  0.073521  -0.000177  1.031414  0.0  0.107354  0.071305  -0.000502  1.034043  -0.001
H  H8  1  0.26720026  0.85740966  0.14745042  1  0.063595  -0.000212  0.966392  -0.001  0.071948  -0.000306  1.033265  -0.001  0.073539  -0.000177  1.031351  0.0  0.10736  0.071318  -0.000502  1.033987  -0.001
H  H9  1  0.25710526  0.85639949  0.64541066  1  0.06032  0.000128  0.957517  0.0  0.069583  2.6e-05  1.030287  0.0  0.069649  2.2e-05  1.030498  0.0  0.09776  0.069301  4.6e-05  1.030686  0.0
H  H10  1  0.74289007  0.14363310  0.35457950  1  0.060442  0.000124  0.957407  0.0  0.069721  2.6e-05  1.030135  0.0  0.069783  2.3e-05  1.030347  0.0  0.097814  0.069443  4.6e-05  1.030541  0.0
H  H11  1  0.19670220  0.86192113  0.77796650  1  0.076633  9e-05  0.93049  0.0  0.088606  -2.5e-05  0.995395  0.0  0.088255  1.3e-05  0.996315  0.0  0.105166  0.088457  -5.8e-05  0.995206  0.0
H  H12  1  0.80329284  0.13808098  0.22203334  1  0.076642  9.4e-05  0.930639  0.0  0.088633  -2.4e-05  0.995485  0.0  0.088279  1.4e-05  0.996404  0.0  0.10516  0.088489  -5.8e-05  0.995301  0.0
H  H13  1  0.19982294  0.37479540  0.59511952  1  0.103686  1.4e-05  0.95775  0.0  0.115578  2.8e-05  1.017688  0.0  0.119285  2.1e-05  1.014712  0.0  0.097893  0.112491  3.8e-05  1.020891  0.0
H  H14  1  0.80016792  0.62521477  0.40486447  1  0.103804  1.6e-05  0.95784  0.0  0.115668  2.8e-05  1.017781  0.0  0.119343  2.2e-05  1.014842  0.0  0.09791  0.11258  3.8e-05  1.02099  0.0
H  H15  1  0.02069640  0.77859938  0.57671691  1  0.101707  5.8e-05  0.980048  0.0  0.108875  5.6e-05  1.04903  0.0  0.111442  4e-05  1.048143  0.0  0.095683  0.10599  8.9e-05  1.051453  0.0
H  H16  1  0.97929571  0.22141751  0.42326129  1  0.101799  4.8e-05  0.980152  0.0  0.108991  5.7e-05  1.049094  0.0  0.111557  4e-05  1.048206  0.0  0.095739  0.106106  8.9e-05  1.051513  0.0
H  H17  1  0.88761824  0.27907943  0.99570570  1  0.075303  0.000117  0.969276  0.0  0.083209  0.000168  1.035302  0.0  0.084881  0.000139  1.032681  0.0  0.116979  0.08182  0.000161  1.037787  0.0
H  H18  1  0.11236218  0.72092098  0.00430872  1  0.075324  0.000116  0.968996  0.0  0.083162  0.000168  1.035129  0.0  0.084834  0.000139  1.032513  0.0  0.116975  0.081775  0.000161  1.037612  0.0
H  H19  1  0.96599023  0.54985293  0.11678543  1  0.10884  0.000362  0.950673  0.0  0.119379  0.000122  1.008849  0.0  0.121616  9.4e-05  1.009545  0.0  0.107853  0.117958  0.000113  1.008107  0.0
H  H20  1  0.03401682  0.45014083  0.88323931  1  0.108876  0.000359  0.950442  0.0  0.119336  0.000122  1.008709  0.0  0.121573  9.4e-05  1.009405  0.0  0.10782  0.117916  0.000113  1.007964  0.0
H  H21  1  0.31923983  0.42730599  0.36955449  1  0.12442  0.000282  0.924963  0.0  0.133162  2e-05  0.981873  0.0  0.136766  3.5e-05  0.980216  0.0  0.116089  0.130821  1.3e-05  0.982837  0.0
H  H22  1  0.68077935  0.57268279  0.63044938  1  0.124484  0.000285  0.925037  0.0  0.133188  2.1e-05  0.98196  0.0  0.136791  3.4e-05  0.980305  0.0  0.116119  0.13085  1.3e-05  0.982923  0.0
H  H23  1  0.21726569  0.16060839  0.24497192  1  0.084414  7.6e-05  0.954799  0.0  0.093623  0.000186  1.015236  0.0  0.094249  0.000141  1.015504  0.0  0.120646  0.093077  0.000207  1.015186  0.0
H  H24  1  0.78272867  0.83939036  0.75502614  1  0.084368  6.9e-05  0.954765  0.0  0.093559  0.000186  1.01522  0.0  0.094186  0.000141  1.015489  0.0  0.120652  0.093015  0.000207  1.015173  0.0
H  H25  1  0.13922876  0.70995624  0.39073728  1  0.065247  0.000715  0.969265  0.0  0.075537  0.00031  1.040586  0.0  0.075343  0.000211  1.042041  0.0  0.098403  0.075582  0.000439  1.040246  0.0
H  H26  1  0.86078311  0.29004072  0.60926627  1  0.065234  0.000714  0.969228  0.0  0.075649  0.000309  1.04052  0.0  0.075454  0.00021  1.041975  0.0  0.09842  0.075688  0.000439  1.04018  0.0
H  H27  1  0.17732255  0.74201889  0.26016240  1  0.057279  0.000312  0.946952  0.0  0.068906  0.000166  1.016194  0.0  0.069005  0.000119  1.015636  0.0  0.098861  0.06845  0.000168  1.01718  0.0
H  H28  1  0.82269283  0.25797907  0.73983952  1  0.057247  0.000312  0.946901  0.0  0.068882  0.000165  1.016251  0.0  0.068991  0.000118  1.015671  0.0  0.098832  0.068422  0.000168  1.017233  0.0
H  H29  1  0.64685898  0.78976552  0.47328020  1  0.110179  4e-06  0.944653  0.0  0.123928  4e-06  0.998742  0.0  0.127155  3e-06  0.996714  0.0  0.104629  0.121785  7e-06  1.000386  0.0
H  H30  1  0.35313994  0.21023870  0.52673021  1  0.110163  3e-06  0.944441  0.0  0.123929  4e-06  0.99853  0.0  0.127156  3e-06  0.996503  0.0  0.104622  0.121785  7e-06  1.00017  0.0
H  H31  1  0.21853780  0.95014922  0.42467573  1  0.100893  0.000106  0.996684  0.0  0.107341  6.9e-05  1.06786  0.0  0.10994  5.4e-05  1.067269  0.0  0.093344  0.104958  9.3e-05  1.069534  0.0
H  H32  1  0.78146176  0.04985273  0.57533257  1  0.100952  0.000106  0.996673  0.0  0.107378  6.9e-05  1.067853  0.0  0.109977  5.5e-05  1.067263  0.0  0.093347  0.104996  9.3e-05  1.069528  0.0
C  C33  1  0.65533018  0.88222984  0.96940243  1  0.116568  0.002481  3.726865  0.001  0.091869  -0.000697  3.985285  -0.001  0.098289  -0.000159  4.004945  -0.001  0.042478  0.086471  -0.001469  3.973126  -0.002
C  C34  1  0.34465999  0.11775890  0.03059585  1  0.116649  0.002435  3.7267  0.001  0.092049  -0.000697  3.985154  -0.001  0.098469  -0.000161  4.004813  -0.001  0.042504  0.086641  -0.001469  3.972977  -0.002
C  C35  1  0.50770865  0.81958120  0.89811152  1  -0.152374  -0.00166  3.702238  -0.002  -0.173429  -0.000264  3.951928  -0.001  -0.179918  -9.2e-05  3.971982  -0.001  -0.081525  -0.169045  -0.000713  3.938417  -0.001
C  C36  1  0.49229072  0.18041510  0.10188100  1  -0.152552  -0.001638  3.701939  -0.002  -0.17365  -0.000262  3.951596  -0.001  -0.180139  -9.2e-05  3.971651  -0.001  -0.081535  -0.16927  -0.000712  3.938093  -0.001
C  C37  1  0.43601280  0.87894224  0.80728603  1  0.127596  0.001792  3.721098  0.001  0.140515  -0.001109  3.959321  -0.001  0.145095  -0.000745  3.979935  -0.001  0.00913  0.137624  -0.001296  3.945271  -0.002
C  C38  1  0.56399419  0.12105264  0.19271525  1  0.127633  0.001754  3.721197  0.001  0.140644  -0.00111  3.959241  -0.001  0.145225  -0.000745  3.979859  -0.001  0.009187  0.137764  -0.001297  3.945188  -0.002
C  C39  1  0.51712848  0.00044119  0.79358615  1  -0.171708  -0.001794  3.730568  -0.003  -0.187358  -0.000512  3.973476  -0.001  -0.196396  -0.000302  3.99849  -0.001  -0.086044  -0.181077  -0.000898  3.955454  -0.002
C  C40  1  0.48288713  0.99955789  0.20641608  1  -0.17137  -0.001764  3.730288  -0.003  -0.187075  -0.000509  3.973101  -0.001  -0.196114  -0.0003  3.998115  -0.001  -0.085925  -0.180797  -0.000897  3.95508  -0.002
C  C41  1  0.66525201  0.05370515  0.86727553  1  0.109745  0.00241  3.749336  0.001  0.084164  -0.000701  4.010663  -0.001  0.090818  -0.000177  4.02916  -0.001  0.03852  0.079581  -0.001348  3.997382  -0.002
C  C42  1  0.33475986  0.94629181  0.13272803  1  0.109483  0.002369  3.749041  0.001  0.084006  -0.000704  4.01038  -0.001  0.09066  -0.00018  4.028875  -0.001  0.038436  0.079423  -0.00135  3.997101  -0.002
C  C43  1  0.27742449  0.81847128  0.72691549  1  0.040627  0.000148  3.650591  0.0  -0.019192  0.000147  3.908036  0.0  -0.011426  0.000149  3.911604  0.0  -0.063947  -0.024588  6.2e-05  3.905881  0.0
C  C44  1  0.72257658  0.18153398  0.27307185  1  0.040409  0.000144  3.650666  0.0  -0.019474  0.000146  3.907968  0.0  -0.011705  0.000141  3.91153  0.0  -0.064112  -0.024904  6.2e-05  3.905839  0.0
C  C45  1  0.12660762  0.58507721  0.59635754  1  0.248195  -3.3e-05  3.820706  0.0  0.240109  -5e-06  4.081374  0.0  0.249358  -7e-06  4.098509  0.0  0.067438  0.233466  5e-06  4.069994  0.0
C  C46  1  0.87338640  0.41492719  0.40361299  1  0.248183  -0.0  3.820901  0.0  0.240229  -6e-06  4.081344  0.0  0.249491  -5e-06  4.098447  0.0  0.067313  0.233557  5e-06  4.069987  0.0
C  C47  1  0.11195263  0.42873477  0.55199251  1  -0.159435  0.000158  3.77684  0.0  -0.182655  3.6e-05  4.03283  0.0  -0.18586  2.7e-05  4.05183  0.0  -0.108034  -0.180886  0.000109  4.02088  0.0
C  C48  1  0.88804018  0.57126855  0.44798685  1  -0.159641  9.5e-05  3.777018  0.0  -0.182874  3.6e-05  4.032919  0.0  -0.186058  2.6e-05  4.051931  0.0  -0.108053  -0.181103  0.000109  4.020984  0.0
C  C49  1  0.01347735  0.65697455  0.54391924  1  -0.193854  8.3e-05  3.801036  0.0  -0.209209  6.8e-05  4.050284  0.0  -0.212814  4.8e-05  4.071501  0.0  -0.115148  -0.206427  0.000161  4.037088  0.0
C  C50  1  0.98652091  0.34303421  0.45605483  1  -0.194078  7e-05  3.801308  0.0  -0.209527  6.9e-05  4.050551  0.0  -0.213138  5.1e-05  4.071774  0.0  -0.115204  -0.206737  0.000161  4.037353  0.0
C  C51  1  0.98117599  0.31620538  0.07994987  1  0.127464  0.013276  3.687384  0.009  0.094785  0.004476  3.945056  0.003  0.105329  0.003629  3.961712  0.002  0.045538  0.086749  0.005575  3.935536  0.003
C  C52  1  0.01879860  0.68379411  0.92005728  1  0.127567  0.013306  3.687285  0.009  0.094882  0.004468  3.94499  0.003  0.10542  0.003622  3.961655  0.002  0.045476  0.08681  0.005572  3.935443  0.003
C  C53  1  0.02695855  0.46723068  0.14744695  1  -0.168847  -0.003693  3.720894  -0.005  -0.185689  -0.000514  3.966078  -0.001  -0.194814  -0.000653  3.987569  -0.001  -0.083631  -0.179294  -0.00045  3.951383  -0.001
C  C54  1  0.97303135  0.53276146  0.85256565  1  -0.168997  -0.003706  3.72084  -0.005  -0.185776  -0.000514  3.965939  -0.001  -0.194901  -0.000652  3.987433  -0.001  -0.083575  -0.179389  -0.000449  3.951253  -0.001
C  C55  1  0.15276162  0.51201314  0.25221451  1  0.13352  0.014948  3.717234  0.01  0.145508  0.00551  3.956401  0.003  0.152078  0.003785  3.976479  0.002  0.011967  0.141116  0.006663  3.942724  0.004
C  C56  1  0.84724151  0.48797850  0.74779627  1  0.133571  0.014979  3.7173  0.01  0.145821  0.005514  3.956232  0.003  0.152389  0.003782  3.97631  0.002  0.01211  0.141426  0.006658  3.942553  0.004
C  C57  1  0.22215908  0.39950579  0.28789741  1  -0.148102  -0.003718  3.693828  -0.005  -0.170783  -0.000458  3.947962  -0.001  -0.178736  -0.000605  3.967121  -0.001  -0.078697  -0.16564  -0.000383  3.935004  -0.001
C  C58  1  0.77785413  0.60048660  0.71210702  1  -0.148272  -0.003743  3.694083  -0.005  -0.170975  -0.00046  3.948143  -0.001  -0.178928  -0.000606  3.967299  -0.001  -0.078826  -0.165838  -0.000383  3.935201  -0.001
C  C59  1  0.16692445  0.25027433  0.21783385  1  0.12736  0.014375  3.668339  0.01  0.097744  0.005393  3.922215  0.003  0.107991  0.004117  3.940431  0.003  0.048591  0.090988  0.005903  3.910407  0.004
C  C60  1  0.83307235  0.74971981  0.78216444  1  0.127542  0.014428  3.668428  0.01  0.097946  0.005387  3.922225  0.003  0.108194  0.004115  3.940437  0.003  0.048653  0.091149  0.005898  3.910396  0.003
C  C61  1  0.20365026  0.67516169  0.32308523  1  0.039083  4.1e-05  3.663731  -0.001  -0.020782  0.000172  3.919327  0.0  -0.013627  9.3e-05  3.923067  0.0  -0.063206  -0.025775  0.000273  3.917207  0.0
C  C62  1  0.79636073  0.32482514  0.67691745  1  0.039222  4.3e-05  3.663175  -0.001  -0.021025  0.000175  3.919224  0.0  -0.013871  9.8e-05  3.922971  0.0  -0.063214  -0.02599  0.000273  3.917056  0.0
C  C63  1  0.42530944  0.85150371  0.44181672  1  0.243986  6e-06  3.819858  0.0  0.235549  5e-06  4.081166  0.0  0.245128  1e-05  4.096851  0.0  0.068623  0.228597  3.9e-05  4.070745  0.0
C  C64  1  0.57469968  0.14848997  0.55819570  1  0.24394  -2.2e-05  3.819735  0.0  0.235533  9e-06  4.08099  0.0  0.245108  1e-05  4.096674  0.0  0.068648  0.228577  3.9e-05  4.070573  0.0
C  C65  1  0.58300878  0.88253761  0.48598356  1  -0.154346  0.00019  3.762378  0.0  -0.175324  7.8e-05  4.01566  0.0  -0.1773  4.8e-05  4.032598  0.0  -0.105324  -0.174322  0.00012  4.004614  0.0
C  C66  1  0.41699878  0.11745951  0.51402852  1  -0.154465  0.000221  3.762005  0.0  -0.175443  7.5e-05  4.015297  0.0  -0.17742  4.7e-05  4.032236  0.0  -0.105401  -0.174445  0.00012  4.004261  0.0
C  C67  1  0.34169812  0.97018570  0.45634651  1  -0.191463  5.5e-05  3.782058  0.0  -0.210097  5e-05  4.037006  0.0  -0.213622  3.2e-05  4.057231  0.0  -0.113383  -0.207348  5.5e-05  4.024277  0.0
C  C68  1  0.65831120  0.02980910  0.54366536  1  -0.191622  8e-05  3.782326  0.0  -0.210213  4.6e-05  4.037241  0.0  -0.213742  3.2e-05  4.057467  0.0  -0.113418  -0.207465  5.5e-05  4.024523  0.0
C  C69  1  0.04673072  0.09007745  0.78507135  1  0.254623  0.022979  4.059715  0.016  0.24773  0.009491  4.373524  0.006  0.273982  0.008739  4.382351  0.006  0.133486  0.230715  0.009302  4.36634  0.006
C  C70  1  0.95327377  0.90992769  0.21492509  1  0.254901  0.022948  4.060012  0.016  0.247996  0.009484  4.373794  0.006  0.274242  0.008735  4.382603  0.006  0.133579  0.230985  0.009292  4.366612  0.006
S  S71  1  0.10155460  0.12269560  0.67459801  1  -0.346765  0.022478  2.043534  0.011  -0.339987  0.006668  2.343474  0.003  -0.354459  0.005657  2.33631  0.002  -0.161658  -0.329638  0.007379  2.348342  0.003
S  S72  1  0.89844898  0.87732087  0.32541534  1  -0.347082  0.022455  2.042904  0.011  -0.340309  0.006659  2.342868  0.003  -0.354787  0.005648  2.335696  0.002  -0.161791  -0.32995  0.007369  2.347735  0.003
N  N73  1  0.00516918  0.06583795  0.86614561  1  -0.519232  0.003412  3.23747  -0.005  -0.505174  0.002301  3.56786  0.0  -0.528984  0.002308  3.566824  0.0  -0.429648  -0.490249  0.001484  3.567468  -0.001
N  N74  1  0.99482385  0.93416424  0.13387081  1  -0.519251  0.003417  3.238397  -0.005  -0.505197  0.002302  3.568812  0.0  -0.528995  0.002311  3.567758  0.0  -0.429658  -0.490274  0.001486  3.568419  -0.001
N  N75  1  0.05107463  0.20767719  0.11239118  1  -0.234586  0.013078  3.364647  0.007  -0.186608  0.008998  3.645734  0.006  -0.214799  0.008542  3.666131  0.006  -0.326088  -0.168909  0.007919  3.63299  0.005
N  N76  1  0.94890797  0.79231862  0.88760224  1  -0.234791  0.013059  3.364942  0.007  -0.186754  0.009001  3.645936  0.006  -0.214947  0.008545  3.66634  0.006  -0.326108  -0.168927  0.007918  3.633057  0.005
N  N77  1  0.73570506  0.99632214  0.95398556  1  -0.304776  -0.030713  3.222918  -0.052  -0.265926  -0.027061  3.503872  -0.044  -0.285946  -0.020673  3.522024  -0.035  -0.31228  -0.250989  -0.033994  3.491464  -0.053
N  N78  1  0.26429618  0.00366619  0.04601390  1  -0.30474  -0.030683  3.222983  -0.052  -0.26594  -0.027054  3.503896  -0.044  -0.285957  -0.020667  3.522046  -0.035  -0.312251  -0.251004  -0.033985  3.491492  -0.053
O  O79  1  0.25538534  0.65817136  0.69029249  1  -0.286039  0.000121  2.296349  0.0  -0.220567  1.6e-05  2.528365  0.0  -0.236334  9e-06  2.528399  0.0  -0.191105  -0.209433  -2.8e-05  2.527608  0.0
O  O80  1  0.74460893  0.34183416  0.30968090  1  -0.286144  0.000121  2.296248  0.0  -0.220635  1.6e-05  2.528143  0.0  -0.236406  1.1e-05  2.528163  0.0  -0.191057  -0.209461  -2.8e-05  2.527387  0.0
O  O81  1  0.36212652  0.70283102  0.38399395  1  -0.281721  0.00014  2.28973  0.0  -0.215059  6.6e-05  2.51873  0.0  -0.230439  4.3e-05  2.518233  0.0  -0.188415  -0.203687  0.000104  2.518484  0.0
O  O82  1  0.63787103  0.29717213  0.61601255  1  -0.281667  0.000134  2.289299  0.0  -0.214963  6.6e-05  2.518421  0.0  -0.230335  4.3e-05  2.517916  0.0  -0.188431  -0.203599  0.000105  2.518166  0.0
