# generated using pymatgen
data_CuH20C20S(NO)4
_symmetry_space_group_name_H-M   'P 1'
_cell_length_a   9.85951641
_cell_length_b   9.85932367
_cell_length_c   14.04568527
_cell_angle_alpha   96.65345921
_cell_angle_beta   96.65396246
_cell_angle_gamma   116.76029292
_symmetry_Int_Tables_number   1
_chemical_formula_structural   CuH20C20S(NO)4
_chemical_formula_sum   'Cu2 H40 C40 S2 N8 O8'
_cell_volume   1188.97764776
_cell_formula_units_Z   2
loop_
 _symmetry_equiv_pos_site_id
 _symmetry_equiv_pos_as_xyz
  1  'x, y, z'
loop_
 _atom_site_type_symbol
 _atom_site_label
 _atom_site_symmetry_multiplicity
 _atom_site_fract_x
 _atom_site_fract_y
 _atom_site_fract_z
 _atom_site_occupancy
 _atom_site_hle17_ddec_charge
 _atom_site_hle17_ddec_spin_density
 _atom_site_hle17_ddec_sum_bond_order
 _atom_site_hle17_magmom
 _atom_site_hse06_10hf_ddec_charge
 _atom_site_hse06_10hf_ddec_spin_density
 _atom_site_hse06_10hf_ddec_sum_bond_order
 _atom_site_hse06_10hf_magmom
 _atom_site_hse06_ddec_charge
 _atom_site_hse06_ddec_spin_density
 _atom_site_hse06_ddec_sum_bond_order
 _atom_site_hse06_magmom
 _atom_site_pbe_cm5_charge
 _atom_site_pbe_ddec_charge
 _atom_site_pbe_ddec_spin_density
 _atom_site_pbe_ddec_sum_bond_order
 _atom_site_pbe_magmom
Cu  Cu0  1  0.92532681  0.07467036  0.24999037  1  0.862038  -0.682152  1.79889  -0.506  0.847212  -0.7834  2.193692  -0.632  0.942393  -0.850361  2.124319  -0.723  0.743511  0.787579  -0.736658  2.243539  -0.574
Cu  Cu1  1  0.07466507  0.92533453  0.75000703  1  0.862173  -0.682158  1.798709  -0.506  0.847197  -0.783455  2.193858  -0.632  0.94244  -0.850334  2.124233  -0.723  0.743526  0.787519  -0.736646  2.243622  -0.574
H  H2  1  0.41100398  0.94133446  0.12221052  1  0.105648  -8.8e-05  0.930809  0.0  0.120179  -0.000259  0.98872  0.0  0.121291  -0.000127  0.989199  0.0  0.098191  0.119477  -0.000287  0.988296  0.0
H  H3  1  0.05868115  0.58899836  0.37779166  1  0.105664  -7.4e-05  0.930729  0.0  0.120199  -0.000258  0.988685  0.0  0.121312  -0.000127  0.989163  0.0  0.098217  0.119497  -0.000286  0.98826  0.0
H  H4  1  0.58895522  0.05864710  0.87779551  1  0.105675  -8.1e-05  0.930926  0.0  0.120197  -0.000258  0.988819  0.0  0.121307  -0.000128  0.989304  0.0  0.098225  0.119496  -0.000287  0.988392  0.0
H  H5  1  0.94134705  0.41106565  0.62220696  1  0.105656  -7.7e-05  0.930894  0.0  0.120205  -0.000259  0.988783  0.0  0.121315  -0.000128  0.989265  0.0  0.098219  0.119499  -0.000287  0.988355  0.0
H  H6  1  0.43302813  0.94393327  0.24926058  1  0.099578  0.000231  0.934846  0.0  0.114411  -0.000127  0.994023  0.0  0.116563  -5.6e-05  0.993078  0.0  0.094129  0.112885  -0.000203  0.99486  0.0
H  H7  1  0.05608604  0.56698658  0.25074807  1  0.09961  0.000246  0.934876  0.0  0.114474  -0.000127  0.994042  0.0  0.116634  -5.6e-05  0.993089  0.0  0.094175  0.112947  -0.000203  0.994878  0.0
H  H8  1  0.56695423  0.05605400  0.75074584  1  0.099527  0.000243  0.934981  0.0  0.114336  -0.000127  0.994164  0.0  0.116502  -5.7e-05  0.993203  0.0  0.09408  0.112814  -0.000203  0.994991  0.0
H  H9  1  0.94393054  0.43306811  0.74925299  1  0.099584  0.000241  0.934933  0.0  0.114399  -0.000126  0.994151  0.0  0.116567  -5.7e-05  0.993188  0.0  0.094074  0.112872  -0.000203  0.994974  0.0
H  H10  1  0.36018630  0.66561050  0.08945241  1  0.09069  6.1e-05  0.9305  0.0  0.107536  4.4e-05  0.988631  0.0  0.108969  3.4e-05  0.987565  0.0  0.09598  0.106323  4.3e-05  0.989666  0.0
H  H11  1  0.33440536  0.63981740  0.41057004  1  0.090811  5.8e-05  0.93034  0.0  0.107631  4.3e-05  0.988502  0.0  0.109066  3.3e-05  0.987434  0.0  0.09605  0.106416  4.3e-05  0.989539  0.0
H  H12  1  0.63977848  0.33438048  0.91054780  1  0.090716  5.5e-05  0.930487  0.0  0.107541  4.3e-05  0.988626  0.0  0.108955  3.4e-05  0.987582  0.0  0.095976  0.106329  4.3e-05  0.989659  0.0
H  H13  1  0.66559835  0.36018254  0.58943793  1  0.090732  5.8e-05  0.930469  0.0  0.107563  4.3e-05  0.988639  0.0  0.109003  3.4e-05  0.987564  0.0  0.095983  0.106351  4.3e-05  0.989674  0.0
H  H14  1  0.21899891  0.68742333  0.14765593  1  0.085673  -0.000926  0.955947  -0.001  0.100841  -0.000356  1.019623  -0.001  0.100472  -0.000188  1.02252  0.0  0.093543  0.101252  -0.000542  1.01737  -0.001
H  H15  1  0.31259055  0.78102359  0.35236235  1  0.085556  -0.000926  0.955947  -0.001  0.100824  -0.000356  1.019523  -0.001  0.100453  -0.000187  1.022421  0.0  0.093517  0.101233  -0.000542  1.01727  -0.001
H  H16  1  0.78099708  0.31256487  0.85235816  1  0.085781  -0.000927  0.955862  -0.001  0.100959  -0.000356  1.019502  -0.001  0.100597  -0.000187  1.022386  0.0  0.093565  0.10137  -0.000542  1.017244  -0.001
H  H17  1  0.68744926  0.21899838  0.64764144  1  0.085678  -0.000927  0.955889  -0.001  0.100854  -0.000357  1.019573  -0.001  0.100487  -0.000187  1.022466  0.0  0.093524  0.101266  -0.000542  1.017318  -0.001
H  H18  1  0.23092566  0.29170397  0.15618311  1  0.080969  -0.000203  0.962678  0.0  0.082646  -0.000132  1.039467  0.0  0.085428  -6.6e-05  1.035514  0.0  0.128264  0.080104  -0.000178  1.042566  0.0
H  H19  1  0.70827703  0.76904710  0.34380537  1  0.081011  -0.0002  0.962606  0.0  0.082739  -0.000132  1.039363  0.0  0.085527  -6.6e-05  1.035408  0.0  0.128237  0.080321  -0.000178  1.042583  0.0
H  H20  1  0.76904316  0.70827412  0.84382060  1  0.081007  -0.000196  0.962592  0.0  0.082772  -0.000132  1.039308  0.0  0.085795  -6.6e-05  1.035535  0.0  0.12827  0.080357  -0.000178  1.042521  0.0
H  H21  1  0.29172443  0.23096039  0.65617885  1  0.080993  -0.000203  0.962662  0.0  0.082794  -0.000131  1.039346  0.0  0.085589  -6.6e-05  1.035381  0.0  0.128246  0.080379  -0.000178  1.042563  0.0
H  H22  1  0.20531392  0.84338032  0.92567707  1  0.119358  -0.000138  0.949375  0.0  0.130017  -0.000182  1.007028  0.0  0.133634  -7.6e-05  1.004474  0.0  0.109156  0.127477  -0.000268  1.008793  0.0
H  H23  1  0.15659904  0.79469239  0.57431530  1  0.119267  -0.000137  0.949461  0.0  0.129918  -0.000182  1.007133  0.0  0.133534  -7.6e-05  1.004581  0.0  0.109103  0.127368  -0.000269  1.008906  0.0
H  H24  1  0.79471449  0.15664539  0.07431822  1  0.119273  -0.000144  0.949472  0.0  0.129913  -0.000182  1.007157  0.0  0.133527  -7.6e-05  1.004608  0.0  0.109092  0.12739  -0.000269  1.008906  0.0
H  H25  1  0.84337859  0.20529304  0.42567203  1  0.11921  -0.000134  0.949605  0.0  0.129938  -0.000182  1.007197  0.0  0.133556  -7.6e-05  1.004642  0.0  0.109091  0.127388  -0.000269  1.008974  0.0
H  H26  1  0.00379183  0.57807523  0.92795739  1  0.087409  -9e-06  0.973373  0.0  0.099053  -1.7e-05  1.036337  0.0  0.101889  5e-06  1.035171  0.0  0.098129  0.09664  -5e-05  1.038075  0.0
H  H27  1  0.42189547  0.99621045  0.57202842  1  0.087607  -6e-06  0.97328  0.0  0.099185  -1.7e-05  1.036296  0.0  0.102023  5e-06  1.035125  0.0  0.098152  0.096767  -5.1e-05  1.038035  0.0
H  H28  1  0.99626791  0.42193275  0.07204478  1  0.087672  3e-06  0.973212  0.0  0.099197  -1.7e-05  1.036288  0.0  0.102028  5e-06  1.035144  0.0  0.098213  0.096783  -5.1e-05  1.038034  0.0
H  H29  1  0.57808661  0.00376534  0.42797198  1  0.087691  0.0  0.973141  0.0  0.099168  -1.7e-05  1.036259  0.0  0.102013  5e-06  1.035068  0.0  0.098188  0.096753  -5.1e-05  1.038008  0.0
H  H30  1  0.82945249  0.52908484  0.04791199  1  0.088552  2.6e-05  0.953267  0.0  0.103146  1.2e-05  1.006644  0.0  0.105863  1.3e-05  1.005779  0.0  0.098985  0.1011  8e-06  1.007564  0.0
H  H31  1  0.47088767  0.17055491  0.45207596  1  0.0886  2.5e-05  0.953133  0.0  0.103191  1.2e-05  1.006521  0.0  0.105903  1.3e-05  1.005665  0.0  0.098996  0.101145  8e-06  1.007445  0.0
H  H32  1  0.17057949  0.47088170  0.95207773  1  0.088808  1.2e-05  0.95312  0.0  0.103376  1.1e-05  1.00651  0.0  0.106051  1.2e-05  1.005698  0.0  0.099075  0.101327  8e-06  1.007436  0.0
H  H33  1  0.52911137  0.82943326  0.54793841  1  0.0886  1.8e-05  0.953008  0.0  0.10317  1.2e-05  1.00643  0.0  0.105869  1.2e-05  1.005592  0.0  0.098977  0.101122  8e-06  1.007355  0.0
H  H34  1  0.84681304  0.74661427  0.16722858  1  0.108493  3.7e-05  0.965583  0.0  0.11656  5.9e-05  1.028353  0.0  0.119426  0.000149  1.02679  0.0  0.102327  0.114495  -2.2e-05  1.02966  0.0
H  H35  1  0.25335061  0.15318659  0.33275721  1  0.108488  4.6e-05  0.965651  0.0  0.116584  5.9e-05  1.028385  0.0  0.119451  0.000151  1.026819  0.0  0.102315  0.114512  -2.2e-05  1.029704  0.0
H  H36  1  0.15319023  0.25333269  0.83275833  1  0.108564  3.9e-05  0.965639  0.0  0.116679  5.9e-05  1.028357  0.0  0.119527  0.00015  1.026812  0.0  0.102336  0.114613  -2.2e-05  1.029661  0.0
H  H37  1  0.74667077  0.84682257  0.66725097  1  0.108388  3.9e-05  0.965802  0.0  0.116548  5.9e-05  1.028477  0.0  0.119423  0.00015  1.026894  0.0  0.102298  0.114485  -2.2e-05  1.029778  0.0
H  H38  1  0.30015320  0.15430691  0.01335605  1  0.334873  -0.000281  0.878938  0.0  0.321263  -0.000229  0.932203  0.0  0.32997  -0.000174  0.924619  0.0  0.324578  0.315013  -0.000275  0.93777  0.0
H  H39  1  0.84567407  0.69983241  0.48664933  1  0.335017  -0.000284  0.878878  0.0  0.321413  -0.00023  0.932142  0.0  0.330122  -0.000175  0.924549  0.0  0.324568  0.315164  -0.000275  0.937704  0.0
H  H40  1  0.69982746  0.84569191  0.98665407  1  0.334965  -0.000283  0.878993  0.0  0.321379  -0.000229  0.932212  0.0  0.330101  -0.000174  0.924587  0.0  0.324597  0.315133  -0.000275  0.937765  0.0
H  H41  1  0.15432538  0.30017511  0.51333400  1  0.334802  -0.000283  0.879057  0.0  0.32124  -0.000229  0.932249  0.0  0.32995  -0.000175  0.92466  0.0  0.32452  0.314997  -0.000275  0.937792  0.0
C  C42  1  0.61451803  0.93100957  0.18217325  1  0.675489  0.006748  3.870597  0.007  0.639267  0.000646  4.180236  0.001  0.675438  0.001044  4.175077  0.001  0.194526  0.614459  8.1e-05  4.183288  0.001
C  C43  1  0.06900829  0.38548740  0.31783809  1  0.67507  0.006741  3.870868  0.007  0.638921  0.000645  4.180477  0.001  0.675091  0.001042  4.175322  0.001  0.194364  0.614112  8e-05  4.183532  0.001
C  C44  1  0.38546051  0.06899081  0.81782045  1  0.675549  0.006767  3.870928  0.007  0.639423  0.000648  4.180404  0.001  0.675594  0.001042  4.175253  0.001  0.194565  0.614617  8.2e-05  4.183451  0.001
C  C45  1  0.93097658  0.61455451  0.68216834  1  0.675119  0.00676  3.871315  0.007  0.639009  0.000647  4.180847  0.001  0.675175  0.001043  4.1757  0.001  0.19437  0.614198  8.1e-05  4.183879  0.001
C  C46  1  0.44574708  0.89050664  0.18011867  1  -0.252587  -0.009995  3.690227  -0.011  -0.290029  -0.005178  3.938768  -0.006  -0.295856  -0.003254  3.947021  -0.004  -0.169995  -0.286167  -0.006637  3.933422  -0.007
C  C47  1  0.10951441  0.55426656  0.31988745  1  -0.252353  -0.010042  3.689845  -0.011  -0.289933  -0.005179  3.938574  -0.006  -0.295764  -0.003255  3.946824  -0.004  -0.169988  -0.286067  -0.006639  3.933225  -0.007
C  C48  1  0.55423867  0.10948991  0.81988814  1  -0.252512  -0.010042  3.690257  -0.011  -0.289968  -0.005181  3.938774  -0.006  -0.295791  -0.003253  3.947006  -0.004  -0.169908  -0.286097  -0.00664  3.933415  -0.007
C  C49  1  0.89049249  0.44577199  0.68010993  1  -0.252479  -0.010055  3.689915  -0.011  -0.290058  -0.005184  3.938633  -0.006  -0.295881  -0.003255  3.94687  -0.004  -0.169878  -0.286165  -0.006645  3.933234  -0.007
C  C50  1  0.34159453  0.71580948  0.15754180  1  -0.114887  -0.001137  3.675247  -0.001  -0.152703  -0.00083  3.942891  -0.001  -0.152001  -0.000462  3.956388  -0.001  -0.150765  -0.153033  -0.001186  3.933341  -0.001
C  C51  1  0.28421013  0.65841884  0.34247657  1  -0.115053  -0.001128  3.675026  -0.001  -0.152841  -0.00083  3.942648  -0.001  -0.152146  -0.000461  3.956163  -0.001  -0.150822  -0.153173  -0.001187  3.933103  -0.001
C  C52  1  0.65839896  0.28419049  0.84246670  1  -0.115066  -0.001115  3.675075  -0.001  -0.15282  -0.000828  3.942621  -0.001  -0.152089  -0.000461  3.956097  -0.001  -0.150791  -0.153149  -0.001186  3.933067  -0.001
C  C53  1  0.71580122  0.34159276  0.65752810  1  -0.114982  -0.001127  3.67518  -0.001  -0.152759  -0.000829  3.942847  -0.001  -0.152049  -0.000462  3.956343  -0.001  -0.150815  -0.153092  -0.001188  3.933287  -0.001
C  C54  1  0.18277624  0.16750521  0.13175067  1  0.274538  0.009013  3.649567  0.005  0.222266  0.00362  3.920526  0.002  0.243519  0.004471  3.928618  0.002  0.166571  0.208733  0.002732  3.915009  0.001
C  C55  1  0.83247146  0.81719894  0.36823937  1  0.274509  0.008952  3.649647  0.005  0.222181  0.003615  3.920576  0.002  0.243424  0.00447  3.928677  0.002  0.166553  0.208383  0.00273  3.91534  0.001
C  C56  1  0.81718961  0.83247910  0.86823695  1  0.27439  0.008932  3.649557  0.005  0.222034  0.003621  3.920521  0.002  0.242803  0.004473  3.92914  0.002  0.166443  0.208233  0.002732  3.915275  0.001
C  C57  1  0.16752820  0.18280493  0.63175078  1  0.274356  0.009023  3.649751  0.005  0.221964  0.003615  3.920715  0.002  0.243209  0.004467  3.928816  0.002  0.166476  0.208163  0.002729  3.915475  0.001
C  C58  1  0.13944633  0.94306040  0.04687305  1  0.151665  -0.003446  3.784722  -0.004  0.145701  -0.002422  4.026173  -0.003  0.149521  -0.001869  4.048677  -0.002  0.093688  0.143238  -0.002929  4.01116  -0.003
C  C59  1  0.05690956  0.86054562  0.45312456  1  0.151878  -0.003478  3.784358  -0.004  0.145841  -0.00242  4.025961  -0.003  0.149653  -0.001867  4.04848  -0.002  0.093738  0.143387  -0.002929  4.010926  -0.003
C  C60  1  0.86056468  0.05691849  0.95313870  1  0.151912  -0.003532  3.784659  -0.004  0.145944  -0.002421  4.026168  -0.003  0.149794  -0.001869  4.048622  -0.002  0.093756  0.143497  -0.00293  4.011129  -0.003
C  C61  1  0.94309367  0.13944203  0.54686235  1  0.151895  -0.003511  3.784427  -0.004  0.14593  -0.00242  4.025982  -0.003  0.149742  -0.001867  4.048503  -0.002  0.09377  0.143491  -0.002929  4.010932  -0.003
C  C62  1  0.13113951  0.82238114  0.97963433  1  -0.14342  0.000286  3.74193  0.0  -0.164928  -7e-05  3.99794  0.0  -0.167689  0.000254  4.016433  0.0  -0.092066  -0.162915  -0.00038  3.985523  -0.001
C  C63  1  0.17760115  0.86886997  0.52035764  1  -0.143351  0.000324  3.742078  0.0  -0.164827  -7.5e-05  3.998094  0.0  -0.167594  0.000252  4.016617  0.0  -0.092034  -0.162793  -0.000381  3.985676  -0.001
C  C64  1  0.86889856  0.17762219  0.02037124  1  -0.143376  0.000483  3.74207  0.0  -0.164861  -7.6e-05  3.998082  0.0  -0.167622  0.00025  4.01659  0.0  -0.091978  -0.162873  -0.00038  3.985679  -0.001
C  C65  1  0.82239386  0.13111990  0.47963515  1  -0.143455  0.000361  3.742295  0.0  -0.165012  -7.3e-05  3.998268  0.0  -0.167786  0.000251  4.016799  0.0  -0.092062  -0.162989  -0.00038  3.985856  -0.001
C  C66  1  0.01740295  0.67428629  0.98158448  1  -0.070353  -0.000718  3.790505  -0.001  -0.08797  -0.000194  4.048827  0.0  -0.089202  -0.000229  4.070405  0.0  -0.097888  -0.08718  -0.000135  4.035433  0.0
C  C67  1  0.32568896  0.98259583  0.51839967  1  -0.070421  -0.000753  3.79065  -0.001  -0.087961  -0.000191  4.048928  0.0  -0.089201  -0.00023  4.070529  0.0  -0.097816  -0.087162  -0.000136  4.035527  0.0
C  C68  1  0.98259988  0.32571766  0.01840169  1  -0.070563  -0.000868  3.79058  -0.001  -0.08807  -0.000191  4.048866  0.0  -0.089303  -0.000227  4.070437  0.0  -0.098007  -0.087283  -0.000136  4.035503  0.0
C  C69  1  0.67430446  0.01741466  0.48160618  1  -0.07048  -0.000799  3.790487  -0.001  -0.087956  -0.000193  4.048836  0.0  -0.089181  -0.000229  4.070415  0.0  -0.097918  -0.087165  -0.000135  4.035445  0.0
C  C70  1  0.91753848  0.64705879  0.04937034  1  -0.101398  0.001025  3.81204  0.001  -0.114663  0.000686  4.065972  0.0  -0.117499  0.000783  4.088353  0.0  -0.105001  -0.112102  0.000483  4.050991  0.0
C  C71  1  0.35291100  0.08246371  0.45061465  1  -0.101612  0.00111  3.812274  0.001  -0.114887  0.000685  4.066214  0.0  -0.11773  0.000783  4.088619  0.0  -0.105073  -0.112327  0.000483  4.051229  0.0
C  C72  1  0.08251296  0.35291283  0.95064644  1  -0.101623  0.001287  3.812304  0.001  -0.114874  0.000684  4.066224  0.0  -0.117679  0.000784  4.088624  0.0  -0.105006  -0.112317  0.000484  4.051256  0.0
C  C73  1  0.64709699  0.91751687  0.54937561  1  -0.10151  0.00118  3.811862  0.001  -0.114755  0.000684  4.065758  0.0  -0.117588  0.000783  4.08817  0.0  -0.104954  -0.112195  0.000483  4.050778  0.0
C  C74  1  0.92707309  0.76714413  0.11717847  1  -0.135718  -0.000882  3.759246  -0.001  -0.159185  -0.000466  4.014691  -0.001  -0.16145  -0.00037  4.035164  -0.001  -0.097832  -0.158188  -0.000576  4.000995  -0.001
C  C75  1  0.23282680  0.07292516  0.38281153  1  -0.135704  -0.000958  3.759315  -0.001  -0.159197  -0.000467  4.014741  -0.001  -0.16147  -0.000372  4.035227  -0.001  -0.097774  -0.158192  -0.000576  4.001051  -0.001
C  C76  1  0.07294267  0.23283154  0.88282130  1  -0.135943  -0.001027  3.759371  -0.001  -0.159463  -0.000466  4.014791  -0.001  -0.161711  -0.000373  4.035266  -0.001  -0.097953  -0.158462  -0.000577  4.001094  -0.001
C  C77  1  0.76718329  0.92707949  0.61719242  1  -0.135724  -0.00098  3.759209  -0.001  -0.159257  -0.000466  4.014628  -0.001  -0.161526  -0.000371  4.035099  -0.001  -0.097805  -0.158245  -0.000576  4.000928  -0.001
C  C78  1  0.03970305  0.91729063  0.11516233  1  0.132063  -0.001247  3.804527  -0.002  0.133365  -0.001693  4.053233  -0.002  0.13667  -0.00065  4.07893  -0.001  0.080932  0.131782  -0.00229  4.036281  -0.002
C  C79  1  0.08268309  0.96028311  0.38483125  1  0.132173  -0.001188  3.804562  -0.001  0.133488  -0.001693  4.053256  -0.002  0.136794  -0.000653  4.078959  -0.001  0.080804  0.131909  -0.002289  4.036301  -0.002
C  C80  1  0.96028847  0.08269210  0.88483808  1  0.132003  -0.001134  3.804616  -0.001  0.133306  -0.001693  4.053289  -0.002  0.136641  -0.000649  4.078938  -0.001  0.080886  0.13174  -0.002289  4.0363  -0.002
C  C81  1  0.91732453  0.03972275  0.61517117  1  0.13222  -0.001134  3.80429  -0.001  0.133466  -0.001691  4.053044  -0.002  0.136779  -0.000649  4.078736  -0.001  0.080772  0.131881  -0.002287  4.036085  -0.002
S  S82  1  0.38246532  0.61755316  0.25000928  1  -0.067171  -0.003834  2.251187  -0.004  -0.057331  -9.2e-05  2.582865  0.0  -0.063399  7.7e-05  2.582726  0.0  -0.043455  -0.052691  -0.000407  2.58304  0.0
S  S83  1  0.61752291  0.38243771  0.74999155  1  -0.067151  -0.003833  2.251099  -0.004  -0.05732  -9.2e-05  2.582764  0.0  -0.063458  7.6e-05  2.582727  0.0  -0.043465  -0.052716  -0.000406  2.583004  0.0
N  N84  1  0.07054912  0.06074601  0.16705330  1  -0.43083  -0.053466  3.278998  -0.068  -0.392298  -0.042659  3.594715  -0.058  -0.424969  -0.03495  3.610334  -0.052  -0.375367  -0.372403  -0.046745  3.586189  -0.06
N  N85  1  0.93923454  0.92942545  0.33293487  1  -0.430905  -0.053448  3.279038  -0.068  -0.392313  -0.04266  3.594658  -0.058  -0.424994  -0.034948  3.610305  -0.052  -0.375256  -0.372412  -0.046747  3.5862  -0.06
N  N86  1  0.92945651  0.93923872  0.83295778  1  -0.430667  -0.053456  3.279221  -0.068  -0.392099  -0.042662  3.59501  -0.058  -0.424782  -0.034955  3.610724  -0.052  -0.375311  -0.37219  -0.046751  3.586515  -0.06
N  N87  1  0.06077695  0.07058406  0.66706037  1  -0.430834  -0.05348  3.279048  -0.068  -0.392192  -0.042644  3.594747  -0.058  -0.424873  -0.034939  3.610329  -0.052  -0.375258  -0.372275  -0.046733  3.586249  -0.06
N  N88  1  0.22905111  0.10213508  0.06057545  1  -0.341818  -0.0002  3.374193  -0.001  -0.278546  -0.000483  3.596063  -0.001  -0.29567  -7.2e-05  3.606036  -0.001  -0.371507  -0.267469  -0.000838  3.589382  -0.001
N  N89  1  0.89783344  0.77092712  0.43941388  1  -0.342181  -0.00018  3.374264  -0.001  -0.278943  -0.00048  3.596237  -0.001  -0.296066  -6.9e-05  3.6062  -0.001  -0.371561  -0.267849  -0.000837  3.589604  -0.001
N  N90  1  0.77093623  0.89784757  0.93942886  1  -0.342071  -0.00017  3.374293  -0.001  -0.27886  -0.000484  3.596269  -0.001  -0.295971  -7.3e-05  3.606317  -0.001  -0.371532  -0.267772  -0.00084  3.589631  -0.001
N  N91  1  0.10216216  0.22907454  0.56057217  1  -0.341925  -0.000178  3.374401  -0.001  -0.278732  -0.000483  3.596397  -0.001  -0.295858  -7.2e-05  3.60637  -0.001  -0.37145  -0.267643  -0.000838  3.589755  -0.001
O  O92  1  0.71037827  0.02683232  0.25881700  1  -0.588638  -0.101627  2.031531  -0.139  -0.567843  -0.057949  2.313529  -0.087  -0.614428  -0.040188  2.308789  -0.066  -0.328995  -0.53659  -0.069919  2.316795  -0.099
O  O93  1  0.97318385  0.28963037  0.24118709  1  -0.588532  -0.101648  2.031429  -0.139  -0.567732  -0.057959  2.313344  -0.087  -0.614316  -0.040195  2.308602  -0.066  -0.328942  -0.536488  -0.06993  2.316629  -0.099
O  O94  1  0.28962105  0.97317955  0.74117881  1  -0.5887  -0.101617  2.031712  -0.139  -0.567925  -0.057941  2.31369  -0.087  -0.614506  -0.040187  2.30891  -0.066  -0.32903  -0.536659  -0.069915  2.316939  -0.099
O  O95  1  0.02679353  0.71038494  0.75881422  1  -0.588496  -0.10165  2.032008  -0.139  -0.567608  -0.057961  2.313817  -0.087  -0.614196  -0.040207  2.309061  -0.066  -0.328898  -0.536375  -0.069935  2.317118  -0.099
O  O96  1  0.65261585  0.87247834  0.11239479  1  -0.652756  -0.00013  1.917637  -0.002  -0.623029  -5.5e-05  2.152936  -0.001  -0.649332  0.001121  2.142612  0.0  -0.339605  -0.604304  -0.001348  2.159846  -0.003
O  O97  1  0.12751978  0.34736853  0.38760839  1  -0.65254  -0.000118  1.918148  -0.002  -0.622828  -5.3e-05  2.153403  -0.001  -0.649142  0.001125  2.143101  0.0  -0.339504  -0.604106  -0.001343  2.16031  -0.003
O  O98  1  0.34734980  0.12751412  0.88759210  1  -0.65285  -0.000138  1.917852  -0.002  -0.623115  -5.7e-05  2.153085  -0.001  -0.649427  0.001121  2.142772  0.0  -0.339631  -0.604382  -0.001351  2.159984  -0.003
O  O99  1  0.87245877  0.65267319  0.61240673  1  -0.652606  -0.000121  1.918447  -0.002  -0.622859  -5.4e-05  2.153638  -0.001  -0.649173  0.001121  2.143347  0.0  -0.339515  -0.604126  -0.001345  2.160537  -0.003
