# generated using pymatgen
data_ErH8C8NO9
_symmetry_space_group_name_H-M   'P 1'
_cell_length_a   9.40399270
_cell_length_b   9.89369864
_cell_length_c   14.16240000
_cell_angle_alpha   90.00000000
_cell_angle_beta   90.00000000
_cell_angle_gamma   92.87996321
_symmetry_Int_Tables_number   1
_chemical_formula_structural   ErH8C8NO9
_chemical_formula_sum   'Er4 H32 C32 N4 O36'
_cell_volume   1316.00928111
_cell_formula_units_Z   4
loop_
 _symmetry_equiv_pos_site_id
 _symmetry_equiv_pos_as_xyz
  1  'x, y, z'
loop_
 _atom_site_type_symbol
 _atom_site_label
 _atom_site_symmetry_multiplicity
 _atom_site_fract_x
 _atom_site_fract_y
 _atom_site_fract_z
 _atom_site_occupancy
 _atom_site_hle17_bader_spin_density
 _atom_site_hle17_ddec_charge
 _atom_site_hle17_ddec_spin_density
 _atom_site_hle17_ddec_sum_bond_order
 _atom_site_hle17_magmom
 _atom_site_hse06_10hf_bader_spin_density
 _atom_site_hse06_10hf_ddec_charge
 _atom_site_hse06_10hf_ddec_spin_density
 _atom_site_hse06_10hf_ddec_sum_bond_order
 _atom_site_hse06_10hf_magmom
 _atom_site_hse06_bader_spin_density
 _atom_site_hse06_ddec_charge
 _atom_site_hse06_ddec_spin_density
 _atom_site_hse06_ddec_sum_bond_order
 _atom_site_hse06_magmom
 _atom_site_pbe_bader_charge
 _atom_site_pbe_bader_spin_density
 _atom_site_pbe_cm5_charge
 _atom_site_pbe_ddec_charge
 _atom_site_pbe_ddec_spin_density
 _atom_site_pbe_ddec_sum_bond_order
 _atom_site_pbe_magmom
Er  Er0  1  0.88224566  0.91274516  0.14455954  1  0  2.23659  0  1.638565  0  0  2.073608  0  2.134218  0  0  2.213683  0  1.920653  0  2.165952  0  1.51138  2.039878  0  2.16366  0
Er  Er1  1  0.11772757  0.58724936  0.64457225  1  0  2.236638  0  1.638635  0  0  2.073586  0  2.134413  0  0  2.213719  0  1.920731  0  2.166036  0  1.511437  2.039857  0  2.163853  0
Er  Er2  1  0.11774646  0.08726063  0.85543623  1  0  2.236605  0  1.638625  0  0  2.073644  0  2.13427  0  0  2.213678  0  1.920717  0  2.166209  0  1.511433  2.039909  0  2.163714  0
Er  Er3  1  0.88228301  0.41274327  0.35543128  1  0  2.236652  0  1.638564  0  0  2.073599  0  2.134299  0  0  2.213725  0  1.920648  0  2.166053  0  1.511466  2.03987  0  2.16374  0
H  H4  1  0.05372902  0.76664756  0.00003319  1  0  0.446933  0  0.838558  0  0  0.413565  0  0.904952  0  0  0.425202  0  0.887815  0  0.651813  0  0.308642  0.405553  0  0.916993  0
H  H5  1  0.94627143  0.73333886  0.50002401  1  0  0.446866  0  0.838612  0  0  0.4135  0  0.905009  0  0  0.425136  0  0.887874  0  0.651592  0  0.308637  0.405489  0  0.917049  0
H  H6  1  0.94627316  0.23334710  0.99996611  1  0  0.446944  0  0.838565  0  0  0.413571  0  0.90497  0  0  0.425208  0  0.887831  0  0.651786  0  0.308621  0.405559  0  0.917011  0
H  H7  1  0.05374270  0.26666086  0.49996823  1  0  0.446881  0  0.838618  0  0  0.413521  0  0.905  0  0  0.425156  0  0.887866  0  0.651698  0  0.308612  0.405511  0  0.917037  0
H  H8  1  0.07698582  0.68587197  0.09589829  1  0  0.454323  0  0.790827  0  0  0.438014  0  0.838494  0  0  0.446856  0  0.825849  0  0.632586  0  0.338354  0.431915  0  0.847375  0
H  H9  1  0.92301570  0.81411445  0.59588982  1  0  0.454279  0  0.790821  0  0  0.437932  0  0.838569  0  0  0.446792  0  0.825899  0  0.63125  0  0.338418  0.431822  0  0.847407  0
H  H10  1  0.92301545  0.31412573  0.90410382  1  0  0.45434  0  0.790805  0  0  0.438043  0  0.838449  0  0  0.44688  0  0.825811  0  0.632613  0  0.338371  0.431943  0  0.847322  0
H  H11  1  0.07702434  0.18589235  0.40410877  1  0  0.454339  0  0.790717  0  0  0.438006  0  0.838482  0  0  0.446849  0  0.825833  0  0.631902  0  0.338336  0.431904  0  0.847305  0
H  H12  1  0.08429711  0.84790386  0.28486203  1  0  0.439705  0  0.804065  0  0  0.424908  0  0.85158  0  0  0.433528  0  0.843125  0  0.611063  0  0.334428  0.418847  0  0.858623  0
H  H13  1  0.91568367  0.65211292  0.78488745  1  0  0.439725  0  0.804063  0  0  0.424944  0  0.851548  0  0  0.433561  0  0.843094  0  0.610805  0  0.334468  0.418885  0  0.858589  0
H  H14  1  0.91568310  0.15209788  0.71513373  1  0  0.43968  0  0.803782  0  0  0.424889  0  0.851303  0  0  0.433512  0  0.842845  0  0.610879  0  0.334405  0.418828  0  0.858346  0
H  H15  1  0.08432600  0.34790299  0.21509914  1  0  0.439637  0  0.804135  0  0  0.424858  0  0.851616  0  0  0.433477  0  0.843168  0  0.624637  0  0.334368  0.418796  0  0.858661  0
H  H16  1  0.96294806  0.73659150  0.31104686  1  0  0.442922  0  0.85118  0  0  0.411832  0  0.913866  0  0  0.423293  0  0.897495  0  0.643869  0  0.305754  0.403689  0  0.925887  0
H  H17  1  0.03705840  0.76340807  0.81104756  1  0  0.442989  0  0.851104  0  0  0.411903  0  0.913778  0  0  0.423363  0  0.89741  0  0.643877  0  0.305814  0.403762  0  0.925797  0
H  H18  1  0.03704252  0.26340518  0.68895173  1  0  0.442908  0  0.851255  0  0  0.411831  0  0.913907  0  0  0.423288  0  0.897544  0  0.644361  0  0.305767  0.403691  0  0.925923  0
H  H19  1  0.96294984  0.23660075  0.18894043  1  0  0.443055  0  0.851004  0  0  0.41194  0  0.913742  0  0  0.4234  0  0.897375  0  0.644344  0  0.305783  0.4038  0  0.925759  0
H  H20  1  0.79115998  0.08618586  0.30368440  1  0  0.450215  0  0.846212  0  0  0.419001  0  0.908424  0  0  0.431436  0  0.890781  0  0.672124  0  0.297655  0.410439  0  0.920737  0
H  H21  1  0.20882590  0.41383828  0.80368158  1  0  0.450411  0  0.845997  0  0  0.419198  0  0.908196  0  0  0.431628  0  0.890559  0  0.672582  0  0.297796  0.410645  0  0.920496  0
H  H22  1  0.20882726  0.91380778  0.69631418  1  0  0.450266  0  0.846151  0  0  0.419064  0  0.908348  0  0  0.431501  0  0.890701  0  0.672217  0  0.297679  0.410501  0  0.920663  0
H  H23  1  0.79116601  0.58616346  0.19631207  1  0  0.45021  0  0.846263  0  0  0.418987  0  0.908473  0  0  0.431416  0  0.89084  0  0.672441  0  0.297691  0.410428  0  0.920782  0
H  H24  1  0.79857037  0.93585570  0.34315582  1  0  0.438937  0  0.856516  0  0  0.409796  0  0.916726  0  0  0.421395  0  0.899763  0  0.652558  0  0.296639  0.401605  0  0.928918  0
H  H25  1  0.20143056  0.56413982  0.84314947  1  0  0.438909  0  0.856562  0  0  0.409799  0  0.916705  0  0  0.421395  0  0.899748  0  0.652659  0  0.296697  0.401615  0  0.928889  0
H  H26  1  0.20142617  0.06413288  0.65684700  1  0  0.438802  0  0.8567  0  0  0.409651  0  0.916923  0  0  0.421254  0  0.899954  0  0.652642  0  0.296599  0.401464  0  0.929109  0
H  H27  1  0.79858156  0.43586192  0.15684135  1  0  0.438784  0  0.856711  0  0  0.409648  0  0.916911  0  0  0.42125  0  0.899944  0  0.652718  0  0.296647  0.401464  0  0.929094  0
H  H28  1  0.31255165  0.81908450  0.15761523  1  0  0.121362  0  0.934194  0  0  0.127671  0  0.99856  0  0  0.132619  0  0.994456  0  0.107754  0  0.118075  0.123773  0  1.001851  0
H  H29  1  0.68743514  0.68090496  0.65759405  1  0  0.12143  0  0.934214  0  0  0.12768  0  0.998628  0  0  0.132636  0  0.994532  0  0.108003  0  0.118023  0.123775  0  1.001931  0
H  H30  1  0.68744526  0.18093141  0.84240101  1  0  0.121335  0  0.934173  0  0  0.127609  0  0.998556  0  0  0.132571  0  0.994454  0  0.107769  0  0.117974  0.123708  0  1.001855  0
H  H31  1  0.31257501  0.31907958  0.34240030  1  0  0.121379  0  0.933937  0  0  0.127638  0  0.998362  0  0  0.132591  0  0.994267  0  0.108048  0  0.117981  0.123739  0  1.001658  0
H  H32  1  0.43657895  0.22918161  0.07035672  1  0  0.136735  0  0.90423  0  0  0.14759  0  0.957134  0  0  0.151661  0  0.954632  0  0.106337  0  0.127239  0.144383  0  0.959088  0
H  H33  1  0.56339305  0.27082128  0.57032989  1  0  0.136783  0  0.904133  0  0  0.147635  0  0.957049  0  0  0.151719  0  0.954539  0  0.153671  0  0.127167  0.144424  0  0.959012  0
H  H34  1  0.56341425  0.77084442  0.92966658  1  0  0.136793  0  0.904194  0  0  0.147622  0  0.957109  0  0  0.151703  0  0.954605  0  0.106504  0  0.127205  0.144409  0  0.959077  0
H  H35  1  0.43660551  0.72916528  0.42967223  1  0  0.136769  0  0.904157  0  0  0.147638  0  0.957035  0  0  0.151721  0  0.95453  0  0.106086  0  0.127198  0.144427  0  0.958997  0
C  C36  1  0.58825692  0.73684754  0.17399170  1  0  0.630801  0  3.901281  0  0  0.58272  0  4.199776  0  0  0.6145  0  4.19547  0  1.560339  0  0.216495  0.561223  0  4.203888  0
C  C37  1  0.41170737  0.76313888  0.67401076  1  0  0.630828  0  3.900819  0  0  0.582735  0  4.199279  0  0  0.61451  0  4.194981  0  1.561329  0  0.21651  0.561236  0  4.20339  0
C  C38  1  0.41171846  0.26316331  0.82600548  1  0  0.630609  0  3.90084  0  0  0.582462  0  4.199488  0  0  0.614237  0  4.195194  0  1.561138  0  0.216396  0.560967  0  4.203592  0
C  C39  1  0.58829889  0.23685274  0.32599489  1  0  0.631016  0  3.900501  0  0  0.582711  0  4.199199  0  0  0.614486  0  4.194905  0  1.561627  0  0.216535  0.561217  0  4.203302  0
C  C40  1  0.53576757  0.87454839  0.14977758  1  0  0.13033  0  3.748251  0  0  0.132983  0  3.997164  0  0  0.134235  0  4.018412  0  0.52568  0  0.125164  0.131877  0  3.985715  0
C  C41  1  0.46420433  0.62544107  0.64977687  1  0  0.130205  0  3.748482  0  0  0.132917  0  3.997267  0  0  0.134173  0  4.018509  0  0.525428  0  0.125249  0.131814  0  3.985816  0
C  C42  1  0.46421546  0.12544627  0.85022736  1  0  0.130563  0  3.747846  0  0  0.133056  0  3.99702  0  0  0.134312  0  4.018272  0  0.525587  0  0.125225  0.131952  0  3.985564  0
C  C43  1  0.53581103  0.37456169  0.35020830  1  0  0.130158  0  3.749105  0  0  0.133076  0  3.997694  0  0  0.134335  0  4.018937  0  0.525867  0  0.125271  0.13197  0  3.986241  0
C  C44  1  0.39211505  0.89984086  0.14226897  1  0  -0.084574  0  3.625498  0  0  -0.119131  0  3.873337  0  0  -0.120402  0  3.888532  0  0.062126  0  -0.054902  -0.117965  0  3.862176  0
C  C45  1  0.60787541  0.60015771  0.64224849  1  0  -0.084499  0  3.625411  0  0  -0.119016  0  3.873182  0  0  -0.120309  0  3.888387  0  0.062688  0  -0.054824  -0.11785  0  3.862023  0
C  C46  1  0.60788479  0.10016999  0.85774727  1  0  -0.084553  0  3.625182  0  0  -0.118988  0  3.872977  0  0  -0.120282  0  3.888185  0  0.062811  0  -0.054755  -0.117825  0  3.861814  0
C  C47  1  0.39214150  0.39983392  0.35775151  1  0  -0.0846  0  3.625392  0  0  -0.119167  0  3.873152  0  0  -0.120458  0  3.88836  0  0.056041  0  -0.054806  -0.118  0  3.861989  0
C  C48  1  0.35414537  0.02717888  0.11108640  1  0  0.002934  0  3.669799  0  0  0.020591  0  3.910453  0  0  0.018825  0  3.925223  0  -0.044861  0  0.014629  0.022107  0  3.898541  0
C  C49  1  0.64582880  0.47282503  0.61106380  1  0  0.002618  0  3.669873  0  0  0.020365  0  3.910514  0  0  0.018597  0  3.925282  0  -0.045021  0  0.014522  0.021883  0  3.898597  0
C  C50  1  0.64583852  0.97283197  0.88894114  1  0  0.002603  0  3.670194  0  0  0.020295  0  3.910792  0  0  0.018526  0  3.925561  0  -0.045423  0  0.014517  0.021813  0  3.898876  0
C  C51  1  0.35418337  0.52717772  0.38892772  1  0  0.002843  0  3.670196  0  0  0.020546  0  3.910845  0  0  0.01878  0  3.925613  0  -0.039639  0  0.014596  0.022064  0  3.898927  0
C  C52  1  0.19899940  0.04574342  0.09274417  1  0  0.72394  0  3.861619  0  0  0.676909  0  4.152213  0  0  0.713606  0  4.14441  0  1.637704  0  0.240599  0.652571  0  4.160492  0
C  C53  1  0.80098089  0.45425543  0.59273569  1  0  0.724689  0  3.861301  0  0  0.677477  0  4.152118  0  0  0.714192  0  4.144275  0  1.638208  0  0.241003  0.653149  0  4.16039  0
C  C54  1  0.80098678  0.95427047  0.90726289  1  0  0.724259  0  3.861717  0  0  0.677132  0  4.152408  0  0  0.713844  0  4.144575  0  1.638104  0  0.240725  0.652804  0  4.160676  0
C  C55  1  0.19903462  0.54573012  0.40726289  1  0  0.724768  0  3.86132  0  0  0.67762  0  4.152053  0  0  0.714333  0  4.144211  0  1.638143  0  0.241018  0.653285  0  4.160335  0
C  C56  1  0.46080428  0.12800365  0.09380190  1  0  -0.07781  0  3.601557  0  0  -0.116582  0  3.854595  0  0  -0.11708  0  3.870031  0  0.075803  0  -0.051922  -0.115421  0  3.843658  0
C  C57  1  0.53917596  0.37199419  0.59378142  1  0  -0.077841  0  3.600768  0  0  -0.116487  0  3.853979  0  0  -0.116999  0  3.869426  0  0.028193  0  -0.051854  -0.115332  0  3.843047  0
C  C58  1  0.53918184  0.87200923  0.90622140  1  0  -0.077642  0  3.60135  0  0  -0.116378  0  3.854309  0  0  -0.116894  0  3.869763  0  0.075522  0  -0.051834  -0.115219  0  3.843364  0
C  C59  1  0.46083457  0.62799743  0.40620869  1  0  -0.078032  0  3.601555  0  0  -0.116752  0  3.854677  0  0  -0.11727  0  3.870133  0  0.076813  0  -0.051979  -0.115594  0  3.843737  0
C  C60  1  0.60195415  0.09634455  0.10893281  1  0  0.122463  0  3.748577  0  0  0.12731  0  3.998721  0  0  0.127644  0  4.021099  0  0.478033  0  0.121589  0.126656  0  3.98646  0
C  C61  1  0.39801321  0.40365126  0.60891516  1  0  0.122666  0  3.747565  0  0  0.126917  0  3.998569  0  0  0.127247  0  4.020952  0  0.47755  0  0.121532  0.126267  0  3.986307  0
C  C62  1  0.39802819  0.90365720  0.89107778  1  0  0.122414  0  3.748216  0  0  0.127228  0  3.998431  0  0  0.127554  0  4.020819  0  0.477787  0  0.121596  0.126579  0  3.986164  0
C  C63  1  0.60198364  0.59634339  0.39107072  1  0  0.122952  0  3.747494  0  0  0.127467  0  3.998191  0  0  0.127793  0  4.020572  0  0.477505  0  0.121673  0.126814  0  3.985933  0
C  C64  1  0.72705374  0.19718146  0.10005790  1  0  0.630167  0  3.893112  0  0  0.574852  0  4.199136  0  0  0.607065  0  4.194586  0  1.570518  0  0.221437  0.553237  0  4.202852  0
C  C65  1  0.27292591  0.30282548  0.60005296  1  0  0.630136  0  3.893169  0  0  0.57505  0  4.199106  0  0  0.607253  0  4.194564  0  1.571082  0  0.221599  0.553437  0  4.202832  0
C  C66  1  0.27293983  0.80283141  0.89993716  1  0  0.630145  0  3.893275  0  0  0.574832  0  4.199286  0  0  0.607039  0  4.194738  0  1.570833  0  0.221499  0.553224  0  4.202997  0
C  C67  1  0.72707727  0.69716816  0.39993716  1  0  0.630095  0  3.893253  0  0  0.574875  0  4.199275  0  0  0.607087  0  4.194724  0  1.570419  0  0.221587  0.553265  0  4.202994  0
N  N68  1  0.63701697  0.97158921  0.13369697  1  0  -0.452503  0  3.38688  0  0  -0.410139  0  3.644256  0  0  -0.432912  0  3.666267  0  -1.258333  0  -0.40538  -0.40248  0  3.631559  0
N  N69  1  0.36296908  0.52840632  0.63369415  1  0  -0.452529  0  3.386975  0  0  -0.409999  0  3.644505  0  0  -0.432771  0  3.666511  0  -1.258725  0  -0.405357  -0.402343  0  3.631805  0
N  N70  1  0.36297739  0.02841861  0.86631009  1  0  -0.452592  0  3.386929  0  0  -0.410181  0  3.644396  0  0  -0.432944  0  3.666402  0  -1.258251  0  -0.40541  -0.40252  0  3.631696  0
N  N71  1  0.63705006  0.47158733  0.36629385  1  0  -0.452682  0  3.386742  0  0  -0.410286  0  3.644149  0  0  -0.433062  0  3.666152  0  -1.258715  0  -0.405469  -0.40263  0  3.631458  0
O  O72  1  0.16401307  0.09476579  0.01399057  1  0  -0.733988  0  2.068139  0  0  -0.685007  0  2.333852  0  0  -0.726732  0  2.320362  0  -1.202809  0  -0.389135  -0.666248  0  2.34195  0
O  O73  1  0.83598449  0.40519763  0.51397998  1  0  -0.734349  0  2.067653  0  0  -0.685233  0  2.333318  0  0  -0.727007  0  2.319881  0  -1.203091  0  -0.389229  -0.666452  0  2.341359  0
O  O74  1  0.83598814  0.90521065  0.98601720  1  0  -0.734157  0  2.067752  0  0  -0.685094  0  2.333447  0  0  -0.726862  0  2.320012  0  -1.203031  0  -0.389244  -0.66631  0  2.341481  0
O  O75  1  0.16403325  0.59476970  0.48602356  1  0  -0.734286  0  2.067849  0  0  -0.685203  0  2.333491  0  0  -0.726955  0  2.320014  0  -1.202691  0  -0.389183  -0.666416  0  2.34153  0
O  O76  1  0.11225255  0.00432943  0.15624541  1  0  -0.725967  0  2.030242  0  0  -0.675031  0  2.282726  0  0  -0.712891  0  2.264685  0  -1.194639  0  -0.391008  -0.656794  0  2.291199  0
O  O77  1  0.88771259  0.49568459  0.65622211  1  0  -0.726244  0  2.030723  0  0  -0.675237  0  2.283304  0  0  -0.7131  0  2.265235  0  -1.194823  0  -0.391233  -0.657  0  2.291756  0
O  O78  1  0.88774192  0.99568041  0.84377930  1  0  -0.726093  0  2.030832  0  0  -0.67514  0  2.28338  0  0  -0.712984  0  2.265321  0  -1.194933  0  -0.391046  -0.6569  0  2.291828  0
O  O79  1  0.11228814  0.50430298  0.34378213  1  0  -0.726356  0  2.030646  0  0  -0.67537  0  2.283195  0  0  -0.713233  0  2.265126  0  -1.194828  0  -0.391287  -0.657132  0  2.291656  0
O  O80  1  0.50324171  0.63969844  0.18690194  1  0  -0.536396  0  1.872312  0  0  -0.502752  0  2.072335  0  0  -0.522093  0  2.065907  0  -1.141813  0  -0.306302  -0.488616  0  2.075936  0
O  O81  1  0.49671929  0.86028596  0.68693512  1  0  -0.536418  0  1.872171  0  0  -0.502788  0  2.072237  0  0  -0.522131  0  2.065814  0  -1.142265  0  -0.306263  -0.488652  0  2.075838  0
O  O82  1  0.49672442  0.36031848  0.81309453  1  0  -0.53626  0  1.872296  0  0  -0.502597  0  2.072377  0  0  -0.521943  0  2.065958  0  -1.142037  0  -0.306163  -0.488465  0  2.075977  0
O  O83  1  0.50329384  0.13969453  0.31308888  1  0  -0.53645  0  1.872036  0  0  -0.502785  0  2.072193  0  0  -0.522127  0  2.065773  0  -1.142676  0  -0.306279  -0.488651  0  2.075791  0
O  O84  1  0.72790696  0.73485183  0.17882492  1  0  -0.764982  0  2.052776  0  0  -0.699526  0  2.296856  0  0  -0.740749  0  2.28253  0  -1.168968  0  -0.411874  -0.680076  0  2.30334  0
O  O85  1  0.27205180  0.76513054  0.67883904  1  0  -0.764958  0  2.052716  0  0  -0.699455  0  2.296736  0  0  -0.740688  0  2.282407  0  -1.16894  0  -0.411917  -0.680003  0  2.303222  0
O  O86  1  0.27206740  0.26513979  0.82117155  1  0  -0.765004  0  2.052659  0  0  -0.699475  0  2.296777  0  0  -0.740683  0  2.282448  0  -1.169186  0  -0.41194  -0.680021  0  2.303254  0
O  O87  1  0.72795595  0.23486918  0.32115814  1  0  -0.765072  0  2.052583  0  0  -0.69946  0  2.296681  0  0  -0.740693  0  2.282355  0  -1.168791  0  -0.411967  -0.680009  0  2.303163  0
O  O88  1  0.85242640  0.14663498  0.10953087  1  0  -0.769199  0  2.076977  0  0  -0.702205  0  2.318667  0  0  -0.740213  0  2.30524  0  -1.197961  0  -0.376454  -0.683547  0  2.326517  0
O  O89  1  0.14754931  0.35335779  0.60955064  1  0  -0.769406  0  2.077034  0  0  -0.702419  0  2.318595  0  0  -0.74044  0  2.305186  0  -1.198273  0  -0.376696  -0.683752  0  2.326416  0
O  O90  1  0.14756780  0.85336979  0.89045430  1  0  -0.769318  0  2.076873  0  0  -0.702325  0  2.318527  0  0  -0.740331  0  2.305108  0  -1.198244  0  -0.376665  -0.683669  0  2.326381  0
O  O91  1  0.85244616  0.64663079  0.39045360  1  0  -0.769316  0  2.077043  0  0  -0.702333  0  2.318705  0  0  -0.740345  0  2.305276  0  -1.198131  0  -0.376694  -0.68367  0  2.32654  0
O  O92  1  0.70714519  0.31878811  0.08528004  1  0  -0.558807  0  1.913248  0  0  -0.513169  0  2.1174  0  0  -0.533489  0  2.106682  0  -1.150676  0  -0.29601  -0.49868  0  2.123973  0
O  O93  1  0.29280432  0.18123199  0.58527227  1  0  -0.558675  0  1.913537  0  0  -0.513047  0  2.117642  0  0  -0.533356  0  2.106915  0  -1.150515  0  -0.29595  -0.498566  0  2.12422  0
O  O94  1  0.29282477  0.68124095  0.91472279  1  0  -0.558649  0  1.91351  0  0  -0.513022  0  2.117684  0  0  -0.533328  0  2.106958  0  -1.150747  0  -0.295944  -0.49854  0  2.124255  0
O  O95  1  0.70719398  0.81876976  0.41471714  1  0  -0.558708  0  1.913507  0  0  -0.513073  0  2.117671  0  0  -0.533385  0  2.106941  0  -1.150455  0  -0.295958  -0.498591  0  2.12425  0
O  O96  1  0.01421315  0.74524935  0.06309947  1  0  -0.886457  0  1.858734  0  0  -0.837769  0  2.045892  0  0  -0.86599  0  2.006053  0  -1.25077  0  -0.618603  -0.825945  0  2.068242  0
O  O97  1  0.98579071  0.75474111  0.56308959  1  0  -0.886342  0  1.858754  0  0  -0.837573  0  2.045993  0  0  -0.865824  0  2.006108  0  -1.24933  0  -0.618663  -0.825735  0  2.068313  0
O  O98  1  0.98579281  0.25475644  0.93690053  1  0  -0.886502  0  1.858691  0  0  -0.837803  0  2.045826  0  0  -0.866019  0  2.005982  0  -1.250774  0  -0.618609  -0.825977  0  2.068173  0
O  O99  1  0.01423305  0.24525962  0.43690194  1  0  -0.886375  0  1.858672  0  0  -0.837672  0  2.045914  0  0  -0.865897  0  2.006069  0  -1.249936  0  -0.618567  -0.825847  0  2.068199  0
O  O100  1  0.01374198  0.78383170  0.25767313  1  0  -0.870183  0  1.852071  0  0  -0.82205  0  2.042268  0  0  -0.851108  0  2.00855  0  -1.228407  0  -0.616957  -0.80879  0  2.062002  0
O  O101  1  0.98625864  0.71615775  0.75768231  1  0  -0.870223  0  1.852136  0  0  -0.822118  0  2.042354  0  0  -0.851173  0  2.008621  0  -1.22816  0  -0.61702  -0.808864  0  2.062092  0
O  O102  1  0.98626329  0.21618117  0.74232192  1  0  -0.870119  0  1.851923  0  0  -0.822009  0  2.042143  0  0  -0.851058  0  2.008422  0  -1.22879  0  -0.61691  -0.808751  0  2.061875  0
O  O103  1  0.01374397  0.28384500  0.24230427  1  0  -0.870179  0  1.852173  0  0  -0.822072  0  2.042365  0  0  -0.851134  0  2.008634  0  -1.242522  0  -0.616883  -0.808811  0  2.062104  0
O  O104  1  0.83955818  0.99845739  0.29397277  1  0  -0.947535  0  1.846989  0  0  -0.898043  0  2.043452  0  0  -0.931916  0  2.001237  0  -1.315246  0  -0.659584  -0.883265  0  2.066852  0
O  O105  1  0.16043845  0.50153712  0.79398054  1  0  -0.947642  0  1.847111  0  0  -0.89819  0  2.043691  0  0  -0.932065  0  2.001461  0  -1.315741  0  -0.659768  -0.883429  0  2.067087  0
O  O106  1  0.16043208  0.00153321  0.70602723  1  0  -0.94743  0  1.847121  0  0  -0.897966  0  2.043617  0  0  -0.931839  0  2.001399  0  -1.315432  0  -0.659564  -0.883196  0  2.067017  0
O  O107  1  0.83958106  0.49846361  0.20601169  1  0  -0.947432  0  1.84729  0  0  -0.897934  0  2.04384  0  0  -0.93181  0  2.001616  0  -1.315712  0  -0.659662  -0.883168  0  2.067241  0
