# generated using pymatgen
data_MgH8(CO2)4
_symmetry_space_group_name_H-M   'P 1'
_cell_length_a   5.80054990
_cell_length_b   10.18805384
_cell_length_c   12.97080564
_cell_angle_alpha   89.99989273
_cell_angle_beta   90.00023808
_cell_angle_gamma   99.43042893
_symmetry_Int_Tables_number   1
_chemical_formula_structural   MgH8(CO2)4
_chemical_formula_sum   'Mg4 H32 C16 O32'
_cell_volume   756.16741880
_cell_formula_units_Z   4
loop_
 _symmetry_equiv_pos_site_id
 _symmetry_equiv_pos_as_xyz
  1  'x, y, z'
loop_
 _atom_site_type_symbol
 _atom_site_label
 _atom_site_symmetry_multiplicity
 _atom_site_fract_x
 _atom_site_fract_y
 _atom_site_fract_z
 _atom_site_occupancy
 _atom_site_hle17_bader_spin_density
 _atom_site_hle17_ddec_charge
 _atom_site_hle17_ddec_spin_density
 _atom_site_hle17_ddec_sum_bond_order
 _atom_site_hle17_magmom
 _atom_site_hse06_10hf_bader_spin_density
 _atom_site_hse06_10hf_ddec_charge
 _atom_site_hse06_10hf_ddec_spin_density
 _atom_site_hse06_10hf_ddec_sum_bond_order
 _atom_site_hse06_10hf_magmom
 _atom_site_hse06_bader_spin_density
 _atom_site_hse06_ddec_charge
 _atom_site_hse06_ddec_spin_density
 _atom_site_hse06_ddec_sum_bond_order
 _atom_site_hse06_magmom
 _atom_site_pbe_bader_spin_density
 _atom_site_pbe_cm5_charge
 _atom_site_pbe_ddec_charge
 _atom_site_pbe_ddec_spin_density
 _atom_site_pbe_ddec_sum_bond_order
 _atom_site_pbe_magmom
Mg  Mg0  1  0.82904567  0.78846994  0.41747388  1  0  1.479496  0  1.139545  0  0  1.367358  0  1.396011  0  0  1.390412  0  1.360786  0  0  0.821279  1.351036  0  1.420674  0
Mg  Mg1  1  0.17095312  0.71153288  0.91747464  1  0  1.479528  0  1.13949  0  0  1.367456  0  1.395858  0  0  1.390508  0  1.360637  0  0  0.821284  1.351136  0  1.420523  0
Mg  Mg2  1  0.17095216  0.21153018  0.58252589  1  0  1.479509  0  1.139589  0  0  1.367434  0  1.395915  0  0  1.390488  0  1.360691  0  0  0.821292  1.351119  0  1.420591  0
Mg  Mg3  1  0.82904701  0.28846923  0.08252512  1  0  1.479551  0  1.139529  0  0  1.367464  0  1.395869  0  0  1.390516  0  1.360646  0  0  0.821305  1.351156  0  1.420541  0
H  H4  1  0.45373814  0.87057933  0.24916241  1  0  0.084972  0  0.916377  0  0  0.092229  0  0.979868  0  0  0.094742  0  0.977802  0  0  0.126034  0.090476  0  0.981423  0
H  H5  1  0.54625919  0.62941779  0.74916323  1  0  0.08494  0  0.916319  0  0  0.092197  0  0.979809  0  0  0.09471  0  0.97774  0  0  0.126032  0.09045  0  0.981361  0
H  H6  1  0.54626456  0.12942577  0.75083890  1  0  0.085044  0  0.916339  0  0  0.092225  0  0.979854  0  0  0.094734  0  0.977795  0  0  0.126071  0.090479  0  0.98141  0
H  H7  1  0.45374039  0.37057637  0.25083962  1  0  0.085014  0  0.916353  0  0  0.092237  0  0.979839  0  0  0.094751  0  0.977773  0  0  0.126047  0.090493  0  0.981394  0
H  H8  1  0.66167918  0.92004168  0.08318290  1  0  0.080641  0  0.910181  0  0  0.088454  0  0.971999  0  0  0.090848  0  0.970255  0  0  0.121334  0.086633  0  0.973565  0
H  H9  1  0.33831582  0.57995868  0.58318417  1  0  0.08067  0  0.910133  0  0  0.088524  0  0.971953  0  0  0.090921  0  0.970209  0  0  0.121352  0.086694  0  0.973519  0
H  H10  1  0.33832095  0.07996043  0.91681918  1  0  0.080649  0  0.910118  0  0  0.088486  0  0.971937  0  0  0.090881  0  0.970191  0  0  0.121334  0.086666  0  0.973511  0
H  H11  1  0.66168374  0.42004145  0.41681867  1  0  0.080662  0  0.910106  0  0  0.088496  0  0.971922  0  0  0.090893  0  0.970174  0  0  0.121339  0.086676  0  0.973493  0
H  H12  1  0.73509255  0.75517463  0.22044827  1  0  0.389769  0  0.902491  0  0  0.360367  0  0.980834  0  0  0.370567  0  0.969534  0  0  0.30675  0.353174  0  0.988842  0
H  H13  1  0.26490998  0.74482353  0.72044917  1  0  0.389737  0  0.902594  0  0  0.360345  0  0.980909  0  0  0.370542  0  0.969613  0  0  0.306743  0.353154  0  0.988907  0
H  H14  1  0.26491159  0.24482947  0.77955226  1  0  0.389733  0  0.902636  0  0  0.360322  0  0.98098  0  0  0.370521  0  0.969682  0  0  0.306726  0.353131  0  0.988986  0
H  H15  1  0.73509707  0.25517262  0.27955060  1  0  0.389754  0  0.902656  0  0  0.360334  0  0.981012  0  0  0.370533  0  0.969715  0  0  0.306738  0.353143  0  0.98902  0
H  H16  1  0.01181459  0.05261217  0.12923250  1  0  0.409592  0  0.878679  0  0  0.378156  0  0.954659  0  0  0.390261  0  0.938697  0  0  0.305165  0.3691  0  0.965  0
H  H17  1  0.98817609  0.44738617  0.62923444  1  0  0.409551  0  0.878741  0  0  0.378125  0  0.954711  0  0  0.390233  0  0.938741  0  0  0.305139  0.369068  0  0.965058  0
H  H18  1  0.98818698  0.94738895  0.87076495  1  0  0.409589  0  0.878745  0  0  0.378169  0  0.954695  0  0  0.390276  0  0.938694  0  0  0.305149  0.369113  0  0.965035  0
H  H19  1  0.01181658  0.55261395  0.37076532  1  0  0.409583  0  0.878722  0  0  0.378147  0  0.9547  0  0  0.390257  0  0.938714  0  0  0.305144  0.36909  0  0.965043  0
H  H20  1  0.78458303  0.68007443  0.60412076  1  0  0.429435  0  0.870374  0  0  0.394934  0  0.939832  0  0  0.405602  0  0.924066  0  0  0.295434  0.387382  0  0.950989  0
H  H21  1  0.21541617  0.81992789  0.10412343  1  0  0.429418  0  0.870399  0  0  0.394916  0  0.939854  0  0  0.405583  0  0.924091  0  0  0.295407  0.387366  0  0.95101  0
H  H22  1  0.21541653  0.31992569  0.39587746  1  0  0.429343  0  0.870506  0  0  0.394879  0  0.939911  0  0  0.405549  0  0.924143  0  0  0.295405  0.38733  0  0.951066  0
H  H23  1  0.78458224  0.18007422  0.89587710  1  0  0.429417  0  0.870408  0  0  0.394921  0  0.939855  0  0  0.40559  0  0.924088  0  0  0.295414  0.387372  0  0.951009  0
H  H24  1  0.67036146  0.81255292  0.60758295  1  0  0.442367  0  0.84806  0  0  0.409495  0  0.913562  0  0  0.419826  0  0.898381  0  0  0.30159  0.402133  0  0.924405  0
H  H25  1  0.32964065  0.68744741  0.10758140  1  0  0.44238  0  0.848045  0  0  0.409513  0  0.913536  0  0  0.419843  0  0.898357  0  0  0.301593  0.402153  0  0.924378  0
H  H26  1  0.32963810  0.18744721  0.39241681  1  0  0.442325  0  0.848124  0  0  0.409446  0  0.913635  0  0  0.419777  0  0.898455  0  0  0.301569  0.402086  0  0.924475  0
H  H27  1  0.67035863  0.31255172  0.89241759  1  0  0.442344  0  0.848096  0  0  0.409473  0  0.913591  0  0  0.419804  0  0.898411  0  0  0.301583  0.402116  0  0.924427  0
H  H28  1  0.28594640  0.78452893  0.42140528  1  0  0.435747  0  0.867004  0  0  0.401724  0  0.934822  0  0  0.412885  0  0.918348  0  0  0.298183  0.393864  0  0.94644  0
H  H29  1  0.71405157  0.71547090  0.92140705  1  0  0.435815  0  0.866917  0  0  0.401797  0  0.934731  0  0  0.412958  0  0.918257  0  0  0.298218  0.393934  0  0.946354  0
H  H30  1  0.71405288  0.21547020  0.57859294  1  0  0.435792  0  0.866959  0  0  0.401765  0  0.934785  0  0  0.412928  0  0.918309  0  0  0.298217  0.393904  0  0.946407  0
H  H31  1  0.28594310  0.28453021  0.07859271  1  0  0.435805  0  0.866937  0  0  0.401782  0  0.934761  0  0  0.412944  0  0.918285  0  0  0.298211  0.393921  0  0.946381  0
H  H32  1  0.22684260  0.91319495  0.48150086  1  0  0.440828  0  0.858057  0  0  0.404895  0  0.92859  0  0  0.416716  0  0.911364  0  0  0.299753  0.396564  0  0.940723  0
H  H33  1  0.77315907  0.58680379  0.98150062  1  0  0.440851  0  0.858028  0  0  0.404905  0  0.928569  0  0  0.416721  0  0.911352  0  0  0.299762  0.396576  0  0.9407  0
H  H34  1  0.77315668  0.08680417  0.51849736  1  0  0.440865  0  0.85799  0  0  0.404937  0  0.92851  0  0  0.416756  0  0.911287  0  0  0.299788  0.396608  0  0.940638  0
H  H35  1  0.22683933  0.41319832  0.01849914  1  0  0.44084  0  0.858031  0  0  0.40492  0  0.928543  0  0  0.416737  0  0.911323  0  0  0.299762  0.396592  0  0.940672  0
C  C36  1  0.64687565  0.01856006  0.34086068  1  0  0.69341  0  3.802861  0  0  0.631238  0  4.114055  0  0  0.665013  0  4.104215  0  0  0.235747  0.608306  0  4.120219  0
C  C37  1  0.35313328  0.48143498  0.84086139  1  0  0.693382  0  3.802738  0  0  0.631123  0  4.114087  0  0  0.664899  0  4.104249  0  0  0.235746  0.608196  0  4.120248  0
C  C38  1  0.35314521  0.98143013  0.65914448  1  0  0.693704  0  3.802797  0  0  0.631334  0  4.114225  0  0  0.665111  0  4.104385  0  0  0.235836  0.608397  0  4.120388  0
C  C39  1  0.64685965  0.51857210  0.15914223  1  0  0.693807  0  3.802498  0  0  0.631401  0  4.113997  0  0  0.665177  0  4.104154  0  0  0.235858  0.608468  0  4.120159  0
C  C40  1  0.63348270  0.92708262  0.24658983  1  0  0.047033  0  3.640301  0  0  0.018239  0  3.899402  0  0  0.019417  0  3.90584  0  0  -0.003551  0.017315  0  3.895032  0
C  C41  1  0.36651490  0.57291549  0.74659117  1  0  0.047203  0  3.64007  0  0  0.018489  0  3.899197  0  0  0.019672  0  3.905635  0  0  -0.003516  0.017547  0  3.89483  0
C  C42  1  0.36651859  0.07291750  0.75341070  1  0  0.04686  0  3.640273  0  0  0.0183  0  3.899199  0  0  0.019478  0  3.905637  0  0  -0.003552  0.017373  0  3.894833  0
C  C43  1  0.63348410  0.42708264  0.25341013  1  0  0.046885  0  3.640163  0  0  0.018249  0  3.899182  0  0  0.019429  0  3.905618  0  0  -0.003543  0.01732  0  3.894813  0
C  C44  1  0.66001083  0.99823154  0.14204194  1  0  0.073013  0  3.642189  0  0  0.043114  0  3.901579  0  0  0.044777  0  3.908158  0  0  -0.000838  0.041685  0  3.897468  0
C  C45  1  0.33998412  0.50176674  0.64204334  1  0  0.072991  0  3.642035  0  0  0.042927  0  3.901716  0  0  0.044583  0  3.908296  0  0  -0.000869  0.041528  0  3.897586  0
C  C46  1  0.33999275  0.00177058  0.85795782  1  0  0.073185  0  3.642002  0  0  0.043176  0  3.901435  0  0  0.04484  0  3.908014  0  0  -0.000823  0.041749  0  3.897326  0
C  C47  1  0.66001287  0.49823040  0.35795720  1  0  0.073105  0  3.642062  0  0  0.043112  0  3.901509  0  0  0.044772  0  3.908089  0  0  -0.000871  0.041689  0  3.897391  0
C  C48  1  0.44602709  0.06382800  0.11951415  1  0  0.666248  0  3.839715  0  0  0.600741  0  4.16445  0  0  0.633745  0  4.156143  0  0  0.226384  0.578223  0  4.169684  0
C  C49  1  0.55397068  0.43617135  0.61951607  1  0  0.666149  0  3.839698  0  0  0.600634  0  4.16453  0  0  0.633644  0  4.156225  0  0  0.226384  0.578105  0  4.169771  0
C  C50  1  0.55396618  0.93616217  0.88048793  1  0  0.665893  0  3.840004  0  0  0.600461  0  4.164676  0  0  0.633466  0  4.156375  0  0  0.226219  0.577945  0  4.169904  0
C  C51  1  0.44603632  0.56383673  0.38048600  1  0  0.665963  0  3.840044  0  0  0.600505  0  4.164734  0  0  0.633515  0  4.156429  0  0  0.226275  0.577988  0  4.169959  0
O  O52  1  0.72508802  0.97360814  0.42323350  1  0  -0.678448  0  2.022198  0  0  -0.604644  0  2.245827  0  0  -0.630395  0  2.235008  0  0  -0.325964  -0.586786  0  2.25283  0
O  O53  1  0.27491658  0.52639070  0.92323859  1  0  -0.678429  0  2.021936  0  0  -0.604645  0  2.245641  0  0  -0.630393  0  2.234816  0  0  -0.32596  -0.586795  0  2.252662  0
O  O54  1  0.27491612  0.02639597  0.57676164  1  0  -0.678634  0  2.021424  0  0  -0.604715  0  2.245076  0  0  -0.630471  0  2.234249  0  0  -0.326056  -0.586881  0  2.25214  0
O  O55  1  0.72508501  0.47360445  0.07676040  1  0  -0.67875  0  2.021445  0  0  -0.604758  0  2.245054  0  0  -0.630509  0  2.234225  0  0  -0.326076  -0.586926  0  2.252121  0
O  O56  1  0.57024193  0.12731843  0.33329122  1  0  -0.632053  0  2.008007  0  0  -0.571203  0  2.235238  0  0  -0.595531  0  2.223448  0  0  -0.306037  -0.55429  0  2.243163  0
O  O57  1  0.42976030  0.37268357  0.83329455  1  0  -0.632089  0  2.008272  0  0  -0.571199  0  2.235532  0  0  -0.595525  0  2.22374  0  0  -0.306053  -0.554287  0  2.243456  0
O  O58  1  0.42976333  0.87269562  0.66671085  1  0  -0.63211  0  2.008758  0  0  -0.571257  0  2.236125  0  0  -0.595579  0  2.224329  0  0  -0.306087  -0.554345  0  2.244045  0
O  O59  1  0.57023959  0.62730561  0.16671061  1  0  -0.632146  0  2.008674  0  0  -0.57127  0  2.236052  0  0  -0.595592  0  2.224255  0  0  -0.30608  -0.554359  0  2.243975  0
O  O60  1  0.79931942  0.83893565  0.25844822  1  0  -0.605521  0  2.144514  0  0  -0.554008  0  2.373318  0  0  -0.568501  0  2.360987  0  0  -0.413908  -0.543679  0  2.381712  0
O  O61  1  0.20068201  0.66106345  0.75845143  1  0  -0.605573  0  2.144651  0  0  -0.55405  0  2.373406  0  0  -0.568542  0  2.361077  0  0  -0.413924  -0.543717  0  2.381801  0
O  O62  1  0.20068702  0.16107045  0.74155231  1  0  -0.605482  0  2.144557  0  0  -0.553996  0  2.373286  0  0  -0.568491  0  2.360956  0  0  -0.413899  -0.543659  0  2.381682  0
O  O63  1  0.79932102  0.33893071  0.24155141  1  0  -0.605496  0  2.144632  0  0  -0.553986  0  2.373368  0  0  -0.568479  0  2.36104  0  0  -0.413907  -0.543646  0  2.381762  0
O  O64  1  0.86549393  0.09548649  0.13283828  1  0  -0.636052  0  2.139487  0  0  -0.572097  0  2.368175  0  0  -0.58778  0  2.351832  0  0  -0.414443  -0.560655  0  2.37867  0
O  O65  1  0.13450022  0.40451185  0.63283870  1  0  -0.636051  0  2.13947  0  0  -0.572056  0  2.368207  0  0  -0.587744  0  2.351865  0  0  -0.414419  -0.560625  0  2.378705  0
O  O66  1  0.13450648  0.90451662  0.86715994  1  0  -0.636153  0  2.139456  0  0  -0.572193  0  2.368184  0  0  -0.587874  0  2.351798  0  0  -0.414464  -0.560754  0  2.378679  0
O  O67  1  0.86549504  0.59548529  0.36716029  1  0  -0.636098  0  2.139449  0  0  -0.572124  0  2.368181  0  0  -0.5878  0  2.351807  0  0  -0.41444  -0.560685  0  2.378675  0
O  O68  1  0.24704235  0.99105730  0.12347063  1  0  -0.602938  0  2.012735  0  0  -0.542787  0  2.23895  0  0  -0.567631  0  2.227351  0  0  -0.291918  -0.525128  0  2.246434  0
O  O69  1  0.75295156  0.50894399  0.62347201  1  0  -0.602856  0  2.012743  0  0  -0.542696  0  2.238961  0  0  -0.567552  0  2.227367  0  0  -0.291906  -0.525036  0  2.246452  0
O  O70  1  0.75297041  0.00894681  0.87652913  1  0  -0.602834  0  2.0123  0  0  -0.542752  0  2.23854  0  0  -0.567606  0  2.226943  0  0  -0.291888  -0.525088  0  2.246007  0
O  O71  1  0.24703050  0.49104916  0.37652467  1  0  -0.602851  0  2.01241  0  0  -0.54276  0  2.238637  0  0  -0.567626  0  2.227048  0  0  -0.291914  -0.525092  0  2.246098  0
O  O72  1  0.48394816  0.18633539  0.09482172  1  0  -0.705375  0  2.108046  0  0  -0.640787  0  2.352362  0  0  -0.665134  0  2.340259  0  0  -0.332874  -0.624065  0  2.360448  0
O  O73  1  0.51604306  0.31366599  0.59481990  1  0  -0.705324  0  2.108082  0  0  -0.640724  0  2.352409  0  0  -0.665056  0  2.340278  0  0  -0.332897  -0.624002  0  2.360502  0
O  O74  1  0.51605310  0.81367071  0.90517727  1  0  -0.705176  0  2.108735  0  0  -0.64058  0  2.352976  0  0  -0.664921  0  2.340874  0  0  -0.332764  -0.623861  0  2.361049  0
O  O75  1  0.48394215  0.68632616  0.40517293  1  0  -0.705189  0  2.108657  0  0  -0.64055  0  2.352854  0  0  -0.664902  0  2.340776  0  0  -0.332769  -0.623832  0  2.360924  0
O  O76  1  0.79783688  0.77208499  0.57644779  1  0  -0.894533  0  1.806233  0  0  -0.841717  0  1.98731  0  0  -0.858256  0  1.954035  0  0  -0.614859  -0.83019  0  2.010782  0
O  O77  1  0.20215978  0.72791538  0.07644980  1  0  -0.894508  0  1.806196  0  0  -0.841725  0  1.987317  0  0  -0.858264  0  1.954045  0  0  -0.614827  -0.830178  0  2.010757  0
O  O78  1  0.20216412  0.22791414  0.42354966  1  0  -0.894433  0  1.806339  0  0  -0.841651  0  1.98737  0  0  -0.858192  0  1.954095  0  0  -0.614851  -0.830113  0  2.010838  0
O  O79  1  0.79783833  0.27208574  0.92354919  1  0  -0.894498  0  1.806223  0  0  -0.84171  0  1.987342  0  0  -0.858252  0  1.954067  0  0  -0.614859  -0.830167  0  2.010794  0
O  O80  1  0.17529905  0.84961314  0.42411814  1  0  -0.917632  0  1.812277  0  0  -0.863738  0  2.00668  0  0  -0.881619  0  1.971665  0  0  -0.633212  -0.851159  0  2.031138  0
O  O81  1  0.82470212  0.65038570  0.92411791  1  0  -0.917729  0  1.812193  0  0  -0.86384  0  2.006629  0  0  -0.881722  0  1.971616  0  0  -0.633257  -0.851257  0  2.031088  0
O  O82  1  0.82470337  0.15039097  0.57588239  1  0  -0.917717  0  1.812185  0  0  -0.863821  0  2.006599  0  0  -0.881703  0  1.971577  0  0  -0.633264  -0.851233  0  2.031054  0
O  O83  1  0.17529515  0.34961244  0.07588263  1  0  -0.917709  0  1.812174  0  0  -0.863827  0  2.006575  0  0  -0.881708  0  1.971558  0  0  -0.633255  -0.851236  0  2.031031  0
