# generated using pymatgen
data_Cd2H27C25N5O11
_symmetry_space_group_name_H-M   'P 1'
_cell_length_a   12.78684658
_cell_length_b   15.23613160
_cell_length_c   23.63242833
_cell_angle_alpha   90.00000151
_cell_angle_beta   90.00003844
_cell_angle_gamma   89.99987288
_symmetry_Int_Tables_number   1
_chemical_formula_structural   Cd2H27C25N5O11
_chemical_formula_sum   'Cd8 H108 C100 N20 O44'
_cell_volume   4604.11877803
_cell_formula_units_Z   4
loop_
 _symmetry_equiv_pos_site_id
 _symmetry_equiv_pos_as_xyz
  1  'x, y, z'
loop_
 _atom_site_type_symbol
 _atom_site_label
 _atom_site_symmetry_multiplicity
 _atom_site_fract_x
 _atom_site_fract_y
 _atom_site_fract_z
 _atom_site_occupancy
 _atom_site_pbe_bader_charge
 _atom_site_pbe_bader_spin_density
 _atom_site_pbe_cm5_charge
 _atom_site_pbe_ddec_charge
 _atom_site_pbe_ddec_spin_density
 _atom_site_pbe_ddec_sum_bond_order
 _atom_site_pbe_magmom
Cd  Cd0  1  0.35947932  0.35924375  0.38106121  1  1.381889  0  0.792544  1.074119  0  2.158928  0
Cd  Cd1  1  0.85947962  0.64075700  0.61893910  1  1.381897  0  0.792515  1.074085  0  2.158939  0
Cd  Cd2  1  0.35947992  0.14075720  0.88106103  1  1.381931  0  0.792505  1.074071  0  2.158927  0
Cd  Cd3  1  0.85947902  0.85924290  0.11893885  1  1.381919  0  0.792555  1.074121  0  2.15892  0
Cd  Cd4  1  0.25441692  0.22447473  0.49915950  1  1.298484  0  0.757421  0.985665  0  2.10678  0
Cd  Cd5  1  0.75441750  0.77552359  0.50084203  1  1.29855  0  0.757405  0.985614  0  2.106878  0
Cd  Cd6  1  0.25441638  0.27552379  0.99916102  1  1.298529  0  0.757424  0.985654  0  2.106787  0
Cd  Cd7  1  0.75441804  0.72447584  0.00084009  1  1.298536  0  0.757405  0.985665  0  2.106781  0
H  H8  1  0.04343493  0.49108788  0.50805699  1  0.116477  0  0.103125  0.102767  0  1.046637  0
H  H9  1  0.54343151  0.50891149  0.49194489  1  0.116597  0  0.103072  0.102669  0  1.046689  0
H  H10  1  0.04343682  0.00891036  0.00805800  1  0.116475  0  0.103103  0.102706  0  1.046639  0
H  H11  1  0.54343196  0.99108835  0.99194303  1  0.11655  0  0.103082  0.102687  0  1.046644  0
H  H12  1  0.93622161  0.63745294  0.36375035  1  0.108333  0  0.111934  0.118396  0  1.026263  0
H  H13  1  0.43622240  0.36254701  0.63625294  1  0.10831  0  0.111957  0.118399  0  1.026246  0
H  H14  1  0.93622241  0.86254814  0.86375060  1  0.10837  0  0.111909  0.118387  0  1.02619  0
H  H15  1  0.43622395  0.13745247  0.13625142  1  0.108372  0  0.111937  0.118401  0  1.026144  0
H  H16  1  0.12334048  0.40503971  0.33994816  1  0.146352  0  0.1115  0.116124  0  1.026589  0
H  H17  1  0.62334096  0.59496213  0.66005290  1  0.146307  0  0.111544  0.116226  0  1.026507  0
H  H18  1  0.12334277  0.09496101  0.83994925  1  0.146354  0  0.11152  0.116177  0  1.026524  0
H  H19  1  0.62334258  0.90503689  0.16005138  1  0.146311  0  0.111511  0.116154  0  1.026546  0
H  H20  1  0.95774678  0.61953498  0.20166249  1  0.147116  0  0.109472  0.117356  0  1.01974  0
H  H21  1  0.45774694  0.38046427  0.79833997  1  0.147146  0  0.109478  0.117364  0  1.019734  0
H  H22  1  0.95774674  0.88046671  0.70166358  1  0.147132  0  0.109504  0.117347  0  1.019775  0
H  H23  1  0.45774619  0.11953320  0.29833718  1  0.147186  0  0.109501  0.117371  0  1.019747  0
H  H24  1  0.99850433  0.51129486  0.03450024  1  0.152148  0  0.110737  0.121776  0  0.993564  0
H  H25  1  0.49850050  0.48870628  0.96550265  1  0.152123  0  0.110738  0.121778  0  0.993594  0
H  H26  1  0.99850322  0.98870543  0.53450091  1  0.152169  0  0.110732  0.121787  0  0.993599  0
H  H27  1  0.49850551  0.01129375  0.46550113  1  0.152122  0  0.11075  0.121782  0  0.993575  0
H  H28  1  0.13436033  0.38114649  0.17859192  1  0.087125  0  0.109622  0.115869  0  1.01813  0
H  H29  1  0.63435703  0.61885467  0.82141084  1  0.08736  0  0.109585  0.11581  0  1.018218  0
H  H30  1  0.13436021  0.11885420  0.67859174  1  0.087285  0  0.109617  0.115866  0  1.018135  0
H  H31  1  0.63436107  0.88114368  0.32141017  1  0.087291  0  0.109633  0.115881  0  1.018187  0
H  H32  1  0.33342967  0.47488467  0.26300266  1  0.105116  0  0.120878  0.045805  0  0.996916  0
H  H33  1  0.83342886  0.52511547  0.73699678  1  0.105133  0  0.120891  0.045832  0  0.996883  0
H  H34  1  0.33342901  0.02511500  0.76300248  1  0.105088  0  0.120891  0.04584  0  0.99692  0
H  H35  1  0.83343030  0.97488448  0.23699570  1  0.105119  0  0.120863  0.045798  0  0.996892  0
H  H36  1  0.40394614  0.25791877  0.21171975  1  0.068485  0  0.107779  0.123936  0  0.999389  0
H  H37  1  0.90394404  0.74208189  0.78828015  1  0.068428  0  0.107765  0.123924  0  0.999404  0
H  H38  1  0.40394412  0.24208143  0.71171873  1  0.068458  0  0.107792  0.123954  0  0.999378  0
H  H39  1  0.90394527  0.75791858  0.28828074  1  0.068454  0  0.107763  0.123928  0  0.999373  0
H  H40  1  0.41905532  0.29664053  0.13991884  1  0.107485  0  0.10927  0.129635  0  0.988638  0
H  H41  1  0.91905341  0.70335945  0.86008106  1  0.10753  0  0.109288  0.1297  0  0.988594  0
H  H42  1  0.41905263  0.20335964  0.63991781  1  0.107508  0  0.109277  0.129666  0  0.988597  0
H  H43  1  0.91905454  0.79664165  0.36008166  1  0.107512  0  0.109302  0.129694  0  0.988577  0
H  H44  1  0.29308295  0.27108560  0.16582432  1  0.086583  0  0.108231  0.136771  0  0.987496  0
H  H45  1  0.79308016  0.72891461  0.83417511  1  0.086528  0  0.108269  0.136848  0  0.987421  0
H  H46  1  0.29307941  0.22891480  0.66582372  1  0.086522  0  0.108255  0.136799  0  0.987454  0
H  H47  1  0.79308136  0.77108607  0.33417571  1  0.086569  0  0.108232  0.13677  0  0.987462  0
H  H48  1  0.35582366  0.52201800  0.17639371  1  0.042146  0  0.110293  0.118147  0  0.990029  0
H  H49  1  0.85582465  0.47798275  0.82360532  1  0.042136  0  0.110301  0.118175  0  0.990043  0
H  H50  1  0.35582493  0.97798283  0.67639311  1  0.042169  0  0.110308  0.118145  0  0.990056  0
H  H51  1  0.85582494  0.02201792  0.32360550  1  0.042123  0  0.110295  0.118182  0  0.990021  0
H  H52  1  0.31130454  0.44890368  0.12205692  1  0.107413  0  0.108826  0.134923  0  1.005867  0
H  H53  1  0.81130540  0.55109650  0.87794252  1  0.107439  0  0.108842  0.134958  0  1.005829  0
H  H54  1  0.31130459  0.05109734  0.62205589  1  0.107376  0  0.108829  0.134907  0  1.005875  0
H  H55  1  0.81130534  0.94890350  0.37794270  1  0.107444  0  0.108836  0.134957  0  1.005849  0
H  H56  1  0.44783155  0.45796360  0.13698051  1  0.093794  0  0.110593  0.124624  0  0.968447  0
H  H57  1  0.94783242  0.54203698  0.86301898  1  0.093787  0  0.110582  0.124601  0  0.968452  0
H  H58  1  0.44783319  0.04203848  0.63697990  1  0.093738  0  0.110613  0.124622  0  0.968476  0
H  H59  1  0.94783390  0.95796276  0.36301874  1  0.094169  0  0.11058  0.124616  0  0.968481  0
H  H60  1  0.59950963  0.33163022  0.41868032  1  0.0897  0  0.12278  0.049486  0  0.977482  0
H  H61  1  0.09951033  0.66837233  0.58131777  1  0.089618  0  0.122785  0.049451  0  0.977579  0
H  H62  1  0.59951016  0.16837094  0.91867972  1  0.089698  0  0.122792  0.04949  0  0.977499  0
H  H63  1  0.09951215  0.83162701  0.08132006  1  0.089644  0  0.122775  0.04947  0  0.977551  0
H  H64  1  0.77475207  0.46639720  0.47654068  1  0.092197  0  0.106721  0.129691  0  0.990055  0
H  H65  1  0.27475227  0.53360502  0.52345705  1  0.092166  0  0.106722  0.12966  0  0.990117  0
H  H66  1  0.77475295  0.03360297  0.97654050  1  0.092223  0  0.106719  0.12965  0  0.990058  0
H  H67  1  0.27475295  0.96639728  0.02345850  1  0.09217  0  0.106704  0.129645  0  0.990091  0
H  H68  1  0.84270476  0.40691747  0.42289237  1  0.062478  0  0.104708  0.122717  0  0.988673  0
H  H69  1  0.34270643  0.59308462  0.57710496  1  0.062617  0  0.104711  0.122694  0  0.988628  0
H  H70  1  0.84270548  0.09308323  0.92289219  1  0.062459  0  0.104708  0.122713  0  0.988665  0
H  H71  1  0.34270649  0.90691689  0.07710641  1  0.062454  0  0.104716  0.122709  0  0.988671  0
H  H72  1  0.74328238  0.35366323  0.46366895  1  0.079649  0  0.110754  0.120152  0  0.98921  0
H  H73  1  0.24328307  0.64633773  0.53632919  1  0.079572  0  0.110727  0.120067  0  0.989281  0
H  H74  1  0.74328374  0.14633765  0.96366835  1  0.079641  0  0.110762  0.120123  0  0.989251  0
H  H75  1  0.24328327  0.85366266  0.03633022  1  0.079623  0  0.110748  0.120126  0  0.989245  0
H  H76  1  0.63704868  0.53617554  0.34504888  1  0.097194  0  0.112298  0.132009  0  0.993716  0
H  H77  1  0.13705000  0.46382759  0.65494838  1  0.097217  0  0.112311  0.132019  0  0.993786  0
H  H78  1  0.63704764  0.96382544  0.84504955  1  0.097203  0  0.112307  0.132018  0  0.993731  0
H  H79  1  0.13704635  0.03617376  0.15494940  1  0.097134  0  0.112321  0.132017  0  0.993733  0
H  H80  1  0.77605638  0.52333160  0.34915682  1  0.074791  0  0.104645  0.120049  0  0.993197  0
H  H81  1  0.27605689  0.47666996  0.65084092  1  0.074832  0  0.104695  0.120072  0  0.993172  0
H  H82  1  0.77605531  0.97666715  0.84915664  1  0.074827  0  0.104658  0.120052  0  0.993235  0
H  H83  1  0.27605405  0.02333178  0.15084236  1  0.07483  0  0.104676  0.120058  0  0.993235  0
H  H84  1  0.70765637  0.57865410  0.40486754  1  0.107542  0  0.108656  0.136544  0  0.997892  0
H  H85  1  0.20765695  0.42134824  0.59513017  1  0.107592  0  0.108639  0.136503  0  0.997945  0
H  H86  1  0.70765623  0.92134674  0.90486779  1  0.107568  0  0.108632  0.136523  0  0.99792  0
H  H87  1  0.20765475  0.07865232  0.09513203  1  0.107646  0  0.10865  0.136513  0  0.997957  0
H  H88  1  0.45537373  0.54973230  0.41287344  1  0.108965  0  0.123505  0.051505  0  1.017558  0
H  H89  1  0.95537918  0.45027155  0.58712520  1  0.109214  0  0.123486  0.05135  0  1.017565  0
H  H90  1  0.45537820  0.95026902  0.91287412  1  0.108874  0  0.123488  0.051345  0  1.01756  0
H  H91  1  0.95537862  0.04972827  0.08712453  1  0.109235  0  0.12349  0.051367  0  1.017544  0
H  H92  1  0.50343623  0.68372690  0.43278804  1  0.124315  0  0.110923  0.138824  0  1.023375  0
H  H93  1  0.00344097  0.31627386  0.56721044  1  0.124343  0  0.11093  0.138873  0  1.023211  0
H  H94  1  0.50343871  0.81627105  0.93278871  1  0.124329  0  0.110926  0.138822  0  1.023279  0
H  H95  1  0.00343849  0.18372774  0.06720935  1  0.124246  0  0.11092  0.138797  0  1.023313  0
H  H96  1  0.40121391  0.76070585  0.44534196  1  0.052663  0  0.107773  0.123699  0  0.975629  0
H  H97  1  0.90121675  0.23929613  0.55465624  1  0.052657  0  0.107788  0.123713  0  0.97559  0
H  H98  1  0.40121425  0.73929491  0.94534305  1  0.052643  0  0.107818  0.123724  0  0.975623  0
H  H99  1  0.90121172  0.26070313  0.05465430  1  0.052602  0  0.107762  0.123668  0  0.975638  0
H  H100  1  0.46586703  0.75927235  0.37855620  1  0.064  0  0.103945  0.121162  0  0.986648  0
H  H101  1  0.96586839  0.24072885  0.62144245  1  0.064073  0  0.103918  0.121063  0  0.986649  0
H  H102  1  0.46586736  0.74072632  0.87855687  1  0.064011  0  0.103886  0.121041  0  0.986638  0
H  H103  1  0.96586649  0.25927226  0.12144094  1  0.064091  0  0.103921  0.121069  0  0.986676  0
H  H104  1  0.26365853  0.67673584  0.32113210  1  0.052519  0  0.108299  0.121866  0  0.972028  0
H  H105  1  0.76366208  0.32326968  0.67886521  1  0.052608  0  0.108252  0.121845  0  0.97206  0
H  H106  1  0.26366177  0.82326845  0.82113277  1  0.052539  0  0.10827  0.121845  0  0.972011  0
H  H107  1  0.76366353  0.17673050  0.17886623  1  0.052578  0  0.108246  0.12183  0  0.972064  0
H  H108  1  0.25530769  0.75602763  0.37679290  1  0.069099  0  0.114853  0.127859  0  0.974894  0
H  H109  1  0.75530982  0.24397594  0.62320482  1  0.069171  0  0.114806  0.127774  0  0.975006  0
H  H110  1  0.25531036  0.74397406  0.87679315  1  0.069146  0  0.114807  0.127794  0  0.974974  0
H  H111  1  0.75531184  0.25602426  0.12320500  1  0.069163  0  0.114808  0.127785  0  0.974991  0
H  H112  1  0.19676017  0.64974808  0.38465370  1  0.107684  0  0.106156  0.12475  0  1.007998  0
H  H113  1  0.69676358  0.35025690  0.61534316  1  0.107253  0  0.106148  0.12475  0  1.007965  0
H  H114  1  0.19676334  0.85025503  0.88465479  1  0.107301  0  0.106166  0.124784  0  1.007946  0
H  H115  1  0.69676275  0.14974471  0.11534375  1  0.107264  0  0.106138  0.124733  0  1.008025  0
C  C116  1  0.14789162  0.36624310  0.45292767  1  1.532375  0  0.19966  0.573034  0  4.196542  0
C  C117  1  0.64789106  0.63375542  0.54707213  1  1.532325  0  0.199649  0.572987  0  4.196639  0
C  C118  1  0.14789223  0.13375562  0.95292834  1  1.53232  0  0.199612  0.572972  0  4.196544  0
C  C119  1  0.64789045  0.86624356  0.04707104  1  1.532329  0  0.199584  0.57287  0  4.196659  0
C  C120  1  0.09118010  0.44157067  0.42679873  1  -0.070958  0  -0.018915  -0.030336  0  3.999303  0
C  C121  1  0.59117978  0.55842795  0.57320316  1  -0.070937  0  -0.018897  -0.030139  0  3.999231  0
C  C122  1  0.09118091  0.05842815  0.92680025  1  -0.071031  0  -0.018944  -0.030346  0  3.999387  0
C  C123  1  0.59117818  0.94156982  0.07320038  1  -0.071128  0  -0.018947  -0.030249  0  3.999228  0
C  C124  1  0.04040599  0.50115540  0.46254368  1  -0.021383  0  -0.075601  -0.103044  0  3.938882  0
C  C125  1  0.54040578  0.49884398  0.53745778  1  -0.021684  0  -0.075596  -0.103113  0  3.93855  0
C  C126  1  0.04040721  0.99884341  0.96254266  1  -0.021561  0  -0.07559  -0.103081  0  3.93884  0
C  C127  1  0.54040457  0.00115530  0.03745753  1  -0.021554  0  -0.075564  -0.103031  0  3.938752  0
C  C128  1  0.98456517  0.57179318  0.44039293  1  0.01194  0  -0.023142  -0.038631  0  4.006572  0
C  C129  1  0.48456257  0.42820536  0.55960953  1  0.012109  0  -0.023103  -0.038496  0  4.00627  0
C  C130  1  0.98456501  0.92820649  0.94039318  1  0.01206  0  -0.023123  -0.038481  0  4.006449  0
C  C131  1  0.48456273  0.07179271  0.05960844  1  0.0121  0  -0.023115  -0.038555  0  4.006443  0
C  C132  1  0.92281808  0.63014860  0.47939060  1  1.589253  0  0.203541  0.585203  0  4.239316  0
C  C133  1  0.42281714  0.36985071  0.52061184  1  1.589254  0  0.203505  0.585051  0  4.239397  0
C  C134  1  0.92282042  0.86984791  0.97938958  1  1.589213  0  0.203567  0.585138  0  4.239242  0
C  C135  1  0.42281714  0.13015010  0.02061074  1  1.589273  0  0.203545  0.585173  0  4.239423  0
C  C136  1  0.98036471  0.58312677  0.38176501  1  -0.113987  0  -0.070302  -0.155738  0  3.927077  0
C  C137  1  0.48036377  0.41687507  0.61823702  1  -0.113975  0  -0.070236  -0.15569  0  3.926941  0
C  C138  1  0.98036380  0.91687619  0.88176484  1  -0.113934  0  -0.07023  -0.155774  0  3.926965  0
C  C139  1  0.48036469  0.08312302  0.11823593  1  -0.113947  0  -0.070235  -0.155726  0  3.926948  0
C  C140  1  0.02977309  0.52300741  0.34566783  1  0.369204  0  0.082581  0.151862  0  4.066785  0
C  C141  1  0.52977386  0.47699330  0.65433362  1  0.369001  0  0.082502  0.151865  0  4.066847  0
C  C142  1  0.02977436  0.97699404  0.84566850  1  0.369554  0  0.082574  0.151888  0  4.066817  0
C  C143  1  0.52977494  0.02300535  0.15433252  1  0.369585  0  0.082522  0.151818  0  4.066887  0
C  C144  1  0.08573461  0.45179899  0.36822413  1  0.02673  0  -0.066729  -0.128162  0  3.883285  0
C  C145  1  0.58573673  0.54820227  0.63177607  1  0.026785  0  -0.066786  -0.128424  0  3.88341  0
C  C146  1  0.08573702  0.04820180  0.86822522  1  0.026756  0  -0.066737  -0.12818  0  3.883179  0
C  C147  1  0.58573589  0.95179552  0.13177498  1  0.026797  0  -0.066716  -0.1282  0  3.883161  0
C  C148  1  0.04400875  0.49728826  0.19674577  1  0.358435  0  0.078228  0.151934  0  4.077507  0
C  C149  1  0.54401043  0.50271045  0.80325569  1  0.358402  0  0.078277  0.151913  0  4.077543  0
C  C150  1  0.04400659  0.00271260  0.69674686  1  0.358462  0  0.078227  0.151993  0  4.077512  0
C  C151  1  0.54400946  0.99728545  0.30325502  1  0.358385  0  0.0782  0.151886  0  4.07759  0
C  C152  1  0.98813743  0.56845505  0.17399627  1  -0.00886  0  -0.07298  -0.1448  0  3.895576  0
C  C153  1  0.48813828  0.43154414  0.82600450  1  -0.008857  0  -0.073022  -0.144784  0  3.895649  0
C  C154  1  0.98813492  0.93154723  0.67399567  1  -0.008882  0  -0.072946  -0.144661  0  3.89564  0
C  C155  1  0.48813688  0.06845394  0.32600341  1  -0.008864  0  -0.072977  -0.144732  0  3.895537  0
C  C156  1  0.97162355  0.57298706  0.11584778  1  -0.042532  0  -0.013253  -0.016244  0  3.973379  0
C  C157  1  0.47162213  0.42701479  0.88415341  1  -0.042155  0  -0.013178  -0.016242  0  3.973431  0
C  C158  1  0.97162261  0.92701197  0.61585014  1  -0.042437  0  -0.013315  -0.016417  0  3.973602  0
C  C159  1  0.47162463  0.07298529  0.38415231  1  -0.042511  0  -0.013223  -0.016277  0  3.973406  0
C  C160  1  0.91147647  0.64903398  0.09159296  1  1.598958  0  0.213424  0.60765  0  4.203511  0
C  C161  1  0.41147372  0.35096667  0.90840863  1  1.599025  0  0.213421  0.607674  0  4.203565  0
C  C162  1  0.91147495  0.85096516  0.59159532  1  1.598921  0  0.213472  0.607786  0  4.203525  0
C  C163  1  0.41147602  0.14903286  0.40840753  1  1.598955  0  0.213437  0.607722  0  4.20363  0
C  C164  1  0.01195776  0.50793601  0.07997782  1  -0.068273  0  -0.066537  -0.091845  0  3.890192  0
C  C165  1  0.51195492  0.49206473  0.92002362  1  -0.068925  0  -0.06653  -0.091799  0  3.890175  0
C  C166  1  0.01195821  0.99206219  0.57997807  1  -0.068374  0  -0.066497  -0.091803  0  3.890092  0
C  C167  1  0.51195837  0.00793527  0.42002252  1  -0.068438  0  -0.066533  -0.091818  0  3.890216  0
C  C168  1  0.07334986  0.44023438  0.10213510  1  0.039962  0  -0.019396  -0.025806  0  4.000202  0
C  C169  1  0.57334681  0.55976690  0.89786848  1  0.040074  0  -0.019468  -0.025971  0  4.000261  0
C  C170  1  0.07335067  0.05976511  0.60213534  1  0.039927  0  -0.01941  -0.025828  0  4.000082  0
C  C171  1  0.57335147  0.94023354  0.39786782  1  0.040086  0  -0.019508  -0.02595  0  4.000315  0
C  C172  1  0.12888276  0.37795868  0.06333757  1  1.562527  0  0.184165  0.546152  0  4.259989  0
C  C173  1  0.62888116  0.62204250  0.93666476  1  1.562532  0  0.184229  0.546188  0  4.259842  0
C  C174  1  0.12888185  0.12204071  0.56333655  1  1.562659  0  0.184237  0.546171  0  4.259863  0
C  C175  1  0.62888599  0.87795850  0.43666367  1  1.562444  0  0.184228  0.546159  0  4.260005  0
C  C176  1  0.08809396  0.43439627  0.16069574  1  -0.09526  0  -0.073943  -0.160034  0  3.927891  0
C  C177  1  0.58809238  0.56560564  0.83930700  1  -0.09533  0  -0.073925  -0.159894  0  3.927964  0
C  C178  1  0.08809397  0.06560517  0.66069556  1  -0.095422  0  -0.073949  -0.160055  0  3.92791  0
C  C179  1  0.58809472  0.93439346  0.33930549  1  -0.095382  0  -0.073875  -0.159944  0  3.927916  0
C  C180  1  0.33765050  0.40471331  0.25155272  1  1.365231  0  0.175516  0.298355  0  4.107245  0
C  C181  1  0.83764795  0.59528748  0.74844715  1  1.365201  0  0.17551  0.298366  0  4.107078  0
C  C182  1  0.33764809  0.09528570  0.75155211  1  1.36521  0  0.17551  0.298311  0  4.107145  0
C  C183  1  0.83765036  0.90471247  0.24844606  1  1.365211  0  0.175541  0.298367  0  4.107219  0
C  C184  1  0.36971245  0.29776816  0.17783368  1  0.225952  0  -0.133529  -0.275772  0  3.877878  0
C  C185  1  0.86971049  0.70223192  0.82216578  1  0.226024  0  -0.133604  -0.275949  0  3.877841  0
C  C186  1  0.36970976  0.20223210  0.67783350  1  0.226011  0  -0.133555  -0.275856  0  3.877844  0
C  C187  1  0.86971162  0.79776862  0.32216553  1  0.225986  0  -0.133542  -0.275827  0  3.877861  0
C  C188  1  0.36916557  0.45847627  0.15581224  1  0.24712  0  -0.125355  -0.274578  0  3.90993  0
C  C189  1  0.86916641  0.54152315  0.84418721  1  0.247129  0  -0.12535  -0.274584  0  3.909907  0
C  C190  1  0.36916565  0.04152333  0.65581122  1  0.247156  0  -0.125342  -0.27451  0  3.910048  0
C  C191  1  0.86916711  0.95847740  0.34418697  1  0.24673  0  -0.125334  -0.274626  0  3.910093  0
C  C192  1  0.60238202  0.39256563  0.39329402  1  1.390658  0  0.172662  0.302293  0  4.119344  0
C  C193  1  0.10238291  0.60743757  0.60670534  1  1.39063  0  0.17264  0.302383  0  4.119371  0
C  C194  1  0.60238427  0.10743486  0.89329299  1  1.390666  0  0.172699  0.302297  0  4.119438  0
C  C195  1  0.10238379  0.89256177  0.10670679  1  1.390637  0  0.172628  0.302346  0  4.119282  0
C  C196  1  0.76647330  0.41569602  0.44370698  1  0.228145  0  -0.127112  -0.27399  0  3.90918  0
C  C197  1  0.26647340  0.58430621  0.55629075  1  0.228017  0  -0.127071  -0.273787  0  3.909229  0
C  C198  1  0.76647405  0.08430482  0.94370680  1  0.228135  0  -0.127107  -0.273928  0  3.909126  0
C  C199  1  0.26647422  0.91569544  0.05629177  1  0.228182  0  -0.127086  -0.273896  0  3.909182  0
C  C200  1  0.70304621  0.52522782  0.37369808  1  0.201509  0  -0.131201  -0.270321  0  3.867135  0
C  C201  1  0.20304670  0.47477322  0.62629878  1  0.201403  0  -0.13123  -0.270248  0  3.867234  0
C  C202  1  0.70304593  0.97477238  0.87369833  1  0.201461  0  -0.131176  -0.270321  0  3.867174  0
C  C203  1  0.20304463  0.02522603  0.12630107  1  0.201383  0  -0.131254  -0.270314  0  3.867343  0
C  C204  1  0.38078376  0.56802441  0.39276335  1  1.363534  0  0.171681  0.300939  0  4.092676  0
C  C205  1  0.88078851  0.43197826  0.60723653  1  1.363274  0  0.171752  0.30111  0  4.092532  0
C  C206  1  0.38078828  0.93197639  0.89276360  1  1.363504  0  0.171735  0.301181  0  4.09241  0
C  C207  1  0.88078633  0.06802235  0.10723586  1  1.363256  0  0.171745  0.301122  0  4.09284  0
C  C208  1  0.43698899  0.71783470  0.41333848  1  0.248955  0  -0.129724  -0.282631  0  3.906424  0
C  C209  1  0.93699176  0.28216656  0.58665931  1  0.24901  0  -0.129698  -0.28258  0  3.905997  0
C  C210  1  0.43699000  0.78216534  0.91333957  1  0.248907  0  -0.129688  -0.282477  0  3.906089  0
C  C211  1  0.93698997  0.21783395  0.08665864  1  0.249159  0  -0.129681  -0.282465  0  3.906151  0
C  C212  1  0.26360771  0.68601641  0.36729028  1  0.234408  0  -0.127426  -0.263938  0  3.897566  0
C  C213  1  0.76361045  0.31398779  0.63270744  1  0.234723  0  -0.127301  -0.263875  0  3.897538  0
C  C214  1  0.26361020  0.81398591  0.86729095  1  0.234701  0  -0.12734  -0.263878  0  3.897466  0
C  C215  1  0.76360953  0.18601304  0.13270804  1  0.234718  0  -0.127297  -0.263855  0  3.897585  0
N  N216  1  0.01512282  0.53821338  0.28713428  1  -0.492224  0  -0.155482  -0.14475  0  3.287164  0
N  N217  1  0.51512293  0.46178801  0.71286717  1  -0.492038  0  -0.155511  -0.144718  0  3.287288  0
N  N218  1  0.01512335  0.96178744  0.78713537  1  -0.493141  0  -0.155427  -0.14464  0  3.287129  0
N  N219  1  0.51512474  0.03821132  0.21286565  1  -0.493104  0  -0.155468  -0.144623  0  3.287268  0
N  N220  1  0.06142905  0.48402635  0.25515788  1  -0.503323  0  -0.148571  -0.126066  0  3.288071  0
N  N221  1  0.56143062  0.51597364  0.74484358  1  -0.503342  0  -0.148558  -0.126103  0  3.288168  0
N  N222  1  0.06142998  0.01597514  0.75515728  1  -0.502795  0  -0.148652  -0.126253  0  3.288114  0
N  N223  1  0.56143125  0.98402354  0.24484376  1  -0.502814  0  -0.148587  -0.126164  0  3.28822  0
N  N224  1  0.35934075  0.38834234  0.19737970  1  -1.207672  0  -0.273325  0.039162  0  3.713085  0
N  N225  1  0.85933901  0.61165841  0.80262018  1  -1.207667  0  -0.273307  0.039165  0  3.71292  0
N  N226  1  0.35933908  0.11165794  0.69737825  1  -1.207654  0  -0.273337  0.039197  0  3.712976  0
N  N227  1  0.85934068  0.88834215  0.30262120  1  -1.207656  0  -0.273328  0.039152  0  3.713114  0
N  N228  1  0.68745376  0.44183462  0.40274630  1  -1.201017  0  -0.280525  0.029405  0  3.719051  0
N  N229  1  0.18745555  0.55816842  0.59725182  1  -1.20092  0  -0.280581  0.029217  0  3.719123  0
N  N230  1  0.68745379  0.05816637  0.90274612  1  -1.201033  0  -0.280562  0.029456  0  3.719072  0
N  N231  1  0.18745551  0.94183273  0.09725285  1  -1.200921  0  -0.28055  0.029376  0  3.719055  0
N  N232  1  0.36083893  0.65424973  0.39241933  1  -1.206657  0  -0.279728  0.023966  0  3.712454  0
N  N233  1  0.86084313  0.34575430  0.60757843  1  -1.206873  0  -0.279788  0.024024  0  3.712259  0
N  N234  1  0.36084290  0.84575242  0.89242000  1  -1.206527  0  -0.279774  0.023892  0  3.712352  0
N  N235  1  0.86084307  0.15424636  0.10757818  1  -1.206878  0  -0.27978  0.023994  0  3.712409  0
O  O236  1  0.14158675  0.35397884  0.50570896  1  -1.15829  0  -0.312018  -0.541769  0  2.198901  0
O  O237  1  0.64158610  0.64601838  0.49429126  1  -1.158211  0  -0.311996  -0.541739  0  2.198947  0
O  O238  1  0.14158828  0.14602053  0.00570998  1  -1.15826  0  -0.311988  -0.54173  0  2.198865  0
O  O239  1  0.64158692  0.85398063  0.99428940  1  -1.158315  0  -0.311979  -0.541712  0  2.198888  0
O  O240  1  0.20135520  0.31461314  0.42045493  1  -1.170666  0  -0.3386  -0.592285  0  2.30849  0
O  O241  1  0.70135455  0.68538659  0.57954532  1  -1.170636  0  -0.338603  -0.592281  0  2.308501  0
O  O242  1  0.20135568  0.18538613  0.92045560  1  -1.170627  0  -0.338595  -0.592262  0  2.308439  0
O  O243  1  0.70135563  0.81461295  0.07954380  1  -1.170601  0  -0.338558  -0.592235  0  2.308557  0
O  O244  1  0.90931286  0.60078618  0.52927925  1  -1.192743  0  -0.337633  -0.613267  0  2.352036  0
O  O245  1  0.40931100  0.39921251  0.47072318  1  -1.192609  0  -0.337606  -0.613224  0  2.352082  0
O  O246  1  0.90931841  0.89920772  0.02928070  1  -1.192621  0  -0.337674  -0.613237  0  2.351939  0
O  O247  1  0.40931171  0.10078834  0.97072173  1  -1.192661  0  -0.337615  -0.613257  0  2.352089  0
O  O248  1  0.88757159  0.70110300  0.45872154  1  -1.15604  0  -0.327102  -0.554498  0  2.268413  0
O  O249  1  0.38757009  0.29889442  0.54128089  1  -1.156156  0  -0.327121  -0.554455  0  2.268322  0
O  O250  1  0.88757177  0.79889686  0.95872010  1  -1.156129  0  -0.327129  -0.554515  0  2.268382  0
O  O251  1  0.38757303  0.20110449  0.04128021  1  -1.156135  0  -0.327157  -0.554518  0  2.268421  0
O  O252  1  0.92214986  0.72169611  0.11723188  1  -1.179327  0  -0.335541  -0.584741  0  2.294472  0
O  O253  1  0.42214883  0.27830386  0.88276929  1  -1.179276  0  -0.335528  -0.584737  0  2.294418  0
O  O254  1  0.92214540  0.77830432  0.61723806  1  -1.179391  0  -0.335593  -0.584851  0  2.29441  0
O  O255  1  0.42214859  0.22169565  0.38276735  1  -1.179265  0  -0.335517  -0.584762  0  2.294462  0
O  O256  1  0.85676086  0.63228634  0.04799438  1  -1.15732  0  -0.33002  -0.555606  0  2.26003  0
O  O257  1  0.35675734  0.36771376  0.95200507  1  -1.157373  0  -0.330077  -0.555649  0  2.2601  0
O  O258  1  0.85676555  0.86771028  0.54799548  1  -1.157185  0  -0.32998  -0.555538  0  2.260097  0
O  O259  1  0.35676125  0.13228522  0.45200525  1  -1.157296  0  -0.330062  -0.555657  0  2.260105  0
O  O260  1  0.20190475  0.33102216  0.08532051  1  -1.158846  0  -0.336745  -0.569244  0  2.213717  0
O  O261  1  0.70190456  0.66897823  0.91468100  1  -1.158782  0  -0.336775  -0.569247  0  2.213694  0
O  O262  1  0.20190762  0.16897513  0.58531737  1  -1.158844  0  -0.336801  -0.569221  0  2.213758  0
O  O263  1  0.70190795  0.83102132  0.41468202  1  -1.158785  0  -0.336831  -0.569275  0  2.213834  0
O  O264  1  0.10611324  0.37572191  0.01115884  1  -1.157726  0  -0.341866  -0.557537  0  2.097287  0
O  O265  1  0.60610857  0.62428325  0.98884221  1  -1.157864  0  -0.341887  -0.557554  0  2.097247  0
O  O266  1  0.10610685  0.12428211  0.51115866  1  -1.157797  0  -0.341899  -0.557595  0  2.097251  0
O  O267  1  0.60611497  0.87572173  0.48884324  1  -1.15776  0  -0.341858  -0.557513  0  2.097218  0
O  O268  1  0.32307781  0.34502429  0.28749951  1  -1.153839  0  -0.314579  -0.466434  0  2.32381  0
O  O269  1  0.82307428  0.65497718  0.71250121  1  -1.153829  0  -0.314572  -0.466457  0  2.323763  0
O  O270  1  0.32307525  0.15497606  0.78749848  1  -1.153753  0  -0.314621  -0.466494  0  2.323839  0
O  O271  1  0.82307763  0.84502279  0.21250138  1  -1.153832  0  -0.3146  -0.466427  0  2.323952  0
O  O272  1  0.53097031  0.41201289  0.35922641  1  -1.160515  0  -0.316181  -0.480504  0  2.309181  0
O  O273  1  0.03097364  0.58798979  0.64077293  1  -1.160429  0  -0.31615  -0.480506  0  2.309206  0
O  O274  1  0.53097183  0.08798839  0.85922496  1  -1.160514  0  -0.316207  -0.480534  0  2.309118  0
O  O275  1  0.03097446  0.91200837  0.14077522  1  -1.160482  0  -0.316149  -0.480563  0  2.309104  0
O  O276  1  0.31990877  0.51183764  0.37211459  1  -1.149237  0  -0.306605  -0.473557  0  2.327736  0
O  O277  1  0.81991339  0.48816450  0.62788527  1  -1.149259  0  -0.306648  -0.473609  0  2.327608  0
O  O278  1  0.31991236  0.98816393  0.87211358  1  -1.149232  0  -0.306641  -0.473633  0  2.327558  0
O  O279  1  0.81991527  0.01183689  0.12788459  1  -1.14923  0  -0.306614  -0.473604  0  2.327858  0
