# generated using pymatgen
data_Zn4C40Br16Cl4O13
_symmetry_space_group_name_H-M   'P 1'
_cell_length_a   24.04700572
_cell_length_b   24.04839741
_cell_length_c   24.04668622
_cell_angle_alpha   66.41588408
_cell_angle_beta   72.54992630
_cell_angle_gamma   107.45743253
_symmetry_Int_Tables_number   1
_chemical_formula_structural   Zn4C40Br16Cl4O13
_chemical_formula_sum   'Zn8 C80 Br32 Cl8 O26'
_cell_volume   10663.41808797
_cell_formula_units_Z   2
loop_
 _symmetry_equiv_pos_site_id
 _symmetry_equiv_pos_as_xyz
  1  'x, y, z'
loop_
 _atom_site_type_symbol
 _atom_site_label
 _atom_site_symmetry_multiplicity
 _atom_site_fract_x
 _atom_site_fract_y
 _atom_site_fract_z
 _atom_site_occupancy
 _atom_site_pbe_bader_charge
 _atom_site_pbe_bader_spin_density
 _atom_site_pbe_cm5_charge
 _atom_site_pbe_ddec_charge
 _atom_site_pbe_ddec_spin_density
 _atom_site_pbe_ddec_sum_bond_order
 _atom_site_pbe_magmom
Zn  Zn0  1  0.05650470  0.95742729  0.48608369  1  1.326131  0  0.681428  0.98823  0  2.3599  0
Zn  Zn1  1  0.05650042  0.09907830  0.45742410  1  1.325624  0  0.681315  0.988099  0  2.359971  0
Zn  Zn2  1  0.94349456  0.98608470  0.45741458  1  1.325846  0  0.681463  0.988357  0  2.35963  0
Zn  Zn3  1  0.94350883  0.95741909  0.59908154  1  1.325636  0  0.681391  0.988236  0  2.359873  0
Zn  Zn4  1  0.94349983  0.54257794  0.01391563  1  1.326018  0  0.681411  0.988291  0  2.359718  0
Zn  Zn5  1  0.05650635  0.51392002  0.04258395  1  1.325726  0  0.681382  0.988135  0  2.359885  0
Zn  Zn6  1  0.94350091  0.40092235  0.04257831  1  1.325572  0  0.681379  0.988158  0  2.359901  0
Zn  Zn7  1  0.05648977  0.54257814  0.90091786  1  1.32585  0  0.681393  0.988174  0  2.359824  0
C  C8  1  0.18037913  0.09019338  0.40981538  1  1.591662  0  0.226685  0.62594  0  4.13647  0
C  C9  1  0.99999235  0.13704940  0.36294586  1  1.61538  0  0.229891  0.630611  0  4.126833  0
C  C10  1  0.99999285  0.90981881  0.40980996  1  1.602345  0  0.226798  0.6258  0  4.136842  0
C  C11  1  0.81962460  0.90980256  0.59019951  1  1.591789  0  0.226806  0.626245  0  4.136473  0
C  C12  1  0.00000588  0.86294607  0.63705170  1  1.615228  0  0.230019  0.630725  0  4.126221  0
C  C13  1  0.99999705  0.09018318  0.59019385  1  1.63752  0  0.226758  0.625838  0  4.136871  0
C  C14  1  0.00000162  0.59017737  0.09019849  1  1.603006  0  0.22684  0.626202  0  4.136231  0
C  C15  1  0.00001193  0.36295505  0.13705285  1  1.615061  0  0.229895  0.630632  0  4.126789  0
C  C16  1  0.81962465  0.40980820  0.09017801  1  1.591998  0  0.226621  0.62571  0  4.136939  0
C  C17  1  0.99999351  0.40980221  0.90981885  1  1.637613  0  0.226813  0.626167  0  4.136334  0
C  C18  1  0.99999292  0.63705188  0.86294777  1  1.61517  0  0.230018  0.63071  0  4.126337  0
C  C19  1  0.18037479  0.59018718  0.90980014  1  1.592337  0  0.226708  0.625752  0  4.136951  0
C  C20  1  0.00000284  0.80510678  0.69489304  1  0.054156  0  -0.011985  -0.118559  0  3.846974  0
C  C21  1  0.99999789  0.69489362  0.80510696  1  0.054147  0  -0.011975  -0.118517  0  3.84697  0
C  C22  1  0.95743539  0.77692818  0.76563413  1  0.076505  0  0.017007  0.077078  0  3.977521  0
C  C23  1  0.04256689  0.72307325  0.73436498  1  0.077968  0  0.016986  0.076967  0  3.977591  0
C  C24  1  0.95743366  0.72307091  0.81949244  1  0.166198  0  0.017003  0.077058  0  3.977521  0
C  C25  1  0.04256862  0.77693052  0.68050709  1  0.166042  0  0.01702  0.077108  0  3.977482  0
C  C26  1  0.99999889  0.19489341  0.30510621  1  0.054305  0  -0.011984  -0.118704  0  3.84737  0
C  C27  1  0.00000521  0.30511157  0.19489239  1  0.054514  0  -0.011852  -0.118444  0  3.847449  0
C  C28  1  0.95743552  0.18051232  0.27691914  1  0.165871  0  0.016984  0.077055  0  3.977365  0
C  C29  1  0.04256726  0.31949135  0.22307996  1  0.165672  0  0.016916  0.076899  0  3.977757  0
C  C30  1  0.95743939  0.23437275  0.22306101  1  0.084116  0  0.017001  0.077087  0  3.977795  0
C  C31  1  0.04256407  0.26563108  0.27693741  1  0.085148  0  0.017024  0.077171  0  3.977643  0
C  C32  1  0.99999938  0.62789497  0.12791981  1  0.068947  0  -0.016989  -0.104998  0  3.848157  0
C  C33  1  0.95709578  0.65759049  0.13512817  1  0.026122  0  -0.013248  0.053083  0  3.891736  0
C  C34  1  0.95736423  0.69234968  0.17020785  1  -0.108439  0  -0.017756  0.022787  0  3.901978  0
C  C35  1  0.99999145  0.69958634  0.19962153  1  0.247535  0  -0.005092  0.07381  0  4.068452  0
C  C36  1  0.04262445  0.67018750  0.19238489  1  -0.110127  0  -0.017559  0.023177  0  3.901898  0
C  C37  1  0.04290100  0.63511231  0.15762034  1  0.026469  0  -0.013307  0.052742  0  3.891833  0
C  C38  1  0.99998221  0.73475853  0.23481015  1  -0.248232  0  -0.037571  -0.060333  0  4.078327  0
C  C39  1  0.99997562  0.76518814  0.26524653  1  -0.045011  0  -0.037269  -0.060029  0  4.077922  0
C  C40  1  0.99997429  0.80037188  0.30042567  1  0.247101  0  -0.004903  0.074158  0  4.068105  0
C  C41  1  0.95735688  0.82979189  0.30763959  1  -0.109536  0  -0.01765  0.023082  0  3.901841  0
C  C42  1  0.95708668  0.86487292  0.34239825  1  0.026598  0  -0.013161  0.052915  0  3.891761  0
C  C43  1  0.99997624  0.87207628  0.37211341  1  0.068395  0  -0.017081  -0.104765  0  3.848326  0
C  C44  1  0.04285649  0.84235196  0.36493473  1  0.027964  0  -0.013044  0.053013  0  3.892113  0
C  C45  1  0.04258899  0.80759166  0.32985646  1  -0.109243  0  -0.017641  0.022752  0  3.902219  0
C  C46  1  0.00000794  0.37207608  0.87210806  1  0.051128  0  -0.017059  -0.104939  0  3.848495  0
C  C47  1  0.04291462  0.40775863  0.79951300  1  0.03403  0  -0.013224  0.053139  0  3.892083  0
C  C48  1  0.04264056  0.37240980  0.76502304  1  -0.046835  0  -0.01793  0.022551  0  3.902011  0
C  C49  1  0.00000361  0.30037915  0.80041515  1  0.134556  0  -0.004902  0.074205  0  4.068218  0
C  C50  1  0.95737732  0.26498754  0.87244999  1  -0.046538  0  -0.017649  0.023066  0  3.90201  0
C  C51  1  0.95710747  0.29947765  0.90779791  1  0.034233  0  -0.013186  0.052664  0  3.891948  0
C  C52  1  0.99999549  0.26520012  0.76523161  1  -0.044201  0  -0.037396  -0.060141  0  4.078527  0
C  C53  1  0.99998851  0.23477403  0.73479252  1  -0.246892  0  -0.037334  -0.060179  0  4.078826  0
C  C54  1  0.99998111  0.19959760  0.69960727  1  0.135541  0  -0.004865  0.074007  0  4.068627  0
C  C55  1  0.04259324  0.23499626  0.62756807  1  -0.053065  0  -0.017891  0.022497  0  3.902268  0
C  C56  1  0.04286305  0.20050714  0.59221852  1  0.034634  0  -0.01297  0.053178  0  3.891971  0
C  C57  1  0.99997864  0.12790512  0.62790953  1  0.051075  0  -0.017182  -0.10505  0  3.848708  0
C  C58  1  0.95708382  0.09221633  0.70050892  1  0.033942  0  -0.013179  0.052922  0  3.891933  0
C  C59  1  0.95735932  0.12756348  0.73500077  1  -0.046976  0  -0.017654  0.023245  0  3.901673  0
C  C60  1  0.74418777  0.37208823  0.12790197  1  0.044735  0  -0.017036  -0.104846  0  3.848466  0
C  C61  1  0.70727692  0.40777713  0.13510332  1  -0.100943  0  -0.013143  0.052805  0  3.8921  0
C  C62  1  0.63743907  0.37243050  0.17017402  1  0.071234  0  -0.017829  0.022781  0  3.902115  0
C  C63  1  0.60079726  0.30039587  0.19958943  1  0.201824  0  -0.004857  0.073966  0  4.068385  0
C  C64  1  0.63743715  0.26499774  0.19237685  1  -0.11137  0  -0.017711  0.02319  0  3.901728  0
C  C65  1  0.70727640  0.29948684  0.15761773  1  0.067882  0  -0.013156  0.052847  0  3.891736  0
C  C66  1  0.53043529  0.26521946  0.23475893  1  -0.005378  0  -0.037377  -0.06017  0  4.07821  0
C  C67  1  0.46956987  0.23479761  0.26518173  1  -0.319139  0  -0.037532  -0.060289  0  4.078207  0
C  C68  1  0.39920731  0.19961903  0.30036142  1  0.199448  0  -0.004815  0.074234  0  4.068123  0
C  C69  1  0.36256522  0.23501024  0.30759862  1  -0.109051  0  -0.017591  0.023082  0  3.901874  0
C  C70  1  0.29272737  0.20052045  0.34236342  1  0.06761  0  -0.013187  0.052646  0  3.89214  0
C  C71  1  0.25581726  0.12792140  0.37206456  1  0.045322  0  -0.017075  -0.104892  0  3.848615  0
C  C72  1  0.29272761  0.09223879  0.36483674  1  -0.100456  0  -0.013265  0.053093  0  3.892129  0
C  C73  1  0.36256672  0.12758773  0.32975933  1  0.070356  0  -0.017782  0.022775  0  3.901944  0
C  C74  1  0.25581239  0.62789596  0.87208249  1  0.045448  0  -0.017142  -0.104988  0  3.848531  0
C  C75  1  0.29272751  0.63508778  0.90777431  1  -0.10073  0  -0.013135  0.053017  0  3.892007  0
C  C76  1  0.36256647  0.67016112  0.87242814  1  0.069946  0  -0.017696  0.022781  0  3.901845  0
C  C77  1  0.39920479  0.69958142  0.80039055  1  0.201657  0  -0.004852  0.074061  0  4.068142  0
C  C78  1  0.36255867  0.69236555  0.76499204  1  -0.111404  0  -0.017749  0.023033  0  3.901464  0
C  C79  1  0.29272011  0.65760740  0.79947954  1  0.068465  0  -0.013149  0.052908  0  3.891528  0
C  C80  1  0.46956661  0.73475615  0.76521470  1  -0.004665  0  -0.0374  -0.060108  0  4.078281  0
C  C81  1  0.53043188  0.76518663  0.73479766  1  -0.319292  0  -0.037452  -0.060278  0  4.078194  0
C  C82  1  0.60079524  0.80037274  0.69961848  1  0.199306  0  -0.004931  0.074172  0  4.067973  0
C  C83  1  0.63744215  0.80761216  0.73501155  1  -0.108573  0  -0.017621  0.023041  0  3.901619  0
C  C84  1  0.70728064  0.84237698  0.70052182  1  0.067569  0  -0.01319  0.052729  0  3.891775  0
C  C85  1  0.74418679  0.87207237  0.62792199  1  0.045135  0  -0.017061  -0.104982  0  3.848422  0
C  C86  1  0.70727178  0.86485218  0.59223602  1  -0.100541  0  -0.013283  0.053007  0  3.892098  0
C  C87  1  0.63743276  0.82977515  0.62758450  1  0.070345  0  -0.017763  0.022851  0  3.901775  0
Br  Br88  1  0.89644263  0.65399202  0.09933629  1  0.023604  0  0.042343  -0.011433  0  1.600538  0
Br  Br89  1  0.10355678  0.59933190  0.15402990  1  0.023142  0  0.042409  -0.011311  0  1.60042  0
Br  Br90  1  0.09903588  0.68042434  0.23175389  1  0.000465  0  0.041006  -0.030503  0  1.612898  0
Br  Br91  1  0.90095404  0.73171391  0.18043069  1  0.011391  0  0.041109  -0.030379  0  1.613029  0
Br  Br92  1  0.90097089  0.81958677  0.26823909  1  0.000382  0  0.040981  -0.03056  0  1.612932  0
Br  Br93  1  0.09897928  0.76820434  0.31965835  1  0.011431  0  0.040972  -0.030475  0  1.612911  0
Br  Br94  1  0.10345033  0.84587696  0.40080238  1  0.024711  0  0.042304  -0.011376  0  1.600527  0
Br  Br95  1  0.89644553  0.90067215  0.34596890  1  0.024156  0  0.042376  -0.011382  0  1.600417  0
Br  Br96  1  0.10358577  0.50419033  0.74245888  1  0.026794  0  0.042306  -0.011483  0  1.600574  0
Br  Br97  1  0.89646744  0.24242030  0.00423878  1  0.026647  0  0.042428  -0.011236  0  1.600495  0
Br  Br98  1  0.90096773  0.16921624  0.91862542  1  0.001276  0  0.041044  -0.030467  0  1.612965  0
Br  Br99  1  0.09904821  0.41858556  0.66924837  1  -0.008727  0  0.041114  -0.030434  0  1.613223  0
Br  Br100  1  0.09897988  0.33077256  0.58138716  1  0.007286  0  0.040995  -0.030371  0  1.612985  0
Br  Br101  1  0.90097297  0.08137900  0.83078206  1  -0.009847  0  0.040993  -0.030553  0  1.612894  0
Br  Br102  1  0.89642755  0.99578224  0.75756294  1  0.026691  0  0.04242  -0.011324  0  1.600553  0
Br  Br103  1  0.10347255  0.25757435  0.49576868  1  0.027465  0  0.042304  -0.011427  0  1.600342  0
Br  Br104  1  0.74665880  0.50421681  0.09930304  1  0.025799  0  0.042329  -0.011353  0  1.600446  0
Br  Br105  1  0.74665667  0.24242429  0.15405714  1  0.027369  0  0.042377  -0.011365  0  1.600501  0
Br  Br106  1  0.58784145  0.16921952  0.23177094  1  -0.000701  0  0.041007  -0.030508  0  1.612935  0
Br  Br107  1  0.58784399  0.41861310  0.18037930  1  0.009409  0  0.041016  -0.030409  0  1.612873  0
Br  Br108  1  0.41216234  0.33078203  0.26823494  1  -0.000706  0  0.040962  -0.030515  0  1.612936  0
Br  Br109  1  0.41216425  0.08141178  0.31953071  1  0.010084  0  0.041083  -0.030458  0  1.613119  0
Br  Br110  1  0.25334911  0.99581020  0.40058845  1  0.02386  0  0.042294  -0.011564  0  1.600577  0
Br  Br111  1  0.25334510  0.25757680  0.34594330  1  0.026647  0  0.042388  -0.011267  0  1.600537  0
Br  Br112  1  0.25335082  0.59925320  0.00422591  1  0.025881  0  0.0423  -0.011453  0  1.600344  0
Br  Br113  1  0.25333386  0.65403448  0.74241642  1  0.026922  0  0.042452  -0.011257  0  1.600499  0
Br  Br114  1  0.41215000  0.73176111  0.66920889  1  -0.000566  0  0.040998  -0.030532  0  1.612769  0
Br  Br115  1  0.41216667  0.68036502  0.91861433  1  0.00918  0  0.040966  -0.030462  0  1.612828  0
Br  Br116  1  0.58785096  0.76824469  0.83078764  1  -0.000399  0  0.041013  -0.030496  0  1.612811  0
Br  Br117  1  0.58783027  0.81954567  0.58140420  1  0.010148  0  0.041068  -0.030521  0  1.61302  0
Br  Br118  1  0.74664596  0.90062267  0.49579975  1  0.02491  0  0.042318  -0.011437  0  1.600593  0
Br  Br119  1  0.74666738  0.84597005  0.75758012  1  0.026846  0  0.04241  -0.01126  0  1.600562  0
Cl  Cl120  1  0.90310585  0.80540701  0.79147748  1  -0.130588  0  0.00411  -0.035903  0  1.693907  0
Cl  Cl121  1  0.09689599  0.69459399  0.70852236  1  -0.130685  0  0.004153  -0.035837  0  1.693996  0
Cl  Cl122  1  0.90310508  0.69458684  0.90230291  1  -0.132548  0  0.004156  -0.035908  0  1.693921  0
Cl  Cl123  1  0.09689938  0.80541677  0.59769635  1  -0.133043  0  0.004141  -0.035899  0  1.693952  0
Cl  Cl124  1  0.90310803  0.09770751  0.30539065  1  -0.140339  0  0.004113  -0.035886  0  1.693679  0
Cl  Cl125  1  0.09689313  0.40229711  0.19460982  1  -0.140474  0  0.004137  -0.035853  0  1.69389  0
Cl  Cl126  1  0.90311442  0.20853433  0.19456628  1  -0.130366  0  0.004125  -0.035941  0  1.694034  0
Cl  Cl127  1  0.09689063  0.29146954  0.30543081  1  -0.130376  0  0.004103  -0.035968  0  1.693975  0
O  O128  1  0.99999948  0.00000148  0.49999904  1  -1.234147  0  -0.571362  -1.037434  0  2.53591  0
O  O129  1  0.15096095  0.02562895  0.43466072  1  -1.169918  0  -0.314165  -0.543246  0  2.467171  0
O  O130  1  0.03949397  0.15412690  0.38536213  1  -1.165947  0  -0.312448  -0.542309  0  2.449804  0
O  O131  1  0.96023339  0.93461363  0.41442778  1  -1.17011  0  -0.314289  -0.543317  0  2.467427  0
O  O132  1  0.15095842  0.12533128  0.41441890  1  -1.169487  0  -0.314186  -0.543287  0  2.467252  0
O  O133  1  0.03976831  0.91446305  0.43459053  1  -1.17007  0  -0.314296  -0.543329  0  2.467315  0
O  O134  1  0.96049513  0.07514927  0.38535995  1  -1.168885  0  -0.31258  -0.542231  0  2.45033  0
O  O135  1  0.84904036  0.93463279  0.52563648  1  -1.170213  0  -0.314239  -0.543511  0  2.467218  0
O  O136  1  0.96052030  0.88536687  0.65413143  1  -1.165918  0  -0.312534  -0.54227  0  2.449888  0
O  O137  1  0.84904780  0.91440247  0.62534134  1  -1.16946  0  -0.31423  -0.543436  0  2.467341  0
O  O138  1  0.03949259  0.88535434  0.57514372  1  -1.169076  0  -0.312625  -0.542437  0  2.449887  0
O  O139  1  0.03975489  0.12532026  0.52563819  1  -1.185934  0  -0.314239  -0.543172  0  2.46738  0
O  O140  1  0.96025568  0.02562522  0.62533318  1  -1.186076  0  -0.314209  -0.543344  0  2.467452  0
O  O141  1  0.00000137  0.49999973  0.00000079  1  -1.234144  0  -0.57136  -1.037378  0  2.535844  0
O  O142  1  0.96026105  0.58557745  0.06537356  1  -1.170073  0  -0.314248  -0.543473  0  2.467076  0
O  O143  1  0.03951600  0.42485604  0.11463142  1  -1.168741  0  -0.312574  -0.542246  0  2.450341  0
O  O144  1  0.84904317  0.37467386  0.08555170  1  -1.169581  0  -0.314202  -0.543163  0  2.467546  0
O  O145  1  0.03974276  0.56535952  0.08560241  1  -1.170582  0  -0.314243  -0.543357  0  2.467245  0
O  O146  1  0.84904439  0.47436319  0.06537796  1  -1.170041  0  -0.314194  -0.543241  0  2.467162  0
O  O147  1  0.96050313  0.34587676  0.11464410  1  -1.165798  0  -0.312446  -0.542289  0  2.449861  0
O  O148  1  0.96025780  0.37466170  0.97438040  1  -1.186284  0  -0.314273  -0.543377  0  2.467185  0
O  O149  1  0.03948091  0.61463297  0.84586822  1  -1.166043  0  -0.312578  -0.542305  0  2.449864  0
O  O150  1  0.03971159  0.47436618  0.87467370  1  -1.185823  0  -0.314246  -0.543459  0  2.467245  0
O  O151  1  0.96050272  0.61464013  0.92485486  1  -1.168877  0  -0.312598  -0.542418  0  2.449996  0
O  O152  1  0.15095937  0.56540077  0.97435478  1  -1.169919  0  -0.314129  -0.54311  0  2.467382  0
O  O153  1  0.15095137  0.58556117  0.87466501  1  -1.170057  0  -0.314321  -0.543325  0  2.467439  0
