# generated using pymatgen
data_Zn3H14C26(NO3)4
_symmetry_space_group_name_H-M   'P 1'
_cell_length_a   15.27148249
_cell_length_b   15.27149140
_cell_length_c   22.40607086
_cell_angle_alpha   89.99996329
_cell_angle_beta   89.99999104
_cell_angle_gamma   90.00067447
_symmetry_Int_Tables_number   1
_chemical_formula_structural   Zn3H14C26(NO3)4
_chemical_formula_sum   'Zn12 H56 C104 N16 O48'
_cell_volume   5225.50605727
_cell_formula_units_Z   4
loop_
 _symmetry_equiv_pos_site_id
 _symmetry_equiv_pos_as_xyz
  1  'x, y, z'
loop_
 _atom_site_type_symbol
 _atom_site_label
 _atom_site_symmetry_multiplicity
 _atom_site_fract_x
 _atom_site_fract_y
 _atom_site_fract_z
 _atom_site_occupancy
 _atom_site_pbe_bader_charge
 _atom_site_pbe_bader_spin_density
 _atom_site_pbe_cm5_charge
 _atom_site_pbe_ddec_charge
 _atom_site_pbe_ddec_spin_density
 _atom_site_pbe_ddec_sum_bond_order
 _atom_site_pbe_magmom
Zn  Zn0  1  0.75700435  0.66866369  0.85485652  1  1.298286  0  0.684106  0.808327  0  2.353322  0
Zn  Zn1  1  0.24299600  0.33133694  0.35485642  1  1.298271  0  0.684099  0.808326  0  2.353321  0
Zn  Zn2  1  0.83133789  0.25701159  0.60486231  1  1.298232  0  0.68421  0.80859  0  2.353167  0
Zn  Zn3  1  0.16866186  0.74298863  0.10486204  1  1.298205  0  0.684207  0.808571  0  2.353162  0
Zn  Zn4  1  0.74298901  0.16866200  0.89513813  1  1.298211  0  0.684216  0.808577  0  2.35316  0
Zn  Zn5  1  0.25701133  0.83133794  0.39513825  1  1.298223  0  0.684176  0.808506  0  2.353238  0
Zn  Zn6  1  0.66866382  0.75700524  0.14514395  1  1.29828  0  0.684123  0.808394  0  2.353281  0
Zn  Zn7  1  0.33133592  0.24299559  0.64514339  1  1.298285  0  0.684142  0.808419  0  2.353213  0
Zn  Zn8  1  0.72309831  0.72309884  0.99999932  1  1.419119  0  0.683879  1.021272  0  2.280073  0
Zn  Zn9  1  0.27690003  0.27689969  0.49999968  1  1.419136  0  0.683887  1.021263  0  2.280082  0
Zn  Zn10  1  0.77689044  0.22310947  0.75000022  1  1.419007  0  0.683803  1.02106  0  2.280303  0
Zn  Zn11  1  0.22310993  0.77689061  0.25000037  1  1.41899  0  0.683823  1.021102  0  2.280217  0
H  H12  1  0.99145430  0.74650789  0.04115470  1  0.155927  0  0.127969  0.11078  0  1.00177  0
H  H13  1  0.03285699  0.62799935  0.86922678  1  0.138377  0  0.118327  0.122847  0  0.974027  0
H  H14  1  0.19316031  0.62144624  0.89291009  1  0.08111  0  0.114947  0.120856  0  0.99416  0
H  H15  1  0.32527590  0.63252582  0.91486842  1  0.091774  0  0.115145  0.121313  0  0.99198  0
H  H16  1  0.47896833  0.64632431  0.95124158  1  0.126938  0  0.119908  0.126835  0  0.977418  0
H  H17  1  0.37682562  0.73528071  0.12006773  1  0.121484  0  0.126591  0.107699  0  0.987476  0
H  H18  1  0.56116424  0.79446752  0.91380125  1  0.084975  0  0.108715  0.025605  0  0.967801  0
H  H19  1  0.00854480  0.25349174  0.54115373  1  0.15579  0  0.127961  0.110782  0  1.001788  0
H  H20  1  0.96714270  0.37199996  0.36922569  1  0.138362  0  0.118351  0.122859  0  0.973999  0
H  H21  1  0.80683937  0.37855240  0.39290946  1  0.081087  0  0.114944  0.120824  0  0.994152  0
H  H22  1  0.67472443  0.36747607  0.41486870  1  0.091781  0  0.115173  0.121314  0  0.991982  0
H  H23  1  0.52103134  0.35367689  0.45124189  1  0.126935  0  0.119925  0.126889  0  0.977404  0
H  H24  1  0.62317412  0.26471688  0.62006757  1  0.121477  0  0.126597  0.107712  0  0.987443  0
H  H25  1  0.43883479  0.20553307  0.41380430  1  0.084999  0  0.10869  0.025593  0  0.967831  0
H  H26  1  0.75347451  0.49146686  0.79114704  1  0.156362  0  0.127963  0.110774  0  1.001783  0
H  H27  1  0.87201336  0.53285980  0.61922755  1  0.138279  0  0.11837  0.122757  0  0.973997  0
H  H28  1  0.87856508  0.69316637  0.64290592  1  0.081271  0  0.114982  0.120819  0  0.994185  0
H  H29  1  0.86747590  0.82529288  0.66486690  1  0.091407  0  0.115099  0.121217  0  0.991906  0
H  H30  1  0.85367002  0.97898177  0.70124719  1  0.126456  0  0.119964  0.126887  0  0.977508  0
H  H31  1  0.76471144  0.87681891  0.87006753  1  0.121538  0  0.126585  0.107707  0  0.987392  0
H  H32  1  0.70551463  0.06118385  0.66381602  1  0.085508  0  0.108616  0.025552  0  0.967758  0
H  H33  1  0.24652650  0.50853449  0.29114552  1  0.156334  0  0.127955  0.110774  0  1.001779  0
H  H34  1  0.12798507  0.46714171  0.11922740  1  0.138302  0  0.118371  0.122744  0  0.973969  0
H  H35  1  0.12143466  0.30683512  0.14290629  1  0.081299  0  0.114956  0.120786  0  0.994208  0
H  H36  1  0.13252645  0.17470924  0.16486643  1  0.091757  0  0.115102  0.121265  0  0.991966  0
H  H37  1  0.14633036  0.02102032  0.20124589  1  0.126506  0  0.119961  0.126887  0  0.9775  0
H  H38  1  0.23528760  0.12318106  0.37006752  1  0.121514  0  0.126569  0.107711  0  0.987391  0
H  H39  1  0.29448314  0.93881632  0.16381476  1  0.085515  0  0.108634  0.025607  0  0.967761  0
H  H40  1  0.50853353  0.24652606  0.70885379  1  0.156362  0  0.127938  0.110717  0  1.001805  0
H  H41  1  0.46713998  0.12798590  0.88077285  1  0.138305  0  0.118359  0.122726  0  0.973992  0
H  H42  1  0.30683396  0.12143486  0.85709401  1  0.081274  0  0.114985  0.120802  0  0.994193  0
H  H43  1  0.17470671  0.13252403  0.83513345  1  0.091397  0  0.115107  0.121271  0  0.991916  0
H  H44  1  0.02101772  0.14632992  0.79875402  1  0.126435  0  0.119958  0.126898  0  0.977513  0
H  H45  1  0.12317927  0.23528917  0.62993279  1  0.121549  0  0.126547  0.107626  0  0.987383  0
H  H46  1  0.93881619  0.29448521  0.83618487  1  0.085507  0  0.108621  0.025593  0  0.967752  0
H  H47  1  0.49146685  0.75347406  0.20885347  1  0.156367  0  0.127938  0.110721  0  1.00179  0
H  H48  1  0.53285971  0.87201405  0.38077248  1  0.138315  0  0.118357  0.122722  0  0.974024  0
H  H49  1  0.69316573  0.87856512  0.35709406  1  0.081269  0  0.114983  0.120821  0  0.994172  0
H  H50  1  0.82529299  0.86747400  0.33513483  1  0.091595  0  0.115106  0.12128  0  0.991968  0
H  H51  1  0.97898133  0.85366881  0.29875540  1  0.126446  0  0.119979  0.126898  0  0.977599  0
H  H52  1  0.87682113  0.76471365  0.12993332  1  0.121545  0  0.12655  0.107675  0  0.987402  0
H  H53  1  0.06118351  0.70551414  0.33618507  1  0.085495  0  0.108623  0.025566  0  0.967759  0
H  H54  1  0.74650693  0.99145524  0.95884434  1  0.155922  0  0.127962  0.110807  0  1.001772  0
H  H55  1  0.62799946  0.03285439  0.13077300  1  0.138371  0  0.118374  0.122879  0  0.973955  0
H  H56  1  0.62144701  0.19315894  0.10709099  1  0.081101  0  0.114955  0.120863  0  0.994129  0
H  H57  1  0.63252399  0.32527578  0.08513218  1  0.091753  0  0.11517  0.121328  0  0.991966  0
H  H58  1  0.64632251  0.47896813  0.04875852  1  0.126935  0  0.11992  0.126914  0  0.977376  0
H  H59  1  0.73528109  0.37682500  0.87993283  1  0.1215  0  0.126556  0.107651  0  0.987448  0
H  H60  1  0.79446840  0.56116659  0.08619790  1  0.08498  0  0.108687  0.025608  0  0.967838  0
H  H61  1  0.25349274  0.00854464  0.45884482  1  0.155923  0  0.127961  0.110768  0  1.001788  0
H  H62  1  0.37200159  0.96714515  0.63077346  1  0.13837  0  0.118375  0.122851  0  0.973971  0
H  H63  1  0.37855208  0.80684062  0.60709152  1  0.081083  0  0.114948  0.120828  0  0.994162  0
H  H64  1  0.36747576  0.67472446  0.58513232  1  0.091748  0  0.115173  0.121322  0  0.991972  0
H  H65  1  0.35367856  0.52103148  0.54875873  1  0.126919  0  0.11992  0.126899  0  0.977417  0
H  H66  1  0.26471794  0.62317496  0.37993304  1  0.121503  0  0.12659  0.107704  0  0.987455  0
H  H67  1  0.20553331  0.43883364  0.58619504  1  0.085008  0  0.108686  0.025623  0  0.967813  0
C  C68  1  0.03396426  0.71845196  0.00713184  1  0.468239  0  0.073291  0.108867  0  3.862028  0
C  C69  1  0.00004061  0.68795921  0.95308262  1  0.074811  0  -0.004358  -0.067696  0  3.933679  0
C  C70  1  0.05835040  0.65257075  0.91146354  1  -0.062094  0  -0.053375  -0.031545  0  3.935999  0
C  C71  1  0.14719178  0.64912301  0.92485366  1  -0.013684  0  -0.076748  -0.162025  0  3.957219  0
C  C72  1  0.17654668  0.68082013  0.97997487  1  0.484612  0  0.128596  0.179453  0  3.970549  0
C  C73  1  0.26982576  0.68026015  0.99812397  1  0.50487  0  0.124787  0.168845  0  3.996389  0
C  C74  1  0.33817655  0.65523420  0.96005750  1  -0.024985  0  -0.075537  -0.155387  0  3.952136  0
C  C75  1  0.42393447  0.66238789  0.98022212  1  0.008863  0  -0.054796  -0.035715  0  3.929721  0
C  C76  1  0.44029793  0.69238943  0.03822518  1  -0.03255  0  -0.002791  -0.06381  0  3.927813  0
C  C77  1  0.36831551  0.71259003  0.07426095  1  0.511106  0  0.068756  0.102318  0  3.878185  0
C  C78  1  0.90320639  0.69284945  0.94095059  1  1.619497  0  0.217204  0.59568  0  4.203905  0
C  C79  1  0.53304279  0.70831965  0.05855805  1  1.613837  0  0.216823  0.595605  0  4.204148  0
C  C80  1  0.60717853  0.75537731  0.88636672  1  1.533586  0  0.130851  0.482475  0  4.225651  0
C  C81  1  0.96603617  0.28154769  0.50713119  1  0.468348  0  0.073259  0.108787  0  3.862071  0
C  C82  1  0.99995775  0.31204003  0.45308200  1  0.074836  0  -0.004328  -0.067625  0  3.933645  0
C  C83  1  0.94164928  0.34742852  0.41146291  1  -0.06211  0  -0.053409  -0.031598  0  3.935964  0
C  C84  1  0.85280789  0.35087625  0.42485304  1  -0.013675  0  -0.076736  -0.161951  0  3.957128  0
C  C85  1  0.82345299  0.31917973  0.47997471  1  0.484626  0  0.128604  0.179429  0  3.970538  0
C  C86  1  0.73017390  0.31973970  0.49812426  1  0.504865  0  0.124782  0.168862  0  3.996361  0
C  C87  1  0.66182312  0.34476634  0.46005824  1  -0.024955  0  -0.075529  -0.155331  0  3.952116  0
C  C88  1  0.57606454  0.33761263  0.48022242  1  0.008885  0  -0.054833  -0.035829  0  3.929754  0
C  C89  1  0.55970183  0.30761019  0.53822546  1  -0.032596  0  -0.002756  -0.063724  0  3.927816  0
C  C90  1  0.63168490  0.28740891  0.57426079  1  0.511123  0  0.068717  0.102279  0  3.878279  0
C  C91  1  0.09679328  0.30714980  0.44095051  1  1.619511  0  0.21716  0.595643  0  4.203977  0
C  C92  1  0.46695763  0.29167865  0.55855791  1  1.613858  0  0.216736  0.595432  0  4.204155  0
C  C93  1  0.39282115  0.24462264  0.38636977  1  1.53304  0  0.130893  0.48252  0  4.225609  0
C  C94  1  0.78154342  0.53397436  0.75712590  1  0.468054  0  0.073362  0.108935  0  3.861852  0
C  C95  1  0.81203863  0.50005318  0.70307716  1  0.075016  0  -0.004353  -0.067779  0  3.933649  0
C  C96  1  0.84743633  0.55835813  0.66146119  1  -0.062225  0  -0.05345  -0.031359  0  3.935962  0
C  C97  1  0.85088380  0.64719950  0.67485218  1  -0.014157  0  -0.076807  -0.162098  0  3.957304  0
C  C98  1  0.81917846  0.67655660  0.72997117  1  0.485093  0  0.128592  0.179404  0  3.970485  0
C  C99  1  0.81974346  0.76983302  0.74812248  1  0.504759  0  0.124879  0.168915  0  3.996003  0
C  C100  1  0.84476436  0.83818996  0.71005778  1  -0.024562  0  -0.075606  -0.155305  0  3.95215  0
C  C101  1  0.83761231  0.92394512  0.73022506  1  0.009154  0  -0.054817  -0.035823  0  3.930254  0
C  C102  1  0.80760877  0.94030220  0.78822765  1  -0.032393  0  -0.00282  -0.06388  0  3.927945  0
C  C103  1  0.78740401  0.86831760  0.82425897  1  0.511089  0  0.068795  0.102324  0  3.878175  0
C  C104  1  0.80714725  0.40321652  0.69094654  1  1.61964  0  0.217318  0.595855  0  4.203543  0
C  C105  1  0.79167832  0.03304558  0.80856296  1  1.612619  0  0.216882  0.595674  0  4.204072  0
C  C106  1  0.74461327  0.10718746  0.63638014  1  1.532552  0  0.130808  0.482362  0  4.225299  0
C  C107  1  0.21845826  0.46602703  0.25712574  1  0.468074  0  0.073367  0.108907  0  3.861908  0
C  C108  1  0.18796110  0.49994825  0.20307654  1  0.075063  0  -0.004395  -0.067836  0  3.933761  0
C  C109  1  0.15256341  0.44164334  0.16146060  1  -0.062297  0  -0.053455  -0.031379  0  3.935976  0
C  C110  1  0.14911659  0.35280065  0.17485297  1  -0.014139  0  -0.076775  -0.162022  0  3.957329  0
C  C111  1  0.18082322  0.32344481  0.22997108  1  0.485088  0  0.128641  0.179458  0  3.970414  0
C  C112  1  0.18025822  0.23016772  0.24812198  1  0.504743  0  0.124836  0.168899  0  3.996181  0
C  C113  1  0.15523733  0.16181278  0.21005687  1  -0.024942  0  -0.075563  -0.155372  0  3.952314  0
C  C114  1  0.16238937  0.07605694  0.23022419  1  0.009303  0  -0.054813  -0.035797  0  3.930145  0
C  C115  1  0.19239159  0.05969720  0.28822766  1  -0.03267  0  -0.002864  -0.063925  0  3.927903  0
C  C116  1  0.21259568  0.13168372  0.32425895  1  0.511154  0  0.068717  0.102177  0  3.878194  0
C  C117  1  0.19285183  0.59678493  0.19094588  1  1.61964  0  0.217332  0.595849  0  4.203618  0
C  C118  1  0.20832269  0.96695575  0.30856213  1  1.612733  0  0.216989  0.595861  0  4.203961  0
C  C119  1  0.25538582  0.89281142  0.13637980  1  1.532616  0  0.130841  0.48233  0  4.225328  0
C  C120  1  0.46602603  0.21845650  0.74287404  1  0.468055  0  0.073374  0.108988  0  3.86183  0
C  C121  1  0.49994724  0.18796129  0.79692324  1  0.075044  0  -0.004374  -0.067785  0  3.933583  0
C  C122  1  0.44164227  0.15256294  0.83853965  1  -0.062287  0  -0.053417  -0.031334  0  3.935917  0
C  C123  1  0.35280085  0.14911613  0.82514775  1  -0.014149  0  -0.076803  -0.162014  0  3.957256  0
C  C124  1  0.32344305  0.18082212  0.77002875  1  0.485104  0  0.128591  0.179347  0  3.970429  0
C  C125  1  0.23016592  0.18025648  0.75187787  1  0.504747  0  0.124805  0.168902  0  3.996095  0
C  C126  1  0.16181092  0.15523624  0.78994301  1  -0.024579  0  -0.075532  -0.155329  0  3.952244  0
C  C127  1  0.07605504  0.16238763  0.76977571  1  0.009152  0  -0.054812  -0.035835  0  3.930294  0
C  C128  1  0.05969663  0.19239118  0.71177312  1  -0.032557  0  -0.002866  -0.063892  0  3.927892  0
C  C129  1  0.13168191  0.21259593  0.67574181  1  0.511113  0  0.068771  0.102309  0  3.878066  0
C  C130  1  0.59678397  0.19285266  0.80905432  1  1.619645  0  0.217325  0.595771  0  4.203667  0
C  C131  1  0.96695442  0.20832228  0.69143751  1  1.612782  0  0.216929  0.595756  0  4.204033  0
C  C132  1  0.89281191  0.25538658  0.86362075  1  1.5326  0  0.13081  0.482293  0  4.225379  0
C  C133  1  0.53397500  0.78154294  0.24287416  1  0.468059  0  0.073363  0.108934  0  3.861954  0
C  C134  1  0.50005247  0.81203810  0.29692290  1  0.07504  0  -0.004411  -0.067846  0  3.933706  0
C  C135  1  0.55835742  0.84743640  0.33853929  1  -0.062258  0  -0.053434  -0.03131  0  3.935915  0
C  C136  1  0.64720016  0.85088388  0.32514782  1  -0.014162  0  -0.076815  -0.162105  0  3.957273  0
C  C137  1  0.67655666  0.81917794  0.27002973  1  0.485076  0  0.128627  0.179387  0  3.970554  0
C  C138  1  0.76983379  0.81974295  0.25187839  1  0.50477  0  0.124822  0.168961  0  3.996055  0
C  C139  1  0.83819010  0.84476315  0.28994396  1  -0.024797  0  -0.075521  -0.155375  0  3.95226  0
C  C140  1  0.92394532  0.83761113  0.26977710  1  0.009223  0  -0.054807  -0.035758  0  3.93027  0
C  C141  1  0.94030309  0.80760829  0.21177363  1  -0.03268  0  -0.002924  -0.063939  0  3.927893  0
C  C142  1  0.86831848  0.78740553  0.17574189  1  0.511125  0  0.068758  0.102229  0  3.878145  0
C  C143  1  0.40321573  0.80714736  0.30905399  1  1.619645  0  0.217368  0.595933  0  4.203519  0
C  C144  1  0.03304596  0.79167786  0.19143901  1  1.612788  0  0.216868  0.595626  0  4.203897  0
C  C145  1  0.10718778  0.74461274  0.36362048  1  1.532588  0  0.130824  0.482329  0  4.225333  0
C  C146  1  0.71845096  0.03396377  0.99286747  1  0.468223  0  0.073236  0.10877  0  3.862079  0
C  C147  1  0.68795809  0.00004070  0.04691671  1  0.074767  0  -0.004348  -0.067736  0  3.933657  0
C  C148  1  0.65256894  0.05834912  0.08853578  1  -0.062093  0  -0.053392  -0.031508  0  3.935775  0
C  C149  1  0.64912317  0.14719111  0.07514653  1  -0.013653  0  -0.076757  -0.162017  0  3.957044  0
C  C150  1  0.68082034  0.17654668  0.02002486  1  0.484589  0  0.128597  0.179428  0  3.970647  0
C  C151  1  0.68025971  0.26982572  0.00187618  1  0.504863  0  0.124777  0.168824  0  3.99635  0
C  C152  1  0.65523372  0.33817644  0.03994264  1  -0.024968  0  -0.075491  -0.155326  0  3.952121  0
C  C153  1  0.66238743  0.42393498  0.01977799  1  0.008854  0  -0.054871  -0.035915  0  3.929817  0
C  C154  1  0.69238909  0.44029788  0.96177492  1  -0.032565  0  -0.002777  -0.063718  0  3.927872  0
C  C155  1  0.71259038  0.36831487  0.92573961  1  0.511131  0  0.06872  0.102236  0  3.878309  0
C  C156  1  0.69284833  0.90320529  0.05904805  1  1.619518  0  0.217241  0.595757  0  4.203927  0
C  C157  1  0.70831933  0.53304204  0.94144202  1  1.613835  0  0.216777  0.595542  0  4.204255  0
C  C158  1  0.75537816  0.60718085  0.11363242  1  1.533095  0  0.130855  0.482522  0  4.225659  0
C  C159  1  0.28154870  0.96603543  0.49286754  1  0.468237  0  0.073282  0.108871  0  3.862117  0
C  C160  1  0.31204167  0.99995892  0.54691717  1  0.074778  0  -0.004317  -0.067717  0  3.933628  0
C  C161  1  0.34743016  0.94165046  0.58853670  1  -0.06211  0  -0.053393  -0.031481  0  3.935771  0
C  C162  1  0.35087659  0.85280783  0.57514704  1  -0.01367  0  -0.076757  -0.162012  0  3.957108  0
C  C163  1  0.31918009  0.82345297  0.52002583  1  0.484697  0  0.128689  0.179588  0  3.970518  0
C  C164  1  0.31974072  0.73017394  0.50187675  1  0.504752  0  0.124743  0.168748  0  3.996362  0
C  C165  1  0.34476669  0.66182319  0.53994279  1  -0.024991  0  -0.075544  -0.155344  0  3.952091  0
C  C166  1  0.33761365  0.57606467  0.51977818  1  0.008861  0  -0.054823  -0.035862  0  3.929749  0
C  C167  1  0.30761188  0.55970200  0.46177471  1  -0.032562  0  -0.002786  -0.063689  0  3.92782  0
C  C168  1  0.28740930  0.63168505  0.42573982  1  0.511131  0  0.068673  0.102154  0  3.878327  0
C  C169  1  0.30714947  0.09679366  0.55904845  1  1.619543  0  0.217182  0.595673  0  4.20388  0
C  C170  1  0.29168099  0.46695787  0.44144230  1  1.613835  0  0.216765  0.595499  0  4.204242  0
C  C171  1  0.24462289  0.39282002  0.61362958  1  1.533034  0  0.130867  0.482436  0  4.225659  0
N  N172  1  0.11943203  0.71464275  0.02005378  1  -1.229382  0  -0.310186  -0.244398  0  3.508628  0
N  N173  1  0.28599015  0.70759201  0.05424584  1  -1.237031  0  -0.308971  -0.25627  0  3.506709  0
N  N174  1  0.88056839  0.28535690  0.52005359  1  -1.229371  0  -0.310167  -0.244338  0  3.508587  0
N  N175  1  0.71400896  0.29240695  0.55424522  1  -1.237051  0  -0.308944  -0.256275  0  3.50681  0
N  N176  1  0.78535102  0.61944147  0.77004693  1  -1.229715  0  -0.310245  -0.244425  0  3.508548  0
N  N177  1  0.79240894  0.78599497  0.80424120  1  -1.237051  0  -0.308954  -0.256107  0  3.506729  0
N  N178  1  0.21465066  0.38056122  0.27004725  1  -1.229719  0  -0.310251  -0.244387  0  3.508518  0
N  N179  1  0.20759273  0.21400703  0.30424115  1  -1.237082  0  -0.308816  -0.25594  0  3.50666  0
N  N180  1  0.38055886  0.21464891  0.72995344  1  -1.2297  0  -0.310234  -0.244431  0  3.508564  0
N  N181  1  0.21400591  0.20759166  0.69575915  1  -1.237041  0  -0.308864  -0.256012  0  3.506675  0
N  N182  1  0.61944086  0.78535054  0.22995355  1  -1.229713  0  -0.31022  -0.244348  0  3.508656  0
N  N183  1  0.78599448  0.79240848  0.19575968  1  -1.237016  0  -0.308847  -0.256024  0  3.50669  0
N  N184  1  0.71464175  0.11943150  0.97994640  1  -1.229356  0  -0.310189  -0.244385  0  3.508749  0
N  N185  1  0.70759234  0.28599019  0.94575474  1  -1.237046  0  -0.308893  -0.256119  0  3.506722  0
N  N186  1  0.28535791  0.88056902  0.47994650  1  -1.229359  0  -0.310261  -0.244496  0  3.508766  0
N  N187  1  0.29240733  0.71400970  0.44575491  1  -1.237023  0  -0.308871  -0.256083  0  3.506721  0
O  O188  1  0.85643642  0.72871729  0.98056395  1  -1.175045  0  -0.306483  -0.545872  0  2.313639  0
O  O189  1  0.87855765  0.66010727  0.89137475  1  -1.177279  0  -0.32293  -0.55055  0  2.325793  0
O  O190  1  0.58757979  0.71757646  0.01661852  1  -1.176839  0  -0.308581  -0.565495  0  2.373266  0
O  O191  1  0.54735118  0.71311885  0.11447638  1  -1.154314  0  -0.313911  -0.541629  0  2.288067  0
O  O192  1  0.68501440  0.74538987  0.91018616  1  -1.177912  0  -0.335599  -0.559302  0  2.539398  0
O  O193  1  0.58608610  0.72481962  0.83737554  1  -1.16666  0  -0.343736  -0.508545  0  2.090029  0
O  O194  1  0.14356259  0.27128191  0.48056389  1  -1.175056  0  -0.306459  -0.54586  0  2.313702  0
O  O195  1  0.12144203  0.33989202  0.39137421  1  -1.177272  0  -0.322907  -0.550546  0  2.325778  0
O  O196  1  0.41242063  0.28242123  0.51661838  1  -1.176848  0  -0.308604  -0.565507  0  2.373238  0
O  O197  1  0.45264857  0.28688136  0.61447668  1  -1.154331  0  -0.313853  -0.541525  0  2.287954  0
O  O198  1  0.31498397  0.25460875  0.41018742  1  -1.177519  0  -0.335636  -0.559396  0  2.539386  0
O  O199  1  0.41391294  0.27517841  0.33737723  1  -1.166538  0  -0.343731  -0.508523  0  2.089996  0
O  O200  1  0.77126898  0.35644548  0.73055412  1  -1.17512  0  -0.306473  -0.545831  0  2.31361  0
O  O201  1  0.83990621  0.37856361  0.64137560  1  -1.177072  0  -0.322999  -0.550666  0  2.325551  0
O  O202  1  0.78241039  0.08758442  0.76662431  1  -1.176568  0  -0.30867  -0.565549  0  2.373189  0
O  O203  1  0.78688515  0.04735389  0.86448128  1  -1.153639  0  -0.313863  -0.541629  0  2.288105  0
O  O204  1  0.75460031  0.18502862  0.66019332  1  -1.177761  0  -0.335655  -0.5594  0  2.539286  0
O  O205  1  0.77517665  0.08608560  0.58739208  1  -1.166333  0  -0.343583  -0.508358  0  2.089894  0
O  O206  1  0.22873139  0.64355724  0.23055254  1  -1.175105  0  -0.306492  -0.545838  0  2.313619  0
O  O207  1  0.16009288  0.62143658  0.14137493  1  -1.177128  0  -0.32299  -0.550642  0  2.325599  0
O  O208  1  0.21758867  0.91241695  0.26662396  1  -1.176579  0  -0.308725  -0.565627  0  2.373183  0
O  O209  1  0.21311585  0.95264674  0.36448002  1  -1.153571  0  -0.313908  -0.541692  0  2.287942  0
O  O210  1  0.24539942  0.81497089  0.16019300  1  -1.17777  0  -0.335643  -0.559376  0  2.539293  0
O  O211  1  0.22482179  0.91391202  0.08739084  1  -1.166374  0  -0.343637  -0.50839  0  2.089885  0
O  O212  1  0.64355502  0.22873223  0.76944718  1  -1.175104  0  -0.306465  -0.545763  0  2.313628  0
O  O213  1  0.62143626  0.16009305  0.85862482  1  -1.177111  0  -0.322999  -0.550639  0  2.325595  0
O  O214  1  0.91241556  0.21759019  0.73337614  1  -1.176597  0  -0.308678  -0.565581  0  2.373248  0
O  O215  1  0.95264543  0.21311481  0.63551963  1  -1.153604  0  -0.313919  -0.541708  0  2.288048  0
O  O216  1  0.81497134  0.24539955  0.83980757  1  -1.177746  0  -0.335661  -0.559391  0  2.53935  0
O  O217  1  0.91391446  0.22482320  0.91260882  1  -1.166386  0  -0.343594  -0.508345  0  2.089885  0
O  O218  1  0.35644404  0.77126783  0.26944688  1  -1.175122  0  -0.306494  -0.545864  0  2.313611  0
O  O219  1  0.37856474  0.83990627  0.35862492  1  -1.177098  0  -0.32299  -0.550662  0  2.325548  0
O  O220  1  0.08758481  0.78241056  0.23337675  1  -1.176653  0  -0.308642  -0.565526  0  2.373076  0
O  O221  1  0.04735365  0.78688538  0.13552024  1  -1.153543  0  -0.31388  -0.541613  0  2.287999  0
O  O222  1  0.18502901  0.75460044  0.33980773  1  -1.177742  0  -0.335662  -0.559363  0  2.539299  0
O  O223  1  0.08608522  0.77517607  0.41260854  1  -1.166364  0  -0.343601  -0.508362  0  2.089886  0
O  O224  1  0.72871491  0.85643668  0.01943379  1  -1.175059  0  -0.306521  -0.545945  0  2.313662  0
O  O225  1  0.66010676  0.87855653  0.10862391  1  -1.177232  0  -0.322901  -0.550538  0  2.325822  0
O  O226  1  0.71757677  0.58757898  0.98338198  1  -1.176837  0  -0.308549  -0.565488  0  2.373286  0
O  O227  1  0.71311856  0.54735045  0.88552369  1  -1.154309  0  -0.31389  -0.541581  0  2.288079  0
O  O228  1  0.74539138  0.68501603  0.08981297  1  -1.177515  0  -0.335633  -0.559423  0  2.539379  0
O  O229  1  0.72482042  0.58608906  0.16262362  1  -1.166567  0  -0.343709  -0.50855  0  2.090011  0
O  O230  1  0.27128093  0.14356231  0.51943596  1  -1.175104  0  -0.306472  -0.545863  0  2.313702  0
O  O231  1  0.33989234  0.12144303  0.60862429  1  -1.177229  0  -0.322933  -0.550558  0  2.325702  0
O  O232  1  0.28242355  0.41242088  0.48338184  1  -1.176837  0  -0.308567  -0.565497  0  2.373297  0
O  O233  1  0.28688178  0.45264950  0.38552353  1  -1.154306  0  -0.313871  -0.541559  0  2.288061  0
O  O234  1  0.25460903  0.31498290  0.58981194  1  -1.177557  0  -0.335656  -0.559401  0  2.539409  0
O  O235  1  0.27517800  0.41391111  0.66262210  1  -1.166481  0  -0.343674  -0.50846  0  2.090039  0
