# generated using pymatgen
data_LiH8C11NO4
_symmetry_space_group_name_H-M   'P 1'
_cell_length_a   4.95597664
_cell_length_b   14.17704230
_cell_length_c   14.44843185
_cell_angle_alpha   112.51374963
_cell_angle_beta   89.99997728
_cell_angle_gamma   90.00008138
_symmetry_Int_Tables_number   1
_chemical_formula_structural   LiH8C11NO4
_chemical_formula_sum   'Li4 H32 C44 N4 O16'
_cell_volume   937.79467202
_cell_formula_units_Z   4
loop_
 _symmetry_equiv_pos_site_id
 _symmetry_equiv_pos_as_xyz
  1  'x, y, z'
loop_
 _atom_site_type_symbol
 _atom_site_label
 _atom_site_symmetry_multiplicity
 _atom_site_fract_x
 _atom_site_fract_y
 _atom_site_fract_z
 _atom_site_occupancy
 _atom_site_hle17_bader_spin_density
 _atom_site_hle17_ddec_charge
 _atom_site_hle17_ddec_spin_density
 _atom_site_hle17_ddec_sum_bond_order
 _atom_site_hle17_magmom
 _atom_site_hse06_10hf_bader_spin_density
 _atom_site_hse06_10hf_ddec_charge
 _atom_site_hse06_10hf_ddec_spin_density
 _atom_site_hse06_10hf_ddec_sum_bond_order
 _atom_site_hse06_10hf_magmom
 _atom_site_hse06_bader_spin_density
 _atom_site_hse06_ddec_charge
 _atom_site_hse06_ddec_spin_density
 _atom_site_hse06_ddec_sum_bond_order
 _atom_site_hse06_magmom
 _atom_site_pbe_bader_spin_density
 _atom_site_pbe_cm5_charge
 _atom_site_pbe_ddec_charge
 _atom_site_pbe_ddec_spin_density
 _atom_site_pbe_ddec_sum_bond_order
 _atom_site_pbe_magmom
Li  Li0  1  0.66832092  0.30072383  0.06325494  1  0  0.855843  0  0.404141  0  0  0.816767  0  0.511155  0  0  0.826634  0  0.493254  0  0  0.512156  0.809598  0  0.524059  0
Li  Li1  1  0.16831986  0.19927567  0.93674776  1  0  0.855831  0  0.404124  0  0  0.816758  0  0.511131  0  0  0.826625  0  0.49323  0  0  0.512154  0.809589  0  0.524035  0
Li  Li2  1  0.33167920  0.69927630  0.93674604  1  0  0.855841  0  0.404138  0  0  0.816756  0  0.511166  0  0  0.826624  0  0.493265  0  0  0.512151  0.809587  0  0.52407  0
Li  Li3  1  0.83167823  0.80072369  0.06325362  1  0  0.855847  0  0.404132  0  0  0.816772  0  0.511142  0  0  0.826638  0  0.493243  0  0  0.512151  0.809602  0  0.524047  0
H  H4  1  0.14382670  0.21585872  0.15049428  1  0  0.089112  0  0.929307  0  0  0.101715  0  0.994959  0  0  0.10387  0  0.992563  0  0  0.133293  0.100005  0  0.996924  0
H  H5  1  0.64382878  0.28414078  0.84950497  1  0  0.089094  0  0.929289  0  0  0.10169  0  0.994978  0  0  0.103846  0  0.992576  0  0  0.133278  0.09998  0  0.996943  0
H  H6  1  0.85617342  0.78414065  0.84950503  1  0  0.089118  0  0.929316  0  0  0.101717  0  0.994994  0  0  0.103873  0  0.992593  0  0  0.133279  0.100008  0  0.99696  0
H  H7  1  0.35617335  0.71585936  0.15049463  1  0  0.089067  0  0.929294  0  0  0.101658  0  0.994979  0  0  0.103813  0  0.992577  0  0  0.133249  0.099948  0  0.996944  0
H  H8  1  0.92708694  0.18805156  0.23487781  1  0  0.078823  0  0.945774  0  0  0.092941  0  1.009861  0  0  0.094213  0  1.008708  0  0  0.112963  0.091952  0  1.010767  0
H  H9  1  0.42708856  0.31194885  0.76512175  1  0  0.078812  0  0.945785  0  0  0.092933  0  1.009879  0  0  0.094203  0  1.008726  0  0  0.112978  0.091945  0  1.010785  0
H  H10  1  0.07291317  0.81194857  0.76512110  1  0  0.078815  0  0.945813  0  0  0.09295  0  1.009888  0  0  0.094221  0  1.008735  0  0  0.112964  0.091961  0  1.010794  0
H  H11  1  0.57291357  0.68805128  0.23487785  1  0  0.078835  0  0.945807  0  0  0.092959  0  1.009877  0  0  0.094228  0  1.008727  0  0  0.112983  0.091969  0  1.010784  0
H  H12  1  0.83286994  0.46929884  0.26846639  1  0  0.123229  0  0.958132  0  0  0.126601  0  1.026901  0  0  0.130763  0  1.024358  0  0  0.119408  0.123518  0  1.028889  0
H  H13  1  0.33287449  0.03070228  0.73153345  1  0  0.123211  0  0.958148  0  0  0.126583  0  1.026921  0  0  0.130746  0  1.024375  0  0  0.119402  0.123501  0  1.028906  0
H  H14  1  0.16712614  0.53070129  0.73153321  1  0  0.123214  0  0.95813  0  0  0.126583  0  1.026905  0  0  0.130746  0  1.02436  0  0  0.119401  0.123502  0  1.028895  0
H  H15  1  0.66712764  0.96929861  0.26846644  1  0  0.123232  0  0.958131  0  0  0.126602  0  1.026903  0  0  0.130765  0  1.024359  0  0  0.119409  0.123519  0  1.02889  0
H  H16  1  0.50935885  0.10932824  0.18700687  1  0  0.07746  0  0.936084  0  0  0.095693  0  0.995901  0  0  0.096979  0  0.995634  0  0  0.09809  0.094675  0  0.996243  0
H  H17  1  0.00935872  0.39067196  0.81299266  1  0  0.077521  0  0.936107  0  0  0.095753  0  0.995913  0  0  0.09704  0  0.995648  0  0  0.098104  0.094736  0  0.996256  0
H  H18  1  0.49064126  0.89067190  0.81299273  1  0  0.077512  0  0.936101  0  0  0.095746  0  0.995909  0  0  0.097033  0  0.995642  0  0  0.098103  0.094728  0  0.996251  0
H  H19  1  0.99064139  0.60932817  0.18700694  1  0  0.077518  0  0.936114  0  0  0.095748  0  0.995919  0  0  0.097035  0  0.995653  0  0  0.0981  0.094729  0  0.996262  0
H  H20  1  0.27771318  0.07856874  0.26494323  1  0  0.056923  0  0.947001  0  0  0.077628  0  1.007891  0  0  0.077166  0  1.00995  0  0  0.087176  0.077874  0  1.006553  0
H  H21  1  0.77771394  0.42143084  0.73505602  1  0  0.056945  0  0.946995  0  0  0.077647  0  1.00788  0  0  0.077197  0  1.009927  0  0  0.087188  0.077893  0  1.006543  0
H  H22  1  0.72228693  0.92143140  0.73505637  1  0  0.056954  0  0.946963  0  0  0.077641  0  1.007871  0  0  0.077184  0  1.009925  0  0  0.087186  0.077886  0  1.006533  0
H  H23  1  0.22228819  0.57856930  0.26494357  1  0  0.056978  0  0.946961  0  0  0.077662  0  1.007863  0  0  0.077204  0  1.009918  0  0  0.087193  0.077906  0  1.006524  0
H  H24  1  0.98982752  0.37559946  0.58892882  1  0  0.110342  0  0.937528  0  0  0.11735  0  1.00087  0  0  0.121282  0  0.997765  0  0  0.112952  0.114482  0  1.003174  0
H  H25  1  0.48982678  0.12439945  0.41107154  1  0  0.110351  0  0.937522  0  0  0.117334  0  1.000894  0  0  0.121264  0  0.997793  0  0  0.112955  0.114465  0  1.003212  0
H  H26  1  0.01016855  0.62440067  0.41107078  1  0  0.110368  0  0.937502  0  0  0.117383  0  1.000835  0  0  0.121315  0  0.99773  0  0  0.112967  0.114512  0  1.003142  0
H  H27  1  0.51017132  0.87560068  0.58892875  1  0  0.110361  0  0.937533  0  0  0.117351  0  1.000893  0  0  0.121283  0  0.99779  0  0  0.112964  0.114481  0  1.00321  0
H  H28  1  0.19109457  0.03640254  0.04241085  1  0  0.11352  0  0.939517  0  0  0.130112  0  0.997277  0  0  0.131842  0  0.997775  0  0  0.114352  0.128881  0  0.997022  0
H  H29  1  0.69109323  0.46359775  0.95758869  1  0  0.113528  0  0.939539  0  0  0.130112  0  0.997304  0  0  0.131842  0  0.997801  0  0  0.114363  0.128882  0  0.997047  0
H  H30  1  0.80890957  0.96359530  0.95758857  1  0  0.113523  0  0.939536  0  0  0.130097  0  0.997295  0  0  0.131824  0  0.997797  0  0  0.114359  0.128867  0  0.997039  0
H  H31  1  0.30890688  0.53640391  0.04241149  1  0  0.113542  0  0.939497  0  0  0.130111  0  0.997287  0  0  0.13184  0  0.997786  0  0  0.114356  0.128881  0  0.997031  0
H  H32  1  0.96425387  0.00086452  0.11678469  1  0  0.105934  0  0.96234  0  0  0.119181  0  1.025642  0  0  0.122213  0  1.023784  0  0  0.105681  0.116977  0  1.027111  0
H  H33  1  0.46425410  0.49913591  0.88321486  1  0  0.105959  0  0.962324  0  0  0.119211  0  1.025617  0  0  0.122244  0  1.02376  0  0  0.105711  0.117009  0  1.027087  0
H  H34  1  0.03574624  0.99913484  0.88321531  1  0  0.105952  0  0.962355  0  0  0.119196  0  1.025647  0  0  0.122229  0  1.023788  0  0  0.105695  0.116995  0  1.027115  0
H  H35  1  0.53574601  0.50086499  0.11678502  1  0  0.105954  0  0.962337  0  0  0.119203  0  1.025644  0  0  0.122234  0  1.023787  0  0  0.105697  0.116999  0  1.027113  0
C  C36  1  0.13787623  0.19643942  0.21694447  1  0  0.014019  0  3.613412  0  0  -0.051179  0  3.883152  0  0  -0.044933  0  3.891315  0  0  -0.053914  -0.055283  0  3.877597  0
C  C37  1  0.63787847  0.30356084  0.78305506  1  0  0.014133  0  3.613372  0  0  -0.051084  0  3.883146  0  0  -0.044831  0  3.8913  0  0  -0.053901  -0.055187  0  3.877591  0
C  C38  1  0.86212590  0.80355995  0.78305484  1  0  0.014072  0  3.613435  0  0  -0.051163  0  3.883235  0  0  -0.044912  0  3.891389  0  0  -0.053908  -0.055268  0  3.87768  0
C  C39  1  0.36212366  0.69644005  0.21694551  1  0  0.014067  0  3.613527  0  0  -0.051123  0  3.883242  0  0  -0.044869  0  3.891395  0  0  -0.053921  -0.055228  0  3.877686  0
C  C40  1  0.44911496  0.45641873  0.46007802  1  0  0.03065  0  3.788834  0  0  0.032292  0  4.019129  0  0  0.032723  0  4.044131  0  0  0.006318  0.032021  0  4.00221  0
C  C41  1  0.94911442  0.04358093  0.53992262  1  0  0.030633  0  3.78874  0  0  0.03226  0  4.019149  0  0  0.03269  0  4.044152  0  0  0.006306  0.03199  0  4.002226  0
C  C42  1  0.55088515  0.54358140  0.53992227  1  0  0.030648  0  3.788799  0  0  0.032279  0  4.019133  0  0  0.032708  0  4.044135  0  0  0.006324  0.032008  0  4.002214  0
C  C43  1  0.05088570  0.95641844  0.46007807  1  0  0.03057  0  3.78882  0  0  0.03222  0  4.019156  0  0  0.03265  0  4.044158  0  0  0.006293  0.03195  0  4.002233  0
C  C44  1  0.45719800  0.33794505  0.28053575  1  0  0.530819  0  3.780489  0  0  0.487104  0  4.058762  0  0  0.516925  0  4.057555  0  0  0.266673  0.467073  0  4.059048  0
C  C45  1  0.95719369  0.16205385  0.71946461  1  0  0.530742  0  3.780607  0  0  0.487056  0  4.058932  0  0  0.51687  0  4.057738  0  0  0.266631  0.467027  0  4.059221  0
C  C46  1  0.54280211  0.66205508  0.71946454  1  0  0.530831  0  3.780513  0  0  0.48714  0  4.058782  0  0  0.51696  0  4.057575  0  0  0.266684  0.467111  0  4.05907  0
C  C47  1  0.04280441  0.83794552  0.28053539  1  0  0.53076  0  3.780514  0  0  0.487046  0  4.058813  0  0  0.516833  0  4.057663  0  0  0.266656  0.467017  0  4.059097  0
C  C48  1  0.55594759  0.43040776  0.36261475  1  0  -0.077065  0  3.751812  0  0  -0.068942  0  3.996543  0  0  -0.076072  0  4.018608  0  0  -0.000729  -0.064353  0  3.981763  0
C  C49  1  0.05594636  0.06959322  0.63738576  1  0  -0.0769  0  3.751552  0  0  -0.068962  0  3.99658  0  0  -0.076089  0  4.018645  0  0  -0.000757  -0.064373  0  3.9818  0
C  C50  1  0.44405252  0.56959236  0.63738623  1  0  -0.077008  0  3.751715  0  0  -0.068953  0  3.996542  0  0  -0.076081  0  4.018604  0  0  -0.000738  -0.064364  0  3.981765  0
C  C51  1  0.94405375  0.93040768  0.36261413  1  0  -0.076959  0  3.751615  0  0  -0.068891  0  3.996428  0  0  -0.076011  0  4.0185  0  0  -0.000737  -0.064301  0  3.981645  0
C  C52  1  0.24390604  0.39714393  0.47956709  1  0  -0.07057  0  3.746459  0  0  -0.06205  0  3.989535  0  0  -0.068817  0  4.011149  0  0  -0.000202  -0.05767  0  3.974941  0
C  C53  1  0.74389970  0.10285485  0.52043325  1  0  -0.070646  0  3.746506  0  0  -0.062035  0  3.989518  0  0  -0.068803  0  4.011131  0  0  -0.000199  -0.057658  0  3.974925  0
C  C54  1  0.75609609  0.60285543  0.52043290  1  0  -0.070595  0  3.74649  0  0  -0.062048  0  3.989543  0  0  -0.068813  0  4.011156  0  0  -0.00018  -0.057669  0  3.974948  0
C  C55  1  0.25609638  0.89714452  0.47956675  1  0  -0.070579  0  3.746478  0  0  -0.062023  0  3.989507  0  0  -0.068791  0  4.011122  0  0  -0.000182  -0.057643  0  3.974911  0
C  C56  1  0.75555924  0.49032898  0.34459879  1  0  -0.043902  0  3.641322  0  0  -0.07144  0  3.903417  0  0  -0.070608  0  3.919675  0  0  -0.059193  -0.071978  0  3.892578  0
C  C57  1  0.25556178  0.00967134  0.65540144  1  0  -0.043931  0  3.641182  0  0  -0.071408  0  3.90332  0  0  -0.070574  0  3.919573  0  0  -0.059177  -0.071946  0  3.892484  0
C  C58  1  0.24443885  0.50967115  0.65540150  1  0  -0.043921  0  3.641266  0  0  -0.071439  0  3.903373  0  0  -0.070606  0  3.919629  0  0  -0.059203  -0.071979  0  3.892541  0
C  C59  1  0.74443833  0.99032879  0.34459885  1  0  -0.04393  0  3.64122  0  0  -0.071447  0  3.90332  0  0  -0.070614  0  3.919573  0  0  -0.059187  -0.071984  0  3.892481  0
C  C60  1  0.13071933  0.30813093  0.39657765  1  0  0.5015  0  3.801294  0  0  0.457688  0  4.086206  0  0  0.486945  0  4.086115  0  0  0.248796  0.438006  0  4.085754  0
C  C61  1  0.63072133  0.19186856  0.60342160  1  0  0.501541  0  3.801216  0  0  0.457671  0  4.086194  0  0  0.486929  0  4.086103  0  0  0.248793  0.43799  0  4.085739  0
C  C62  1  0.86927876  0.69186920  0.60342264  1  0  0.501509  0  3.801299  0  0  0.45771  0  4.086187  0  0  0.486966  0  4.086094  0  0  0.248786  0.438027  0  4.085734  0
C  C63  1  0.36927878  0.80813157  0.39657800  1  0  0.501507  0  3.801306  0  0  0.457687  0  4.08622  0  0  0.486944  0  4.08613  0  0  0.248813  0.438003  0  4.085765  0
C  C64  1  0.29461406  0.09817928  0.19850559  1  0  -0.089764  0  3.683535  0  0  -0.135121  0  3.946416  0  0  -0.135908  0  3.960116  0  0  -0.161315  -0.134326  0  3.936851  0
C  C65  1  0.79461467  0.40182106  0.80149465  1  0  -0.089931  0  3.683627  0  0  -0.135281  0  3.946524  0  0  -0.136081  0  3.960223  0  0  -0.161354  -0.134484  0  3.936967  0
C  C66  1  0.70538605  0.90182085  0.80149470  1  0  -0.089869  0  3.683565  0  0  -0.135227  0  3.946475  0  0  -0.136019  0  3.960172  0  0  -0.161336  -0.134427  0  3.936913  0
C  C67  1  0.20538544  0.59817908  0.19850495  1  0  -0.089938  0  3.683628  0  0  -0.135274  0  3.946506  0  0  -0.13607  0  3.960206  0  0  -0.161343  -0.134474  0  3.936941  0
C  C68  1  0.14536844  0.42347277  0.57619688  1  0  -0.019383  0  3.66424  0  0  -0.048889  0  3.928188  0  0  -0.046924  0  3.943358  0  0  -0.058563  -0.050085  0  3.917877  0
C  C69  1  0.64536816  0.07652596  0.42380346  1  0  -0.019352  0  3.664299  0  0  -0.048855  0  3.928251  0  0  -0.04689  0  3.94342  0  0  -0.058566  -0.050058  0  3.917941  0
C  C70  1  0.85462763  0.57652736  0.42380341  1  0  -0.019386  0  3.664275  0  0  -0.048913  0  3.928241  0  0  -0.046948  0  3.94341  0  0  -0.058585  -0.050106  0  3.917923  0
C  C71  1  0.35463195  0.92347340  0.57619654  1  0  -0.01937  0  3.66428  0  0  -0.048863  0  3.928218  0  0  -0.046898  0  3.943387  0  0  -0.058564  -0.050063  0  3.917906  0
C  C72  1  0.32356064  0.91069421  0.07321956  1  0  0.756333  0  3.834432  0  0  0.715787  0  4.129947  0  0  0.747904  0  4.121211  0  0  0.229445  0.694032  0  4.135063  0
C  C73  1  0.82355983  0.58930577  0.92678010  1  0  0.756349  0  3.834422  0  0  0.715818  0  4.129907  0  0  0.747937  0  4.121168  0  0  0.229448  0.694062  0  4.135026  0
C  C74  1  0.67644351  0.08930668  0.92678171  1  0  0.756459  0  3.834227  0  0  0.715902  0  4.129753  0  0  0.748022  0  4.121009  0  0  0.229487  0.694149  0  4.13487  0
C  C75  1  0.17644230  0.41069436  0.07322019  1  0  0.756321  0  3.834427  0  0  0.715794  0  4.129917  0  0  0.747913  0  4.121178  0  0  0.229458  0.694037  0  4.135035  0
C  C76  1  0.17951857  0.01297648  0.10675503  1  0  -0.286107  0  3.665398  0  0  -0.318463  0  3.904885  0  0  -0.325714  0  3.915084  0  0  -0.160905  -0.313494  0  3.897866  0
C  C77  1  0.67951739  0.48702380  0.89324450  1  0  -0.286134  0  3.665424  0  0  -0.318483  0  3.904903  0  0  -0.325736  0  3.915105  0  0  -0.160944  -0.313517  0  3.897891  0
C  C78  1  0.82048356  0.98702288  0.89324496  1  0  -0.286225  0  3.665499  0  0  -0.318531  0  3.90495  0  0  -0.325782  0  3.915147  0  0  -0.16095  -0.313568  0  3.89794  0
C  C79  1  0.32048272  0.51297634  0.10675440  1  0  -0.286138  0  3.665431  0  0  -0.318495  0  3.904933  0  0  -0.325746  0  3.915134  0  0  -0.160936  -0.313525  0  3.897914  0
N  N80  1  0.24513675  0.28471832  0.30127900  1  0  -0.272072  0  3.352745  0  0  -0.191177  0  3.585045  0  0  -0.216888  0  3.602785  0  0  -0.237105  -0.17379  0  3.572387  0
N  N81  1  0.74513470  0.21528123  0.69872094  1  0  -0.272121  0  3.352764  0  0  -0.191182  0  3.585066  0  0  -0.216891  0  3.602805  0  0  -0.237109  -0.173796  0  3.572409  0
N  N82  1  0.75486336  0.71528104  0.69872099  1  0  -0.272114  0  3.352775  0  0  -0.191207  0  3.585075  0  0  -0.216918  0  3.602812  0  0  -0.237097  -0.17382  0  3.572418  0
N  N83  1  0.25486542  0.78471966  0.30127964  1  0  -0.272061  0  3.352821  0  0  -0.19115  0  3.585107  0  0  -0.216854  0  3.602858  0  0  -0.237095  -0.173764  0  3.572448  0
O  O84  1  0.55550555  0.30718991  0.19542401  1  0  -0.553923  0  1.998623  0  0  -0.514809  0  2.234195  0  0  -0.533439  0  2.226762  0  0  -0.304517  -0.502148  0  2.239042  0
O  O85  1  0.05550261  0.19280954  0.80457661  1  0  -0.553865  0  1.998657  0  0  -0.51472  0  2.234191  0  0  -0.533363  0  2.226802  0  0  -0.304443  -0.502056  0  2.239035  0
O  O86  1  0.44449254  0.69281099  0.80457519  1  0  -0.553912  0  1.998616  0  0  -0.514791  0  2.234179  0  0  -0.533429  0  2.226764  0  0  -0.304516  -0.50213  0  2.239023  0
O  O87  1  0.94449549  0.80718982  0.19542407  1  0  -0.55387  0  1.998624  0  0  -0.514752  0  2.234199  0  0  -0.533372  0  2.226792  0  0  -0.304483  -0.502091  0  2.239045  0
O  O88  1  0.18645333  0.83154767  0.02000908  1  0  -0.82128  0  1.930432  0  0  -0.780304  0  2.180329  0  0  -0.800531  0  2.163139  0  0  -0.456589  -0.766031  0  2.191821  0
O  O89  1  0.68645479  0.66845148  0.97999028  1  0  -0.821273  0  1.930441  0  0  -0.780321  0  2.180367  0  0  -0.800547  0  2.163177  0  0  -0.456575  -0.766044  0  2.191859  0
O  O90  1  0.81354880  0.16844938  0.97999557  1  0  -0.821302  0  1.930333  0  0  -0.780367  0  2.180315  0  0  -0.800594  0  2.163124  0  0  -0.456644  -0.766093  0  2.191807  0
O  O91  1  0.31354734  0.33154865  0.02000863  1  0  -0.821254  0  1.930452  0  0  -0.780286  0  2.180343  0  0  -0.800512  0  2.163152  0  0  -0.45658  -0.766012  0  2.191836  0
O  O92  1  0.94330578  0.25651508  0.40821426  1  0  -0.485526  0  1.92118  0  0  -0.450134  0  2.139466  0  0  -0.469572  0  2.136186  0  0  -0.266911  -0.436804  0  2.141361  0
O  O93  1  0.44330329  0.24348611  0.59178558  1  0  -0.485537  0  1.921075  0  0  -0.45015  0  2.139418  0  0  -0.469582  0  2.136128  0  0  -0.266916  -0.436823  0  2.141317  0
O  O94  1  0.05669030  0.74348658  0.59178592  1  0  -0.485533  0  1.921152  0  0  -0.450161  0  2.13945  0  0  -0.469601  0  2.136172  0  0  -0.266923  -0.436831  0  2.141344  0
O  O95  1  0.55669682  0.75651479  0.40821431  1  0  -0.485551  0  1.921156  0  0  -0.450174  0  2.139463  0  0  -0.469607  0  2.136175  0  0  -0.266939  -0.436847  0  2.141364  0
O  O96  1  0.56909648  0.90804609  0.09603212  1  0  -0.724931  0  1.935838  0  0  -0.67833  0  2.172642  0  0  -0.700029  0  2.159587  0  0  -0.38735  -0.66311  0  2.181224  0
O  O97  1  0.06909705  0.59195376  0.90396752  1  0  -0.724937  0  1.935805  0  0  -0.678339  0  2.172605  0  0  -0.70004  0  2.15955  0  0  -0.387362  -0.663118  0  2.181188  0
O  O98  1  0.43090766  0.09195558  0.90396668  1  0  -0.724945  0  1.935684  0  0  -0.678341  0  2.172498  0  0  -0.700041  0  2.159442  0  0  -0.387323  -0.663122  0  2.181079  0
O  O99  1  0.93090306  0.40804637  0.09603208  1  0  -0.724922  0  1.935774  0  0  -0.678324  0  2.172568  0  0  -0.700024  0  2.159514  0  0  -0.387362  -0.663104  0  2.181151  0
