# generated using pymatgen
data_Ba2H10C12O13
_symmetry_space_group_name_H-M   'P 1'
_cell_length_a   9.12342404
_cell_length_b   9.55895240
_cell_length_c   10.10775160
_cell_angle_alpha   103.95396836
_cell_angle_beta   90.00622075
_cell_angle_gamma   118.51553366
_symmetry_Int_Tables_number   1
_chemical_formula_structural   Ba2H10C12O13
_chemical_formula_sum   'Ba4 H20 C24 O26'
_cell_volume   744.81211507
_cell_formula_units_Z   2
loop_
 _symmetry_equiv_pos_site_id
 _symmetry_equiv_pos_as_xyz
  1  'x, y, z'
loop_
 _atom_site_type_symbol
 _atom_site_label
 _atom_site_symmetry_multiplicity
 _atom_site_fract_x
 _atom_site_fract_y
 _atom_site_fract_z
 _atom_site_occupancy
 _atom_site_hle17_bader_spin_density
 _atom_site_hle17_ddec_charge
 _atom_site_hle17_ddec_spin_density
 _atom_site_hle17_ddec_sum_bond_order
 _atom_site_hle17_magmom
 _atom_site_hse06_10hf_bader_spin_density
 _atom_site_hse06_10hf_ddec_charge
 _atom_site_hse06_10hf_ddec_spin_density
 _atom_site_hse06_10hf_ddec_sum_bond_order
 _atom_site_hse06_10hf_magmom
 _atom_site_hse06_bader_spin_density
 _atom_site_hse06_ddec_charge
 _atom_site_hse06_ddec_spin_density
 _atom_site_hse06_ddec_sum_bond_order
 _atom_site_hse06_magmom
 _atom_site_pbe_bader_spin_density
 _atom_site_pbe_cm5_charge
 _atom_site_pbe_ddec_charge
 _atom_site_pbe_ddec_spin_density
 _atom_site_pbe_ddec_sum_bond_order
 _atom_site_pbe_magmom
Ba  Ba0  1  0.42347677  0.22551869  0.49922646  1  0  1.649858  0  1.11298  0  0  1.493169  0  1.520821  0  0  1.537212  0  1.474059  0  0  0.92799  1.460626  0  1.55462  0
Ba  Ba1  1  0.19809282  0.77450771  0.00083106  1  0  1.64971  0  1.113691  0  0  1.492509  0  1.522326  0  0  1.536594  0  1.475515  0  0  0.928024  1.45995  0  1.556136  0
Ba  Ba2  1  0.57652328  0.77448112  0.50077452  1  0  1.649814  0  1.113029  0  0  1.493176  0  1.520798  0  0  1.537221  0  1.474035  0  0  0.927987  1.460632  0  1.554593  0
Ba  Ba3  1  0.80190784  0.22549334  0.99916922  1  0  1.649697  0  1.113723  0  0  1.492519  0  1.522316  0  0  1.536599  0  1.47551  0  0  0.928023  1.459961  0  1.556131  0
H  H4  1  0.89851272  0.85812912  0.86692395  1  0  0.415644  0  0.880177  0  0  0.379285  0  0.964961  0  0  0.393709  0  0.948291  0  0  0.30875  0.368963  0  0.975169  0
H  H5  1  0.04024927  0.14177787  0.63312718  1  0  0.416585  0  0.878162  0  0  0.380052  0  0.963321  0  0  0.394494  0  0.947044  0  0  0.308964  0.369705  0  0.97361  0
H  H6  1  0.10148623  0.14187070  0.13307407  1  0  0.415634  0  0.880124  0  0  0.379269  0  0.964918  0  0  0.393693  0  0.948296  0  0  0.30875  0.368947  0  0.975132  0
H  H7  1  0.95975201  0.85822441  0.36687338  1  0  0.416574  0  0.878202  0  0  0.38004  0  0.963361  0  0  0.394483  0  0.947064  0  0  0.308968  0.369696  0  0.973645  0
H  H8  1  0.42703747  0.91722260  0.27229832  1  0  0.431654  0  0.855965  0  0  0.405202  0  0.919044  0  0  0.414803  0  0.904965  0  0  0.318881  0.398024  0  0.929699  0
H  H9  1  0.50992665  0.08298087  0.22781631  1  0  0.431787  0  0.856277  0  0  0.405185  0  0.919353  0  0  0.414802  0  0.90524  0  0  0.318771  0.398001  0  0.930013  0
H  H10  1  0.57296258  0.08277721  0.72770068  1  0  0.431681  0  0.855945  0  0  0.405235  0  0.919  0  0  0.414834  0  0.904923  0  0  0.318897  0.398054  0  0.929657  0
H  H11  1  0.49007401  0.91702017  0.77218496  1  0  0.431782  0  0.856279  0  0  0.405183  0  0.919352  0  0  0.414799  0  0.905241  0  0  0.318777  0.397998  0  0.930013  0
H  H12  1  0.22994614  0.58038166  0.47211146  1  0  0.055507  0  0.96556  0  0  0.065901  0  1.038143  0  0  0.068144  0  1.036467  0  0  0.108494  0.064318  0  1.039205  0
H  H13  1  0.64926082  0.41935215  0.02776590  1  0  0.055616  0  0.964844  0  0  0.066429  0  1.037185  0  0  0.068613  0  1.03557  0  0  0.108827  0.064857  0  1.038216  0
H  H14  1  0.77005219  0.41961691  0.52788825  1  0  0.055493  0  0.965599  0  0  0.065911  0  1.038166  0  0  0.068153  0  1.036487  0  0  0.108499  0.064326  0  1.039229  0
H  H15  1  0.35074032  0.58064766  0.97223410  1  0  0.055634  0  0.964842  0  0  0.066451  0  1.03717  0  0  0.068631  0  1.035567  0  0  0.108833  0.06488  0  1.038199  0
H  H16  1  0.92841488  0.62111388  0.40696772  1  0  0.098594  0  0.92055  0  0  0.106889  0  0.982765  0  0  0.109684  0  0.981692  0  0  0.117397  0.104776  0  0.983793  0
H  H17  1  0.30716511  0.37898203  0.09313489  1  0  0.098309  0  0.921161  0  0  0.105884  0  0.984233  0  0  0.108719  0  0.983096  0  0  0.117213  0.103779  0  0.985243  0
H  H18  1  0.07158297  0.37888593  0.59303029  1  0  0.098597  0  0.92059  0  0  0.106884  0  0.98281  0  0  0.109694  0  0.981719  0  0  0.117395  0.104761  0  0.983859  0
H  H19  1  0.69283493  0.62101778  0.90686510  1  0  0.098299  0  0.921166  0  0  0.105876  0  0.984235  0  0  0.108709  0  0.983101  0  0  0.117211  0.103772  0  0.985241  0
H  H20  1  0.12288794  0.67033419  0.67660088  1  0  0.101268  0  0.956094  0  0  0.109024  0  1.022368  0  0  0.11245  0  1.020403  0  0  0.117893  0.106601  0  1.023872  0
H  H21  1  0.45232519  0.32964501  0.82352318  1  0  0.101102  0  0.955819  0  0  0.108285  0  1.022575  0  0  0.111758  0  1.020565  0  0  0.11789  0.105831  0  1.024114  0
H  H22  1  0.87711101  0.32966562  0.32339911  1  0  0.101254  0  0.956091  0  0  0.109029  0  1.022358  0  0  0.112456  0  1.020392  0  0  0.117894  0.106596  0  1.023873  0
H  H23  1  0.54767657  0.67035604  0.17647710  1  0  0.101102  0  0.955845  0  0  0.108309  0  1.022576  0  0  0.111783  0  1.020564  0  0  0.117901  0.105856  0  1.024113  0
C  C24  1  0.18167451  0.59026864  0.26654153  1  0  0.681582  0  3.857346  0  0  0.633055  0  4.161416  0  0  0.665804  0  4.153921  0  0  0.222249  0.610791  0  4.165694  0
C  C25  1  0.59146539  0.40969645  0.23342031  1  0  0.682147  0  3.855668  0  0  0.633842  0  4.159556  0  0  0.666571  0  4.15205  0  0  0.222428  0.611584  0  4.163832  0
C  C26  1  0.81832444  0.40973117  0.73345846  1  0  0.681469  0  3.857346  0  0  0.632953  0  4.161431  0  0  0.6657  0  4.153935  0  0  0.22221  0.6107  0  4.165693  0
C  C27  1  0.40853465  0.59030336  0.76658067  1  0  0.682187  0  3.855597  0  0  0.633864  0  4.159511  0  0  0.666595  0  4.152005  0  0  0.222431  0.611603  0  4.163792  0
C  C28  1  0.16843863  0.84072514  0.48335542  1  0  0.675069  0  3.826303  0  0  0.626352  0  4.125289  0  0  0.658716  0  4.11904  0  0  0.221674  0.604005  0  4.129374  0
C  C29  1  0.32741289  0.15928610  0.01662814  1  0  0.672925  0  3.829784  0  0  0.625301  0  4.126778  0  0  0.657648  0  4.120505  0  0  0.221149  0.602947  0  4.130887  0
C  C30  1  0.83156141  0.15927467  0.51664457  1  0  0.67508  0  3.826246  0  0  0.626365  0  4.125229  0  0  0.658729  0  4.118979  0  0  0.221681  0.604019  0  4.129309  0
C  C31  1  0.67258667  0.84071495  0.98337312  1  0  0.672931  0  3.829767  0  0  0.625301  0  4.126768  0  0  0.657646  0  4.120497  0  0  0.221138  0.602955  0  4.130872  0
C  C32  1  0.92668498  0.73658191  0.68401026  1  0  0.707969  0  3.738544  0  0  0.661916  0  4.034045  0  0  0.694586  0  4.024818  0  0  0.253779  0.640126  0  4.038861  0
C  C33  1  0.18991334  0.26349521  0.81603225  1  0  0.706737  0  3.740427  0  0  0.661219  0  4.034722  0  0  0.694065  0  4.025309  0  0  0.253817  0.639334  0  4.039635  0
C  C34  1  0.07331334  0.26341666  0.31598846  1  0  0.708086  0  3.738475  0  0  0.66201  0  4.034011  0  0  0.694682  0  4.024781  0  0  0.253769  0.640224  0  4.038825  0
C  C35  1  0.81008670  0.73650460  0.18396775  1  0  0.70678  0  3.740354  0  0  0.661301  0  4.034607  0  0  0.694145  0  4.025193  0  0  0.253839  0.639405  0  4.039533  0
C  C36  1  0.12064160  0.54910668  0.40131305  1  0  -0.123104  0  3.602141  0  0  -0.133487  0  3.835955  0  0  -0.137717  0  3.848826  0  0  -0.069781  -0.130215  0  3.826519  0
C  C37  1  0.57142832  0.45080233  0.09865173  1  0  -0.122967  0  3.601291  0  0  -0.133942  0  3.834376  0  0  -0.138156  0  3.847324  0  0  -0.069567  -0.130653  0  3.824917  0
C  C38  1  0.87935735  0.45089313  0.59868595  1  0  -0.123026  0  3.602124  0  0  -0.133444  0  3.835929  0  0  -0.137669  0  3.848801  0  0  -0.069781  -0.130169  0  3.826488  0
C  C39  1  0.42857344  0.54919872  0.90134855  1  0  -0.123023  0  3.601346  0  0  -0.133998  0  3.834418  0  0  -0.138217  0  3.847366  0  0  -0.069579  -0.130711  0  3.824963  0
C  C40  1  0.04563582  0.65860357  0.47035061  1  0  -0.131846  0  3.589423  0  0  -0.140334  0  3.824431  0  0  -0.14463  0  3.836287  0  0  -0.072535  -0.137755  0  3.816621  0
C  C41  1  0.38682775  0.34143939  0.02971231  1  0  -0.131326  0  3.59017  0  0  -0.139404  0  3.823599  0  0  -0.143622  0  3.835284  0  0  -0.072777  -0.136848  0  3.815809  0
C  C42  1  0.95436423  0.34139624  0.52964939  1  0  -0.13187  0  3.58949  0  0  -0.140346  0  3.824508  0  0  -0.144647  0  3.836359  0  0  -0.072535  -0.137766  0  3.816688  0
C  C43  1  0.61317230  0.65856042  0.97028768  1  0  -0.131319  0  3.590206  0  0  -0.139388  0  3.823639  0  0  -0.143603  0  3.835324  0  0  -0.072778  -0.136836  0  3.815849  0
C  C44  1  0.00574457  0.63463808  0.61414749  1  0  -0.150351  0  3.611012  0  0  -0.164825  0  3.847286  0  0  -0.169443  0  3.858738  0  0  -0.074868  -0.161541  0  3.838955  0
C  C45  1  0.37095247  0.36542958  0.88591491  1  0  -0.14957  0  3.610809  0  0  -0.163527  0  3.846102  0  0  -0.16826  0  3.857593  0  0  -0.075256  -0.160202  0  3.837817  0
C  C46  1  0.99425438  0.36536173  0.38585250  1  0  -0.150325  0  3.610949  0  0  -0.164859  0  3.847295  0  0  -0.169478  0  3.85875  0  0  -0.074875  -0.161568  0  3.838967  0
C  C47  1  0.62904757  0.63457022  0.11408607  1  0  -0.149604  0  3.610836  0  0  -0.163617  0  3.846177  0  0  -0.168354  0  3.857671  0  0  -0.075265  -0.160293  0  3.837893  0
O  O48  1  0.07485278  0.53230914  0.16028451  1  0  -0.712897  0  1.958146  0  0  -0.656992  0  2.213763  0  0  -0.683391  0  2.205429  0  0  -0.368821  -0.638391  0  2.218978  0
O  O49  1  0.54286204  0.46778111  0.33978055  1  0  -0.713121  0  1.95761  0  0  -0.657221  0  2.212587  0  0  -0.683691  0  2.20441  0  0  -0.36862  -0.638592  0  2.217747  0
O  O50  1  0.92514898  0.46769191  0.83971676  1  0  -0.71287  0  1.958131  0  0  -0.656947  0  2.213701  0  0  -0.683362  0  2.205394  0  0  -0.368795  -0.638352  0  2.218911  0
O  O51  1  0.45713738  0.53221746  0.66021916  1  0  -0.71313  0  1.957552  0  0  -0.657227  0  2.212542  0  0  -0.683695  0  2.204365  0  0  -0.36862  -0.638596  0  2.217705  0
O  O52  1  0.33902259  0.68908230  0.27196546  1  0  -0.717367  0  1.974241  0  0  -0.656958  0  2.215289  0  0  -0.682068  0  2.205141  0  0  -0.349773  -0.63923  0  2.222301  0
O  O53  1  0.64989732  0.31084169  0.22791938  1  0  -0.717696  0  1.973454  0  0  -0.657457  0  2.214667  0  0  -0.682542  0  2.204522  0  0  -0.350007  -0.639738  0  2.221671  0
O  O54  1  0.66097808  0.31091875  0.72803481  1  0  -0.717332  0  1.974293  0  0  -0.656927  0  2.215349  0  0  -0.682037  0  2.205205  0  0  -0.349774  -0.639209  0  2.222361  0
O  O55  1  0.35010273  0.68915813  0.77207963  1  0  -0.717698  0  1.973417  0  0  -0.657449  0  2.214629  0  0  -0.68253  0  2.204482  0  0  -0.350004  -0.639727  0  2.221633  0
O  O56  1  0.31628635  0.90555860  0.54346638  1  0  -0.683463  0  1.942491  0  0  -0.627908  0  2.181227  0  0  -0.653019  0  2.173952  0  0  -0.340825  -0.610526  0  2.18671  0
O  O57  1  0.41039643  0.09452187  0.95641827  1  0  -0.682028  0  1.942474  0  0  -0.627112  0  2.18055  0  0  -0.652284  0  2.173418  0  0  -0.340254  -0.60972  0  2.186015  0
O  O58  1  0.68371260  0.09444121  0.45653461  1  0  -0.683466  0  1.94248  0  0  -0.627911  0  2.18122  0  0  -0.653022  0  2.173944  0  0  -0.340831  -0.610532  0  2.186706  0
O  O59  1  0.58960470  0.90547793  0.04358271  1  0  -0.682058  0  1.942526  0  0  -0.627121  0  2.180569  0  0  -0.652305  0  2.17346  0  0  -0.340253  -0.609736  0  2.186038  0
O  O60  1  0.11722978  0.92387143  0.43296156  1  0  -0.634438  0  2.052939  0  0  -0.571706  0  2.288411  0  0  -0.597854  0  2.278522  0  0  -0.332084  -0.55359  0  2.2945  0
O  O61  1  0.19311431  0.07610846  0.06707495  1  0  -0.633579  0  2.055992  0  0  -0.570681  0  2.289742  0  0  -0.596852  0  2.279901  0  0  -0.331453  -0.552593  0  2.295792  0
O  O62  1  0.88277136  0.07612838  0.56703843  1  0  -0.634448  0  2.052871  0  0  -0.571725  0  2.288342  0  0  -0.597874  0  2.278459  0  0  -0.332094  -0.553609  0  2.294433  0
O  O63  1  0.80688635  0.92389259  0.93292730  1  0  -0.633571  0  2.055996  0  0  -0.570675  0  2.289746  0  0  -0.596844  0  2.279893  0  0  -0.331435  -0.552587  0  2.29579  0
O  O64  1  0.97720986  0.80614361  0.81697247  1  0  -0.609302  0  2.111291  0  0  -0.551072  0  2.347939  0  0  -0.576755  0  2.333883  0  0  -0.333542  -0.532479  0  2.355904  0
O  O65  1  0.17083661  0.19361454  0.68312698  1  0  -0.608897  0  2.110715  0  0  -0.550787  0  2.347131  0  0  -0.576487  0  2.333181  0  0  -0.333167  -0.532199  0  2.355257  0
O  O66  1  0.02278861  0.19385744  0.18302583  1  0  -0.609336  0  2.111282  0  0  -0.551066  0  2.347904  0  0  -0.57675  0  2.333881  0  0  -0.333521  -0.532478  0  2.355888  0
O  O67  1  0.82916406  0.80638651  0.31687329  1  0  -0.608926  0  2.110713  0  0  -0.550837  0  2.34713  0  0  -0.576536  0  2.333164  0  0  -0.333207  -0.532243  0  2.355246  0
O  O68  1  0.81759075  0.74542176  0.61975493  1  0  -0.611597  0  1.987722  0  0  -0.561212  0  2.231358  0  0  -0.583351  0  2.222185  0  0  -0.339677  -0.54553  0  2.236386  0
O  O69  1  0.07199227  0.25484015  0.88021299  1  0  -0.61155  0  1.989173  0  0  -0.5612  0  2.232463  0  0  -0.583408  0  2.223201  0  0  -0.339938  -0.545469  0  2.237531  0
O  O70  1  0.18240587  0.25457558  0.38024251  1  0  -0.611712  0  1.987807  0  0  -0.561289  0  2.231432  0  0  -0.583431  0  2.222259  0  0  -0.339675  -0.545602  0  2.236462  0
O  O71  1  0.92800778  0.74515966  0.11978799  1  0  -0.611555  0  1.989158  0  0  -0.561213  0  2.232432  0  0  -0.583419  0  2.223168  0  0  -0.339934  -0.545478  0  2.237501  0
O  O72  1  0.40382607  0.00005481  0.25000433  1  0  -0.886888  0  1.875846  0  0  -0.833641  0  2.068577  0  0  -0.854797  0  2.04082  0  0  -0.631232  -0.818908  0  2.089682  0
O  O73  1  0.59617288  0.99994500  0.74999567  1  0  -0.886903  0  1.875841  0  0  -0.833669  0  2.068563  0  0  -0.854823  0  2.040808  0  0  -0.631258  -0.818935  0  2.089669  0
