# generated using pymatgen
data_Ag2H14C13S2(N2O3)2
_symmetry_space_group_name_H-M   'P 1'
_cell_length_a   5.09106002
_cell_length_b   12.67489250
_cell_length_c   14.09623248
_cell_angle_alpha   82.93729078
_cell_angle_beta   79.63240114
_cell_angle_gamma   78.42118331
_symmetry_Int_Tables_number   1
_chemical_formula_structural   Ag2H14C13S2(N2O3)2
_chemical_formula_sum   'Ag4 H28 C26 S4 N8 O12'
_cell_volume   872.98514445
_cell_formula_units_Z   2
loop_
 _symmetry_equiv_pos_site_id
 _symmetry_equiv_pos_as_xyz
  1  'x, y, z'
loop_
 _atom_site_type_symbol
 _atom_site_label
 _atom_site_symmetry_multiplicity
 _atom_site_fract_x
 _atom_site_fract_y
 _atom_site_fract_z
 _atom_site_occupancy
 _atom_site_hle17_bader_spin_density
 _atom_site_hle17_ddec_charge
 _atom_site_hle17_ddec_spin_density
 _atom_site_hle17_ddec_sum_bond_order
 _atom_site_hle17_magmom
 _atom_site_hse06_10hf_bader_spin_density
 _atom_site_hse06_10hf_ddec_charge
 _atom_site_hse06_10hf_ddec_spin_density
 _atom_site_hse06_10hf_ddec_sum_bond_order
 _atom_site_hse06_10hf_magmom
 _atom_site_hse06_bader_spin_density
 _atom_site_hse06_ddec_charge
 _atom_site_hse06_ddec_spin_density
 _atom_site_hse06_ddec_sum_bond_order
 _atom_site_hse06_magmom
 _atom_site_pbe_bader_spin_density
 _atom_site_pbe_cm5_charge
 _atom_site_pbe_ddec_charge
 _atom_site_pbe_ddec_spin_density
 _atom_site_pbe_ddec_sum_bond_order
 _atom_site_pbe_magmom
Ag  Ag0  1  0.14684795  0.88622475  0.00026515  1  0  0.448715  0  1.608111  0  0  0.320276  0  2.094707  0  0  0.349289  0  2.040056  0  0  0.408171  0.300136  0  2.132529  0
Ag  Ag1  1  0.96642021  0.38634469  0.50011866  1  0  0.449117  0  1.608319  0  0  0.320813  0  2.095006  0  0  0.349815  0  2.040264  0  0  0.408882  0.300726  0  2.132745  0
Ag  Ag2  1  0.85315606  0.11377615  0.99973370  1  0  0.448703  0  1.608058  0  0  0.32024  0  2.094667  0  0  0.349256  0  2.040014  0  0  0.408155  0.300102  0  2.132492  0
Ag  Ag3  1  0.03358238  0.61365621  0.49988162  1  0  0.449145  0  1.608302  0  0  0.320842  0  2.094891  0  0  0.349829  0  2.040272  0  0  0.408896  0.300745  0  2.132738  0
H  H4  1  0.58323943  0.80556126  0.83014363  1  0  0.078951  0  0.962153  0  0  0.084086  0  1.034042  0  0  0.086323  0  1.032513  0  0  0.109512  0.082358  0  1.035282  0
H  H5  1  0.78138354  0.30555936  0.33010520  1  0  0.079534  0  0.960494  0  0  0.083688  0  1.033557  0  0  0.086023  0  1.03191  0  0  0.109376  0.08191  0  1.034853  0
H  H6  1  0.41676560  0.19443639  0.16985396  1  0  0.078944  0  0.962229  0  0  0.084078  0  1.034123  0  0  0.086315  0  1.032594  0  0  0.109534  0.082353  0  1.035361  0
H  H7  1  0.21861868  0.69444235  0.66989500  1  0  0.079592  0  0.960484  0  0  0.083722  0  1.033548  0  0  0.08606  0  1.031926  0  0  0.109392  0.081941  0  1.034875  0
H  H8  1  0.69357836  0.82452224  0.64774089  1  0  0.113894  0  0.946685  0  0  0.123081  0  1.007504  0  0  0.126056  0  1.007259  0  0  0.10682  0.120859  0  1.007966  0
H  H9  1  0.83427555  0.32437560  0.14769246  1  0  0.114454  0  0.945307  0  0  0.123391  0  1.006514  0  0  0.126433  0  1.006124  0  0  0.107284  0.121184  0  1.006973  0
H  H10  1  0.30641926  0.17547784  0.35225681  1  0  0.113904  0  0.946661  0  0  0.123084  0  1.007505  0  0  0.126065  0  1.007237  0  0  0.106824  0.120867  0  1.007943  0
H  H11  1  0.16572183  0.67562854  0.85230728  1  0  0.114455  0  0.945316  0  0  0.123379  0  1.006532  0  0  0.12642  0  1.006142  0  0  0.107257  0.121172  0  1.00699  0
H  H12  1  0.36218809  0.95227003  0.55550316  1  0  0.102482  0  0.95028  0  0  0.111994  0  1.010666  0  0  0.114617  0  1.00821  0  0  0.112542  0.109961  0  1.012581  0
H  H13  1  0.12972323  0.45223020  0.05550023  1  0  0.10285  0  0.949862  0  0  0.112275  0  1.010338  0  0  0.114893  0  1.007851  0  0  0.113127  0.1103  0  1.012203  0
H  H14  1  0.63780411  0.04773007  0.44449796  1  0  0.102494  0  0.950291  0  0  0.111992  0  1.010692  0  0  0.114625  0  1.008214  0  0  0.112549  0.10996  0  1.012595  0
H  H15  1  0.87027978  0.54777233  0.94450075  1  0  0.102851  0  0.949817  0  0  0.112268  0  1.010301  0  0  0.114882  0  1.007814  0  0  0.113132  0.110296  0  1.012169  0
H  H16  1  0.94621889  0.05482233  0.64454796  1  0  0.124354  0  0.96101  0  0  0.133035  0  1.021993  0  0  0.136811  0  1.020215  0  0  0.11084  0.130285  0  1.023389  0
H  H17  1  0.35363461  0.55505448  0.14456169  1  0  0.124661  0  0.961755  0  0  0.133867  0  1.021975  0  0  0.137592  0  1.020243  0  0  0.111125  0.131119  0  1.023396  0
H  H18  1  0.05377855  0.94517858  0.35545347  1  0  0.124328  0  0.961045  0  0  0.133028  0  1.021972  0  0  0.136801  0  1.02023  0  0  0.110826  0.130261  0  1.023423  0
H  H19  1  0.64636985  0.44494642  0.85543872  1  0  0.124672  0  0.961784  0  0  0.13388  0  1.021997  0  0  0.137604  0  1.020266  0  0  0.111119  0.131138  0  1.023412  0
H  H20  1  0.55136360  0.11749613  0.71808211  1  0  0.105799  0  0.953105  0  0  0.118018  0  1.018373  0  0  0.119212  0  1.019106  0  0  0.102113  0.117109  0  1.01799  0
H  H21  1  0.61253952  0.61771104  0.21813250  1  0  0.105815  0  0.952775  0  0  0.118156  0  1.017912  0  0  0.11923  0  1.018805  0  0  0.102181  0.11729  0  1.017477  0
H  H22  1  0.44863696  0.88250314  0.28191508  1  0  0.105808  0  0.953116  0  0  0.118032  0  1.018338  0  0  0.119219  0  1.019114  0  0  0.102127  0.117118  0  1.017993  0
H  H23  1  0.38746157  0.38228906  0.78186772  1  0  0.105885  0  0.952773  0  0  0.118192  0  1.017941  0  0  0.119267  0  1.018831  0  0  0.102195  0.117327  0  1.017503  0
H  H24  1  0.38794669  0.17631076  0.82487899  1  0  0.104599  0  0.934846  0  0  0.122054  0  0.994125  0  0  0.122826  0  0.994666  0  0  0.10568  0.121362  0  0.993988  0
H  H25  1  0.61081685  0.67652998  0.32492901  1  0  0.104517  0  0.936054  0  0  0.121494  0  0.995706  0  0  0.122305  0  0.996143  0  0  0.10517  0.120754  0  0.995608  0
H  H26  1  0.61205320  0.82368689  0.17511976  1  0  0.104576  0  0.934857  0  0  0.122019  0  0.994144  0  0  0.122795  0  0.994689  0  0  0.105663  0.121327  0  0.994009  0
H  H27  1  0.38918384  0.32347254  0.67507028  1  0  0.104525  0  0.936074  0  0  0.121509  0  0.995688  0  0  0.122318  0  0.996153  0  0  0.105162  0.120764  0  0.995624  0
H  H28  1  0.89694907  0.23111392  0.68958971  1  0  0.080757  0  0.956297  0  0  0.093346  0  1.02844  0  0  0.094721  0  1.028149  0  0  0.089172  0.09225  0  1.028757  0
H  H29  1  0.18213193  0.73140175  0.18955082  1  0  0.079857  0  0.957494  0  0  0.092862  0  1.029191  0  0  0.094172  0  1.028989  0  0  0.088852  0.091795  0  1.029514  0
H  H30  1  0.10305157  0.76888617  0.31040896  1  0  0.080761  0  0.956278  0  0  0.093352  0  1.028405  0  0  0.094725  0  1.028147  0  0  0.089181  0.092252  0  1.028758  0
H  H31  1  0.81786688  0.26859672  0.81044857  1  0  0.079885  0  0.957522  0  0  0.092818  0  1.029287  0  0  0.094127  0  1.029085  0  0  0.088843  0.091755  0  1.029603  0
C  C32  1  0.44691440  0.85849243  0.78578344  1  0  0.125309  0  3.720248  0  0  0.095199  0  3.973404  0  0  0.10285  0  3.991529  0  0  0.038793  0.090285  0  3.961053  0
C  C33  1  0.90873246  0.35860289  0.28575464  1  0  0.125105  0  3.720356  0  0  0.095483  0  3.973448  0  0  0.103081  0  3.991523  0  0  0.038618  0.090583  0  3.961142  0
C  C34  1  0.55308287  0.14150684  0.21421503  1  0  0.125274  0  3.72024  0  0  0.095158  0  3.973405  0  0  0.102808  0  3.99153  0  0  0.038785  0.090242  0  3.961056  0
C  C35  1  0.09126939  0.64139963  0.71424550  1  0  0.125093  0  3.720313  0  0  0.095483  0  3.973347  0  0  0.103074  0  3.991443  0  0  0.038628  0.090579  0  3.961068  0
C  C36  1  0.50667110  0.86959115  0.68518798  1  0  -0.131759  0  3.718175  0  0  -0.145812  0  3.972301  0  0  -0.153239  0  3.993536  0  0  -0.091688  -0.141152  0  3.958258  0
C  C37  1  0.93843812  0.36957588  0.18516394  1  0  -0.13244  0  3.719564  0  0  -0.146292  0  3.973537  0  0  -0.15374  0  3.994719  0  0  -0.092098  -0.141644  0  3.959524  0
C  C38  1  0.49332763  0.13040651  0.31480993  1  0  -0.131651  0  3.718166  0  0  -0.145705  0  3.972305  0  0  -0.153132  0  3.993519  0  0  -0.091635  -0.141041  0  3.95823  0
C  C39  1  0.06155566  0.63042585  0.81483871  1  0  -0.132523  0  3.719711  0  0  -0.146354  0  3.973641  0  0  -0.153801  0  3.994822  0  0  -0.09208  -0.141706  0  3.959626  0
C  C40  1  0.32309129  0.94087240  0.63415087  1  0  0.028307  0  3.696242  0  0  0.006864  0  3.948207  0  0  0.012568  0  3.964226  0  0  -0.06214  0.00323  0  3.937584  0
C  C41  1  0.10146804  0.44092902  0.13415611  1  0  0.028501  0  3.695944  0  0  0.007054  0  3.948045  0  0  0.012773  0  3.963979  0  0  -0.06267  0.003369  0  3.937444  0
C  C42  1  0.67690012  0.05912689  0.36584948  1  0  0.028232  0  3.696405  0  0  0.006802  0  3.948385  0  0  0.012504  0  3.964388  0  0  -0.062162  0.003175  0  3.937738  0
C  C43  1  0.89852716  0.55907270  0.86584513  1  0  0.028534  0  3.696068  0  0  0.007109  0  3.948134  0  0  0.012832  0  3.964062  0  0  -0.062685  0.003416  0  3.937538  0
C  C44  1  0.08773617  0.99829796  0.68424633  1  0  -0.145085  0  3.689273  0  0  -0.158785  0  3.92957  0  0  -0.167099  0  3.950723  0  0  -0.083774  -0.153476  0  3.915622  0
C  C45  1  0.22910677  0.49851261  0.18426522  1  0  -0.1458  0  3.68809  0  0  -0.159746  0  3.928324  0  0  -0.167985  0  3.94943  0  0  -0.084032  -0.154432  0  3.91442  0
C  C46  1  0.91226353  0.00170054  0.31575616  1  0  -0.145087  0  3.689269  0  0  -0.158827  0  3.929512  0  0  -0.167141  0  3.95069  0  0  -0.08378  -0.153512  0  3.915597  0
C  C47  1  0.77089324  0.50148830  0.81573564  1  0  -0.14583  0  3.688168  0  0  -0.159784  0  3.928406  0  0  -0.168025  0  3.949514  0  0  -0.084028  -0.154475  0  3.914503  0
C  C48  1  0.04491722  0.98279567  0.78534851  1  0  0.186098  0  3.76068  0  0  0.188271  0  4.014413  0  0  0.197376  0  4.03662  0  0  0.114586  0.182028  0  3.999384  0
C  C49  1  0.18646798  0.48306288  0.28536036  1  0  0.185594  0  3.762475  0  0  0.187186  0  4.016802  0  0  0.196287  0  4.039018  0  0  0.113699  0.180955  0  4.001745  0
C  C50  1  0.95508382  0.01720199  0.21465108  1  0  0.186124  0  3.760646  0  0  0.18836  0  4.014286  0  0  0.197465  0  4.036494  0  0  0.114603  0.182116  0  3.999257  0
C  C51  1  0.81353424  0.51693884  0.71463985  1  0  0.185551  0  3.762393  0  0  0.187111  0  4.016759  0  0  0.19621  0  4.038977  0  0  0.113659  0.180881  0  4.001699  0
C  C52  1  0.58830705  0.15274494  0.78089029  1  0  -0.135046  0  3.590432  0  0  -0.16674  0  3.843023  0  0  -0.167112  0  3.856485  0  0  -0.147577  -0.166506  0  3.833916  0
C  C53  1  0.47778317  0.65301031  0.28092123  1  0  -0.134655  0  3.59083  0  0  -0.165962  0  3.842956  0  0  -0.166233  0  3.856338  0  0  -0.146923  -0.165671  0  3.833731  0
C  C54  1  0.41169444  0.84725274  0.21911084  1  0  -0.135049  0  3.590406  0  0  -0.166732  0  3.842986  0  0  -0.167124  0  3.856509  0  0  -0.147592  -0.16648  0  3.833852  0
C  C55  1  0.52221534  0.34698979  0.71907957  1  0  -0.134736  0  3.590901  0  0  -0.166037  0  3.843062  0  0  -0.16632  0  3.856433  0  0  -0.146951  -0.165755  0  3.833814  0
C  C56  1  0.73082221  0.24986260  0.74999596  1  0  -0.112808  0  3.682135  0  0  -0.156663  0  3.937712  0  0  -0.15911  0  3.954277  0  0  -0.176042  -0.154661  0  3.926191  0
C  C57  1  0.26917586  0.75013749  0.25000329  1  0  -0.112822  0  3.68203  0  0  -0.156749  0  3.937584  0  0  -0.159191  0  3.954174  0  0  -0.17609  -0.154747  0  3.92609  0
S  S58  1  0.74913826  0.04449359  0.85928406  1  0  0.039058  0  2.808053  0  0  0.060994  0  3.234974  0  0  0.054395  0  3.225925  0  0  0.023162  0.065533  0  3.241271  0
S  S59  1  0.34689250  0.54475714  0.35930737  1  0  0.03879  0  2.806938  0  0  0.060641  0  3.233829  0  0  0.054011  0  3.224801  0  0  0.022775  0.065151  0  3.240067  0
S  S60  1  0.25086018  0.95550569  0.14071525  1  0  0.039078  0  2.808043  0  0  0.060982  0  3.234946  0  0  0.054389  0  3.225903  0  0  0.023183  0.065517  0  3.241241  0
S  S61  1  0.65311196  0.45524377  0.64069304  1  0  0.038822  0  2.806905  0  0  0.060698  0  3.233798  0  0  0.054071  0  3.224764  0  0  0.022793  0.065212  0  3.240024  0
N  N62  1  0.22057493  0.91398328  0.83522203  1  0  -0.341445  0  3.304424  0  0  -0.266655  0  3.576023  0  0  -0.286231  0  3.592231  0  0  -0.343787  -0.25341  0  3.564811  0
N  N63  1  0.03000363  0.41419709  0.33520681  1  0  -0.34129  0  3.308659  0  0  -0.265564  0  3.579199  0  0  -0.285152  0  3.595483  0  0  -0.342967  -0.25231  0  3.567925  0
N  N64  1  0.77942951  0.08601358  0.16477859  1  0  -0.341434  0  3.304356  0  0  -0.266658  0  3.57593  0  0  -0.28623  0  3.59213  0  0  -0.343824  -0.253416  0  3.564726  0
N  N65  1  0.96999859  0.58580462  0.66479340  1  0  -0.341238  0  3.30858  0  0  -0.265489  0  3.579094  0  0  -0.285076  0  3.595403  0  0  -0.342939  -0.252237  0  3.567843  0
N  N66  1  0.69208883  0.73210733  0.02437924  1  0  0.676062  0  4.151507  0  0  0.717578  0  4.426451  0  0  0.746249  0  4.433729  0  0  0.083394  0.69827  0  4.420778  0
N  N67  1  0.55204215  0.23200622  0.52430133  1  0  0.675825  0  4.151786  0  0  0.704453  0  4.444986  0  0  0.732813  0  4.452935  0  0  0.083497  0.698016  0  4.421137  0
N  N68  1  0.30791003  0.26789357  0.97562078  1  0  0.67633  0  4.151117  0  0  0.717673  0  4.426248  0  0  0.746345  0  4.433528  0  0  0.083422  0.698364  0  4.420577  0
N  N69  1  0.44796189  0.76799306  0.47569837  1  0  0.675914  0  4.151637  0  0  0.717212  0  4.426962  0  0  0.732702  0  4.453034  0  0  0.083449  0.697903  0  4.421241  0
O  O70  1  0.47364338  0.70102865  0.01825998  1  0  -0.456722  0  1.773077  0  0  -0.438953  0  1.997783  0  0  -0.455842  0  1.989513  0  0  -0.194014  -0.426866  0  2.003035  0
O  O71  1  0.80775461  0.20107786  0.51793444  1  0  -0.457103  0  1.772988  0  0  -0.435535  0  2.00329  0  0  -0.452339  0  1.995212  0  0  -0.194655  -0.427732  0  2.003389  0
O  O72  1  0.52635332  0.29897388  0.98174131  1  0  -0.456814  0  1.772969  0  0  -0.438999  0  1.997733  0  0  -0.455892  0  1.98947  0  0  -0.194028  -0.426909  0  2.002984  0
O  O73  1  0.19224756  0.79892143  0.48206513  1  0  -0.457127  0  1.77299  0  0  -0.439786  0  1.998217  0  0  -0.452294  0  1.995298  0  0  -0.194617  -0.427673  0  2.003444  0
O  O74  1  0.72287854  0.82752787  0.98728177  1  0  -0.502786  0  1.892497  0  0  -0.482433  0  2.161649  0  0  -0.502683  0  2.151417  0  0  -0.2151  -0.46803  0  2.168242  0
O  O75  1  0.46222362  0.32736539  0.48725782  1  0  -0.502849  0  1.893055  0  0  -0.478202  0  2.167171  0  0  -0.498355  0  2.157167  0  0  -0.214971  -0.468087  0  2.168874  0
O  O76  1  0.27712513  0.17247222  0.01271787  1  0  -0.502907  0  1.892341  0  0  -0.482469  0  2.161522  0  0  -0.502721  0  2.15129  0  0  -0.215119  -0.468071  0  2.168135  0
O  O77  1  0.53777900  0.67263390  0.51274331  1  0  -0.502923  0  1.893  0  0  -0.482478  0  2.162253  0  0  -0.498369  0  2.157192  0  0  -0.214973  -0.468102  0  2.168896  0
O  O78  1  0.87192292  0.67235712  0.06669093  1  0  -0.444611  0  1.77009  0  0  -0.436784  0  1.984313  0  0  -0.451251  0  1.978885  0  0  -0.178417  -0.426632  0  1.987959  0
O  O79  1  0.39027701  0.17212057  0.56679985  1  0  -0.444637  0  1.769045  0  0  -0.431963  0  1.988111  0  0  -0.446289  0  1.982831  0  0  -0.1785  -0.426158  0  1.986489  0
O  O80  1  0.12807667  0.32764217  0.93330922  1  0  -0.444681  0  1.770004  0  0  -0.436791  0  1.98427  0  0  -0.45125  0  1.978827  0  0  -0.178404  -0.426633  0  1.987914  0
O  O81  1  0.60972739  0.82787790  0.43319993  1  0  -0.44463  0  1.768946  0  0  -0.436234  0  1.982816  0  0  -0.446205  0  1.982804  0  0  -0.178485  -0.426078  0  1.986455  0
