# generated using pymatgen
data_CaHgH9C9S2N3O7
_symmetry_space_group_name_H-M   'P 1'
_cell_length_a   6.84115967
_cell_length_b   15.25635481
_cell_length_c   17.06650000
_cell_angle_alpha   116.88227456
_cell_angle_beta   90.00000000
_cell_angle_gamma   90.00000000
_symmetry_Int_Tables_number   1
_chemical_formula_structural   CaHgH9C9S2N3O7
_chemical_formula_sum   'Ca4 Hg4 H36 C36 S8 N12 O28'
_cell_volume   1588.76393870
_cell_formula_units_Z   4
loop_
 _symmetry_equiv_pos_site_id
 _symmetry_equiv_pos_as_xyz
  1  'x, y, z'
loop_
 _atom_site_type_symbol
 _atom_site_label
 _atom_site_symmetry_multiplicity
 _atom_site_fract_x
 _atom_site_fract_y
 _atom_site_fract_z
 _atom_site_occupancy
 _atom_site_hle17_bader_spin_density
 _atom_site_hle17_ddec_charge
 _atom_site_hle17_ddec_spin_density
 _atom_site_hle17_ddec_sum_bond_order
 _atom_site_hle17_magmom
 _atom_site_hse06_10hf_bader_spin_density
 _atom_site_hse06_10hf_ddec_charge
 _atom_site_hse06_10hf_ddec_spin_density
 _atom_site_hse06_10hf_ddec_sum_bond_order
 _atom_site_hse06_10hf_magmom
 _atom_site_hse06_bader_spin_density
 _atom_site_hse06_ddec_charge
 _atom_site_hse06_ddec_spin_density
 _atom_site_hse06_ddec_sum_bond_order
 _atom_site_hse06_magmom
 _atom_site_pbe_bader_charge
 _atom_site_pbe_bader_spin_density
 _atom_site_pbe_cm5_charge
 _atom_site_pbe_ddec_charge
 _atom_site_pbe_ddec_spin_density
 _atom_site_pbe_ddec_sum_bond_order
 _atom_site_pbe_magmom
Ca  Ca0  1  0.30936275  0.18805803  0.43174581  1  0  1.573183  0  1.089768  0  0  1.439916  0  1.444042  0  0  1.482609  0  1.398799  0  1.646835  0  0.896649  1.407717  0  1.476323  0
Ca  Ca1  1  0.80936570  0.31194291  0.56825384  1  0  1.573254  0  1.089685  0  0  1.439927  0  1.444085  0  0  1.482617  0  1.39884  0  1.646847  0  0.89668  1.407728  0  1.476365  0
Ca  Ca2  1  0.69063876  0.81194459  0.56825555  1  0  1.573248  0  1.089655  0  0  1.439922  0  1.444035  0  0  1.482613  0  1.398792  0  1.646751  0  0.896665  1.407724  0  1.476316  0
Ca  Ca3  1  0.19063435  0.68805677  0.43174632  1  0  1.573212  0  1.089743  0  0  1.439908  0  1.444083  0  0  1.482601  0  1.39884  0  1.646782  0  0.896681  1.407712  0  1.476362  0
Hg  Hg4  1  0.45690061  0.27825981  0.13042910  1  0  0.690429  0  2.037052  0  0  0.549743  0  2.488678  0  0  0.594247  0  2.463729  0  0.769328  0  0.553045  0.518825  0  2.505778  0
Hg  Hg5  1  0.95690794  0.22174701  0.86957058  1  0  0.690467  0  2.037064  0  0  0.549789  0  2.488693  0  0  0.594291  0  2.463743  0  0.769159  0  0.553066  0.518873  0  2.505794  0
Hg  Hg6  1  0.54309652  0.72174355  0.86957196  1  0  0.690425  0  2.037134  0  0  0.549733  0  2.488753  0  0  0.594236  0  2.463804  0  0.769348  0  0.553044  0.518816  0  2.505853  0
Hg  Hg7  1  0.04309211  0.77825120  0.13042606  1  0  0.690446  0  2.037105  0  0  0.549777  0  2.488746  0  0  0.594279  0  2.463795  0  0.769203  0  0.553056  0.518861  0  2.505846  0
H  H8  1  0.36766281  0.35164466  0.37961026  1  0  0.43213  0  0.86326  0  0  0.399531  0  0.929784  0  0  0.41001  0  0.914479  0  0.643979  0  0.30207  0.392096  0  0.940619  0
H  H9  1  0.86766430  0.14836070  0.62039234  1  0  0.432274  0  0.863101  0  0  0.399679  0  0.929611  0  0  0.410158  0  0.914304  0  0.643914  0  0.302119  0.392244  0  0.940452  0
H  H10  1  0.63234016  0.64835944  0.62039344  1  0  0.432209  0  0.863165  0  0  0.39961  0  0.929688  0  0  0.41009  0  0.914379  0  0.643896  0  0.302114  0.392175  0  0.940527  0
H  H11  1  0.13234160  0.85164340  0.37961254  1  0  0.43207  0  0.863345  0  0  0.399479  0  0.929858  0  0  0.409958  0  0.914554  0  0.64399  0  0.302046  0.392045  0  0.940695  0
H  H12  1  0.33137803  0.40544870  0.48261182  1  0  0.438449  0  0.840549  0  0  0.409461  0  0.906134  0  0  0.419326  0  0.891631  0  0.633565  0  0.316368  0.402397  0  0.916532  0
H  H13  1  0.83137951  0.09455519  0.51738960  1  0  0.438385  0  0.840673  0  0  0.409416  0  0.906186  0  0  0.419281  0  0.891683  0  0.63356  0  0.316373  0.402356  0  0.916575  0
H  H14  1  0.66862348  0.59455466  0.51739100  1  0  0.438371  0  0.840712  0  0  0.409395  0  0.906227  0  0  0.41926  0  0.891723  0  0.633613  0  0.316373  0.402336  0  0.916614  0
H  H15  1  0.16862930  0.90544817  0.48261440  1  0  0.438492  0  0.84056  0  0  0.409509  0  0.906083  0  0  0.419374  0  0.89158  0  0.633489  0  0.316399  0.402446  0  0.916479  0
H  H16  1  0.36573039  0.96504084  0.28312404  1  0  0.432495  0  0.862661  0  0  0.39808  0  0.93201  0  0  0.408098  0  0.917359  0  0.646629  0  0.290949  0.390995  0  0.942348  0
H  H17  1  0.86572749  0.53495832  0.71687870  1  0  0.432451  0  0.862724  0  0  0.398008  0  0.932097  0  0  0.408023  0  0.917452  0  0.646652  0  0.290948  0.390924  0  0.942435  0
H  H18  1  0.63426966  0.03496032  0.71687907  1  0  0.432459  0  0.862708  0  0  0.398021  0  0.932074  0  0  0.408038  0  0.917426  0  0.646652  0  0.290914  0.390936  0  0.942412  0
H  H19  1  0.13426379  0.46503622  0.28312115  1  0  0.432398  0  0.862784  0  0  0.39796  0  0.932152  0  0  0.407976  0  0.917505  0  0.646583  0  0.290854  0.390874  0  0.942491  0
H  H20  1  0.38801170  0.98842978  0.38335981  1  0  0.420422  0  0.85127  0  0  0.394281  0  0.920452  0  0  0.404393  0  0.905419  0  0.607704  0  0.311168  0.38698  0  0.931314  0
H  H21  1  0.88801465  0.51157600  0.61664443  1  0  0.420425  0  0.851273  0  0  0.394287  0  0.920436  0  0  0.404397  0  0.905407  0  0.607705  0  0.311189  0.386986  0  0.931297  0
H  H22  1  0.61199127  0.01157726  0.61664274  1  0  0.420427  0  0.851244  0  0  0.39429  0  0.920424  0  0  0.404397  0  0.905399  0  0.607657  0  0.311196  0.386989  0  0.931285  0
H  H23  1  0.11199125  0.48842516  0.38335867  1  0  0.420418  0  0.851232  0  0  0.39428  0  0.920447  0  0  0.404392  0  0.905414  0  0.607694  0  0.311164  0.386977  0  0.93131  0
H  H24  1  0.30108492  0.08141338  0.55677752  1  0  0.425973  0  0.874061  0  0  0.392356  0  0.941726  0  0  0.403904  0  0.924699  0  0.653152  0  0.293704  0.384128  0  0.953847  0
H  H25  1  0.80107617  0.41858242  0.44321947  1  0  0.42597  0  0.874063  0  0  0.39232  0  0.941772  0  0  0.403868  0  0.924746  0  0.653203  0  0.293679  0.38409  0  0.953898  0
H  H26  1  0.69892098  0.91858484  0.44321971  1  0  0.426006  0  0.874023  0  0  0.392358  0  0.941729  0  0  0.403906  0  0.9247  0  0.653176  0  0.293706  0.384127  0  0.953855  0
H  H27  1  0.19892388  0.58141506  0.55677864  1  0  0.426037  0  0.873963  0  0  0.392388  0  0.941672  0  0  0.403935  0  0.924645  0  0.653222  0  0.293705  0.384159  0  0.953794  0
H  H28  1  0.51416721  0.12309709  0.55240090  1  0  0.422599  0  0.873096  0  0  0.394826  0  0.931855  0  0  0.405102  0  0.916651  0  0.630522  0  0.302569  0.38748  0  0.942731  0
H  H29  1  0.01416573  0.37690312  0.44759903  1  0  0.422617  0  0.873072  0  0  0.394849  0  0.931821  0  0  0.405127  0  0.916613  0  0.630526  0  0.302594  0.387503  0  0.942698  0
H  H30  1  0.48583868  0.87690407  0.44759868  1  0  0.422627  0  0.873064  0  0  0.394865  0  0.931804  0  0  0.405141  0  0.916599  0  0.630556  0  0.302581  0.387519  0  0.942681  0
H  H31  1  0.98583286  0.62309656  0.55239996  1  0  0.422617  0  0.873079  0  0  0.394841  0  0.931845  0  0  0.405118  0  0.916638  0  0.630533  0  0.302564  0.387495  0  0.942722  0
H  H32  1  0.75613935  0.69553048  0.25411329  1  0  0.115505  0  0.922704  0  0  0.126225  0  0.980855  0  0  0.129573  0  0.978407  0  0.116347  0  0.117613  0.123712  0  0.982745  0
H  H33  1  0.25613494  0.80447456  0.74589358  1  0  0.115534  0  0.922656  0  0  0.126226  0  0.980821  0  0  0.129589  0  0.978352  0  0.115976  0  0.117592  0.123713  0  0.982709  0
H  H34  1  0.24386655  0.30447068  0.74588923  1  0  0.115478  0  0.922713  0  0  0.126212  0  0.980844  0  0  0.129553  0  0.978405  0  0.1162  0  0.11759  0.123698  0  0.982734  0
H  H35  1  0.74386950  0.19552586  0.25410864  1  0  0.115549  0  0.92265  0  0  0.126248  0  0.980827  0  0  0.129604  0  0.978369  0  0.116008  0  0.117604  0.123734  0  0.982718  0
H  H36  1  0.68692447  0.58724411  0.09356301  1  0  0.090389  0  1.00226  0  0  0.093356  0  1.078344  0  0  0.096431  0  1.077677  0  0.112489  0  0.089184  0.091129  0  1.078965  0
H  H37  1  0.18691129  0.91276240  0.90644270  1  0  0.090452  0  1.002198  0  0  0.093396  0  1.078314  0  0  0.09649  0  1.077635  0  0.112021  0  0.089216  0.091168  0  1.078935  0
H  H38  1  0.31307996  0.41275705  0.90643951  1  0  0.090419  0  1.002239  0  0  0.093357  0  1.07835  0  0  0.096434  0  1.077679  0  0.112456  0  0.089183  0.091129  0  1.07897  0
H  H39  1  0.81308291  0.08724316  0.09355750  1  0  0.090416  0  1.002267  0  0  0.093353  0  1.078393  0  0  0.096468  0  1.077699  0  0.111947  0  0.089181  0.091126  0  1.079013  0
H  H40  1  0.55738357  0.41695614  0.04933855  1  0  0.065006  0  1.009326  0  0  0.068395  0  1.088218  0  0  0.070759  0  1.086443  0  0.127233  0  0.093171  0.066642  0  1.089567  0
H  H41  1  0.05737916  0.08305142  0.95066553  1  0  0.065014  0  1.009279  0  0  0.068412  0  1.088168  0  0  0.070775  0  1.086392  0  0.127118  0  0.093199  0.066659  0  1.089514  0
H  H42  1  0.44261794  0.58304502  0.95066338  1  0  0.065018  0  1.009313  0  0  0.068398  0  1.088223  0  0  0.070763  0  1.086449  0  0.127181  0  0.093179  0.066644  0  1.089573  0
H  H43  1  0.94262089  0.91695341  0.04933320  1  0  0.064948  0  1.009361  0  0  0.068342  0  1.088255  0  0  0.070705  0  1.086478  0  0.12712  0  0.093155  0.066588  0  1.089604  0
C  C44  1  0.59854764  0.43785311  0.32266721  1  0  0.628565  0  3.914932  0  0  0.571719  0  4.22278  0  0  0.605294  0  4.21478  0  1.646096  0  0.218193  0.548943  0  4.227454  0
C  C45  1  0.09856808  0.06214710  0.67733214  1  0  0.628835  0  3.914492  0  0  0.571979  0  4.22225  0  0  0.605564  0  4.214227  0  1.645952  0  0.218306  0.54919  0  4.22695  0
C  C46  1  0.40144363  0.56214952  0.67733473  1  0  0.62854  0  3.91511  0  0  0.57174  0  4.222872  0  0  0.605313  0  4.214876  0  1.64629  0  0.218163  0.548956  0  4.227558  0
C  C47  1  0.90144366  0.93785332  0.32266656  1  0  0.62857  0  3.91498  0  0  0.571734  0  4.22275  0  0  0.605311  0  4.214746  0  1.646332  0  0.21817  0.548949  0  4.227438  0
C  C48  1  0.68904254  0.65314349  0.38658990  1  0  0.713622  0  3.931049  0  0  0.655265  0  4.232766  0  0  0.692115  0  4.220478  0  1.661191  0  0.238547  0.629961  0  4.240431  0
C  C49  1  0.18906005  0.84685567  0.61341636  1  0  0.713465  0  3.931249  0  0  0.655288  0  4.232754  0  0  0.692139  0  4.22046  0  1.661464  0  0.238588  0.629986  0  4.240416  0
C  C50  1  0.31094143  0.34685473  0.61341319  1  0  0.713624  0  3.931003  0  0  0.655259  0  4.232709  0  0  0.69211  0  4.220424  0  1.661821  0  0.238549  0.62996  0  4.240368  0
C  C51  1  0.81096192  0.15313887  0.38658407  1  0  0.713601  0  3.930872  0  0  0.655359  0  4.232465  0  0  0.692209  0  4.220172  0  1.661484  0  0.238621  0.630057  0  4.240127  0
C  C52  1  0.61039651  0.48590232  0.26152858  1  0  0.098884  0  3.643333  0  0  0.087519  0  3.885392  0  0  0.091652  0  3.90358  0  0.511389  0  0.129774  0.084638  0  3.873346  0
C  C53  1  0.11040818  0.01410009  0.73847283  1  0  0.098753  0  3.643453  0  0  0.087578  0  3.885361  0  0  0.091709  0  3.903543  0  0.511425  0  0.129768  0.084706  0  3.873313  0
C  C54  1  0.38960207  0.51409883  0.73847335  1  0  0.098931  0  3.643335  0  0  0.087527  0  3.885384  0  0  0.091658  0  3.903576  0  0.511185  0  0.129826  0.084652  0  3.873336  0
C  C55  1  0.88960064  0.98589813  0.26152440  1  0  0.098773  0  3.643654  0  0  0.087602  0  3.885523  0  0  0.091735  0  3.903711  0  0.510996  0  0.129839  0.084725  0  3.873476  0
C  C56  1  0.67282160  0.58320302  0.29115849  1  0  -0.066501  0  3.667648  0  0  -0.050926  0  3.905469  0  0  -0.057799  0  3.922369  0  -0.01093  0  0.024547  -0.046964  0  3.894887  0
C  C57  1  0.17283035  0.91680643  0.70884547  1  0  -0.066416  0  3.667243  0  0  -0.051078  0  3.905183  0  0  -0.057986  0  3.922153  0  -0.011443  0  0.024433  -0.047122  0  3.894602  0
C  C58  1  0.32717552  0.41680034  0.70884257  1  0  -0.066487  0  3.667607  0  0  -0.050866  0  3.905374  0  0  -0.057738  0  3.922276  0  -0.011409  0  0.024556  -0.046911  0  3.89479  0
C  C59  1  0.82717993  0.08319325  0.29115294  1  0  -0.066335  0  3.667295  0  0  -0.05095  0  3.90525  0  0  -0.057832  0  3.922167  0  -0.011486  0  0.024518  -0.04699  0  3.894666  0
C  C60  1  0.70422710  0.62017543  0.23076161  1  0  0.000418  0  3.644483  0  0  -0.02771  0  3.891228  0  0  -0.023801  0  3.907155  0  -0.007322  0  -0.04649  -0.030005  0  3.880575  0
C  C61  1  0.20422122  0.87983035  0.76924673  1  0  0.000498  0  3.644011  0  0  -0.027558  0  3.89082  0  0  -0.023655  0  3.90674  0  -0.006368  0  -0.0463  -0.029851  0  3.880168  0
C  C62  1  0.29577588  0.37982573  0.76924149  1  0  0.000487  0  3.64431  0  0  -0.027671  0  3.891043  0  0  -0.023763  0  3.90698  0  -0.006857  0  -0.046461  -0.029961  0  3.880387  0
C  C63  1  0.79577882  0.12017081  0.23075520  1  0  0.000325  0  3.644161  0  0  -0.027783  0  3.891004  0  0  -0.023878  0  3.906935  0  -0.006363  0  -0.046442  -0.030077  0  3.880352  0
C  C64  1  0.66629493  0.56057835  0.14233937  1  0  -0.101824  0  3.750784  0  0  -0.11575  0  4.008643  0  0  -0.121954  0  4.029005  0  -0.013246  0  -0.081365  -0.111749  0  3.995024  0
C  C65  1  0.16628906  0.93942522  0.85766457  1  0  -0.101866  0  3.750649  0  0  -0.115794  0  4.008513  0  0  -0.122018  0  4.028856  0  -0.012774  0  -0.081438  -0.111792  0  3.994894  0
C  C66  1  0.33370658  0.43942207  0.85766227  1  0  -0.101965  0  3.750839  0  0  -0.115853  0  4.008699  0  0  -0.122058  0  4.029058  0  -0.013252  0  -0.081409  -0.111851  0  3.99508  0
C  C67  1  0.83371830  0.06057593  0.14233326  1  0  -0.101769  0  3.750761  0  0  -0.115667  0  4.008606  0  0  -0.121914  0  4.028942  0  -0.012809  0  -0.081372  -0.111665  0  3.994985  0
C  C68  1  0.59450885  0.46651920  0.11731914  1  0  0.11725  0  3.694086  0  0  0.081365  0  3.943504  0  0  0.08901  0  3.961937  0  0.458546  0  0.037486  0.076392  0  3.931017  0
C  C69  1  0.09450591  0.03348689  0.88268318  1  0  0.117174  0  3.694011  0  0  0.08129  0  3.943459  0  0  0.088942  0  3.961885  0  0.458636  0  0.037413  0.076314  0  3.930977  0
C  C70  1  0.40549558  0.53347975  0.88268307  1  0  0.11734  0  3.694  0  0  0.081445  0  3.943392  0  0  0.089091  0  3.961821  0  0.4585  0  0.037519  0.07647  0  3.930908  0
C  C71  1  0.90549560  0.96651868  0.11731702  1  0  0.117277  0  3.694135  0  0  0.081402  0  3.943553  0  0  0.089051  0  3.961988  0  0.458606  0  0.037541  0.076428  0  3.931067  0
C  C72  1  0.30607822  0.13636603  0.19950213  1  0  0.280994  0  3.902991  0  0  0.267245  0  4.200059  0  0  0.283896  0  4.21708  0  0.656281  0  0.161223  0.255722  0  4.188799  0
C  C73  1  0.80606948  0.36363638  0.80049635  1  0  0.281112  0  3.902906  0  0  0.267364  0  4.199975  0  0  0.284014  0  4.216998  0  0.656621  0  0.161272  0.255842  0  4.188715  0
C  C74  1  0.69389844  0.86363292  0.80049715  1  0  0.281086  0  3.903005  0  0  0.267342  0  4.200053  0  0  0.283993  0  4.217068  0  0.656568  0  0.161311  0.25582  0  4.188794  0
C  C75  1  0.19391011  0.63636330  0.19950381  1  0  0.280975  0  3.902962  0  0  0.267228  0  4.200021  0  0  0.283875  0  4.217041  0  0.656574  0  0.16131  0.255705  0  4.188764  0
C  C76  1  0.97406877  0.31201640  0.11500549  1  0  0.278295  0  3.987719  0  0  0.258302  0  4.302076  0  0  0.27713  0  4.317004  0  0.57625  0  0.126485  0.245387  0  4.29165  0
C  C77  1  0.47406144  0.18798308  0.88498947  1  0  0.278308  0  3.987689  0  0  0.258315  0  4.302048  0  0  0.277143  0  4.316974  0  0.576344  0  0.126476  0.245401  0  4.291621  0
C  C78  1  0.02592981  0.68797447  0.88498760  1  0  0.27828  0  3.987708  0  0  0.258282  0  4.302066  0  0  0.277107  0  4.316994  0  0.576067  0  0.126508  0.245369  0  4.291639  0
C  C79  1  0.52591961  0.81201734  0.11500455  1  0  0.278245  0  3.9878  0  0  0.258252  0  4.302157  0  0  0.27708  0  4.317083  0  0.576605  0  0.126471  0.245338  0  4.291731  0
S  S80  1  0.33728054  0.11392729  0.09576445  1  0  -0.199878  0  2.276852  0  0  -0.158949  0  2.613783  0  0  -0.176969  0  2.611256  0  0.127419  0  -0.074637  -0.146818  0  2.615766  0
S  S81  1  0.83728056  0.38607439  0.90423432  1  0  -0.199918  0  2.276778  0  0  -0.158992  0  2.61372  0  0  -0.177013  0  2.611192  0  0.127535  0  -0.074663  -0.146862  0  2.615704  0
S  S82  1  0.66270928  0.88607534  0.90423749  1  0  -0.199934  0  2.276759  0  0  -0.158994  0  2.613675  0  0  -0.177015  0  2.611146  0  0.127341  0  -0.074696  -0.146864  0  2.615658  0
S  S83  1  0.16271949  0.61392603  0.09576380  1  0  -0.199923  0  2.276755  0  0  -0.158994  0  2.613688  0  0  -0.177015  0  2.61116  0  0.127464  0  -0.074695  -0.146862  0  2.615671  0
S  S84  1  0.83468743  0.22915825  0.03967136  1  0  -0.338382  0  2.327937  0  0  -0.304145  0  2.688427  0  0  -0.324316  0  2.68224  0  0.051756  0  -0.132642  -0.289573  0  2.69239  0
S  S85  1  0.33468887  0.27083902  0.96032857  1  0  -0.338388  0  2.327998  0  0  -0.304139  0  2.688475  0  0  -0.324316  0  2.68229  0  0.051903  0  -0.132643  -0.289565  0  2.692435  0
S  S86  1  0.16529946  0.77083629  0.96032497  1  0  -0.338379  0  2.327919  0  0  -0.304139  0  2.688385  0  0  -0.324312  0  2.6822  0  0.051822  0  -0.132661  -0.289565  0  2.692343  0
S  S87  1  0.66530387  0.72915846  0.03967305  1  0  -0.338334  0  2.327859  0  0  -0.304095  0  2.688345  0  0  -0.324269  0  2.682154  0  0.051838  0  -0.132623  -0.28952  0  2.692304  0
N  N88  1  0.56823992  0.43142220  0.17587540  1  0  -0.257141  0  3.343203  0  0  -0.166037  0  3.585418  0  0  -0.188543  0  3.611671  0  -1.190577  0  -0.295615  -0.150923  0  3.567499  0
N  N89  1  0.06823989  0.06858610  0.82413132  1  0  -0.257196  0  3.34334  0  0  -0.166149  0  3.585532  0  0  -0.188657  0  3.61178  0  -1.190632  0  -0.295659  -0.151034  0  3.567613  0
N  N90  1  0.43175575  0.56858190  0.82413006  1  0  -0.257313  0  3.343072  0  0  -0.16617  0  3.58527  0  0  -0.188678  0  3.611524  0  -1.190536  0  -0.295716  -0.151057  0  3.567351  0
N  N91  1  0.93176308  0.93141432  0.17586680  1  0  -0.257223  0  3.343282  0  0  -0.166172  0  3.58546  0  0  -0.188679  0  3.61171  0  -1.19047  0  -0.295764  -0.151057  0  3.567541  0
N  N92  1  0.28403079  0.15198585  0.27289035  1  0  -0.467628  0  2.705666  0  0  -0.428308  0  2.952095  0  0  -0.444086  0  2.963371  0  -1.210012  0  -0.357346  -0.417556  0  2.944712  0
N  N93  1  0.78402643  0.34801436  0.72710900  1  0  -0.467691  0  2.705708  0  0  -0.428379  0  2.952174  0  0  -0.444157  0  2.96345  0  -1.210381  0  -0.357373  -0.417626  0  2.944791  0
N  N94  1  0.71596487  0.84801825  0.72711335  1  0  -0.467664  0  2.705871  0  0  -0.42835  0  2.952312  0  0  -0.444125  0  2.963581  0  -1.210289  0  -0.357366  -0.417598  0  2.944931  0
N  N95  1  0.21596485  0.65198606  0.27288853  1  0  -0.467567  0  2.70584  0  0  -0.428246  0  2.95227  0  0  -0.44402  0  2.963543  0  -1.2103  0  -0.357379  -0.417494  0  2.944888  0
N  N96  1  0.07593742  0.37115785  0.16938542  1  0  -0.489391  0  2.694296  0  0  -0.451071  0  2.935824  0  0  -0.466132  0  2.94303  0  -1.244375  0  -0.355624  -0.440699  0  2.93106  0
N  N97  1  0.57593452  0.12884162  0.83061187  1  0  -0.489378  0  2.694186  0  0  -0.451054  0  2.935697  0  0  -0.466113  0  2.9429  0  -1.24467  0  -0.355619  -0.440682  0  2.930933  0
N  N98  1  0.92405678  0.62883595  0.83060943  1  0  -0.489384  0  2.694276  0  0  -0.45106  0  2.935812  0  0  -0.466118  0  2.943017  0  -1.244326  0  -0.355646  -0.44069  0  2.931048  0
N  N99  1  0.42405676  0.87115659  0.16938711  1  0  -0.489365  0  2.694419  0  0  -0.45105  0  2.935957  0  0  -0.466111  0  2.94316  0  -1.24483  0  -0.355633  -0.440679  0  2.931194  0
O  O100  1  0.51958150  0.35331944  0.29377797  1  0  -0.610554  0  2.021936  0  0  -0.548386  0  2.262985  0  0  -0.577033  0  2.253693  0  -1.157484  0  -0.306965  -0.528081  0  2.268516  0
O  O101  1  0.01958586  0.14667709  0.70622165  1  0  -0.61072  0  2.021714  0  0  -0.548573  0  2.262771  0  0  -0.57722  0  2.253464  0  -1.157278  0  -0.307046  -0.528271  0  2.268325  0
O  O102  1  0.48042001  0.64667877  0.70622277  1  0  -0.610522  0  2.022019  0  0  -0.548386  0  2.263055  0  0  -0.577032  0  2.253763  0  -1.157429  0  -0.306955  -0.528084  0  2.268599  0
O  O103  1  0.98041419  0.85331745  0.29377292  1  0  -0.610565  0  2.021745  0  0  -0.548461  0  2.262836  0  0  -0.577106  0  2.253536  0  -1.157432  0  -0.307015  -0.528153  0  2.268375  0
O  O104  1  0.67502883  0.48440611  0.39779195  1  0  -0.617023  0  1.995129  0  0  -0.556743  0  2.213635  0  0  -0.581248  0  2.203037  0  -1.185132  0  -0.293308  -0.539559  0  2.220543  0
O  O105  1  0.17505073  0.01559336  0.60220535  1  0  -0.617122  0  1.995036  0  0  -0.556852  0  2.213559  0  0  -0.581354  0  2.202944  0  -1.185263  0  -0.293326  -0.53965  0  2.220449  0
O  O106  1  0.32495953  0.51559798  0.60220941  1  0  -0.617042  0  1.99525  0  0  -0.556762  0  2.213743  0  0  -0.581267  0  2.203143  0  -1.185152  0  -0.293293  -0.539568  0  2.220643  0
O  O107  1  0.82496832  0.98440485  0.39779071  1  0  -0.616975  0  1.995276  0  0  -0.556712  0  2.213773  0  0  -0.581218  0  2.203174  0  -1.185165  0  -0.293263  -0.539526  0  2.22069  0
O  O108  1  0.53090122  0.67879144  0.42992140  1  0  -0.740427  0  2.055417  0  0  -0.676663  0  2.309097  0  0  -0.707861  0  2.300235  0  -1.210296  0  -0.381191  -0.654068  0  2.314239  0
O  O109  1  0.03090850  0.82120698  0.57008045  1  0  -0.740474  0  2.055251  0  0  -0.676766  0  2.308879  0  0  -0.70795  0  2.299983  0  -1.210441  0  -0.381265  -0.654166  0  2.314018  0
O  O110  1  0.46909883  0.32120971  0.57007936  1  0  -0.740504  0  2.054988  0  0  -0.676767  0  2.308737  0  0  -0.707945  0  2.299817  0  -1.210527  0  -0.381233  -0.654168  0  2.313875  0
O  O111  1  0.96909739  0.17879270  0.42992030  1  0  -0.740427  0  2.055465  0  0  -0.676695  0  2.309104  0  0  -0.707891  0  2.300238  0  -1.210571  0  -0.381233  -0.654099  0  2.314245  0
O  O112  1  0.85199152  0.69094852  0.41887655  1  0  -0.716913  0  2.032042  0  0  -0.656487  0  2.287709  0  0  -0.685388  0  2.276648  0  -1.218937  0  -0.370991  -0.635625  0  2.294554  0
O  O113  1  0.35198857  0.80905064  0.58113146  1  0  -0.716757  0  2.032489  0  0  -0.656378  0  2.288055  0  0  -0.685271  0  2.276994  0  -1.218901  0  -0.370931  -0.635519  0  2.294895  0
O  O114  1  0.14801438  0.30905190  0.58112625  1  0  -0.71681  0  2.032333  0  0  -0.65639  0  2.288008  0  0  -0.685287  0  2.276947  0  -1.219093  0  -0.370929  -0.635531  0  2.294849  0
O  O115  1  0.64801440  0.19094684  0.41886723  1  0  -0.716976  0  2.032036  0  0  -0.65658  0  2.287655  0  0  -0.685479  0  2.276589  0  -1.218787  0  -0.371013  -0.635718  0  2.2945  0
O  O116  1  0.28340663  0.35198858  0.42730209  1  0  -0.866476  0  1.834452  0  0  -0.804406  0  2.008813  0  0  -0.825554  0  1.977615  0  -1.267983  0  -0.577086  -0.789125  0  2.030693  0
O  O117  1  0.78340958  0.14801531  0.57270051  1  0  -0.866566  0  1.834526  0  0  -0.804479  0  2.008836  0  0  -0.825621  0  1.977633  0  -1.267939  0  -0.577141  -0.789203  0  2.03071  0
O  O118  1  0.71659342  0.64801478  0.57270074  1  0  -0.866495  0  1.834551  0  0  -0.804406  0  2.00885  0  0  -0.825549  0  1.97765  0  -1.267991  0  -0.577136  -0.78913  0  2.03072  0
O  O119  1  0.21659340  0.85198658  0.42730348  1  0  -0.866443  0  1.834574  0  0  -0.804385  0  2.008886  0  0  -0.825531  0  1.977685  0  -1.267959  0  -0.577083  -0.789108  0  2.030757  0
O  O120  1  0.33031827  0.01181389  0.34408026  1  0  -0.873271  0  1.844119  0  0  -0.822873  0  2.03801  0  0  -0.842957  0  2.007776  0  -1.259847  0  -0.616692  -0.808224  0  2.059197  0
O  O121  1  0.83033291  0.48818338  0.65591967  1  0  -0.873242  0  1.84416  0  0  -0.822802  0  2.038162  0  0  -0.842882  0  2.007933  0  -1.259825  0  -0.616736  -0.80815  0  2.059344  0
O  O122  1  0.66968032  0.98818653  0.65591904  1  0  -0.873238  0  1.844105  0  0  -0.822801  0  2.038115  0  0  -0.84288  0  2.007884  0  -1.259735  0  -0.61668  -0.808152  0  2.059303  0
O  O123  1  0.16967737  0.51181263  0.34407960  1  0  -0.873168  0  1.844144  0  0  -0.822736  0  2.038132  0  0  -0.842819  0  2.007903  0  -1.259717  0  -0.616597  -0.808086  0  2.059321  0
O  O124  1  0.38333706  0.10893233  0.52519775  1  0  -0.879188  0  1.810421  0  0  -0.81911  0  1.98384  0  0  -0.839894  0  1.951255  0  -1.30052  0  -0.612775  -0.80416  0  2.006787  0
O  O125  1  0.88333123  0.39106053  0.47479571  1  0  -0.879231  0  1.810405  0  0  -0.819102  0  1.983854  0  0  -0.839883  0  1.951262  0  -1.300578  0  -0.612786  -0.80415  0  2.006807  0
O  O126  1  0.61667323  0.89106074  0.47479564  1  0  -0.879277  0  1.810404  0  0  -0.819146  0  1.983827  0  0  -0.839924  0  1.951236  0  -1.300577  0  -0.61279  -0.804194  0  2.006783  0
O  O127  1  0.11666589  0.60893254  0.52519886  1  0  -0.879296  0  1.810354  0  0  -0.819181  0  1.983835  0  0  -0.839963  0  1.951246  0  -1.300602  0  -0.612777  -0.80423  0  2.006786  0
