# generated using pymatgen
data_CdH8C24(N3F2)2
_symmetry_space_group_name_H-M   'P 1'
_cell_length_a   7.48132750
_cell_length_b   10.64851167
_cell_length_c   14.44414988
_cell_angle_alpha   110.21181105
_cell_angle_beta   102.91559394
_cell_angle_gamma   95.33962747
_symmetry_Int_Tables_number   1
_chemical_formula_structural   CdH8C24(N3F2)2
_chemical_formula_sum   'Cd2 H16 C48 N12 F8'
_cell_volume   1034.11655867
_cell_formula_units_Z   2
loop_
 _symmetry_equiv_pos_site_id
 _symmetry_equiv_pos_as_xyz
  1  'x, y, z'
loop_
 _atom_site_type_symbol
 _atom_site_label
 _atom_site_symmetry_multiplicity
 _atom_site_fract_x
 _atom_site_fract_y
 _atom_site_fract_z
 _atom_site_occupancy
 _atom_site_pbe_bader_spin_density
 _atom_site_pbe_cm5_charge
 _atom_site_pbe_ddec_charge
 _atom_site_pbe_ddec_spin_density
 _atom_site_pbe_ddec_sum_bond_order
 _atom_site_pbe_magmom
Cd  Cd0  1  0.35894478  0.10948211  0.21846612  1  0  0.840346  0.884622  0  2.424286  0
Cd  Cd1  1  0.64105471  0.89051773  0.78153432  1  0  0.840335  0.884584  0  2.42425  0
H  H2  1  0.11768649  0.89867010  0.28741114  1  0  0.116542  0.091538  0  1.003261  0
H  H3  1  0.66921222  0.38917110  0.28740757  1  0  0.116761  0.09232  0  1.003364  0
H  H4  1  0.88230502  0.10133072  0.71258655  1  0  0.116546  0.091485  0  1.003318  0
H  H5  1  0.33078386  0.61083174  0.71259602  1  0  0.116731  0.092272  0  1.003344  0
H  H6  1  0.08815533  0.86587001  0.44765128  1  0  0.108239  0.11638  0  0.992729  0
H  H7  1  0.85966974  0.58192715  0.44764049  1  0  0.108424  0.116589  0  0.992002  0
H  H8  1  0.91183456  0.13412978  0.55234595  1  0  0.108217  0.116352  0  0.992687  0
H  H9  1  0.14032359  0.41807566  0.55236346  1  0  0.108425  0.116561  0  0.992006  0
H  H10  1  0.27679123  0.04059887  0.61893894  1  0  0.10989  0.124016  0  1.009553  0
H  H11  1  0.84259832  0.57843786  0.61897832  1  0  0.109787  0.123482  0  1.009467  0
H  H12  1  0.72320041  0.95939684  0.38105951  1  0  0.109839  0.123918  0  1.009545  0
H  H13  1  0.15739977  0.42156194  0.38102541  1  0  0.109778  0.123457  0  1.00953  0
H  H14  1  0.50514618  0.26090110  0.71680085  1  0  0.100917  0.110878  0  1.032573  0
H  H15  1  0.71152412  0.45625068  0.71680409  1  0  0.100984  0.111379  0  1.032505  0
H  H16  1  0.49485433  0.73909162  0.28319993  1  0  0.100936  0.110907  0  1.032577  0
H  H17  1  0.28847704  0.54373901  0.28319460  1  0  0.100993  0.111399  0  1.032377  0
C  C18  1  0.02507447  0.26570135  0.14580818  1  0  0.181633  0.301719  0  4.102842  0
C  C19  1  0.62050160  0.88045464  0.14620994  1  0  0.180792  0.298189  0  4.107569  0
C  C20  1  0.97493568  0.73430275  0.85418631  1  0  0.181626  0.301619  0  4.103048  0
C  C21  1  0.37949813  0.11954622  0.85379148  1  0  0.18075  0.298166  0  4.107646  0
C  C22  1  0.91918895  0.28205547  0.05944839  1  0  -0.05567  -0.172727  0  4.199266  0
C  C23  1  0.64027531  0.77768165  0.05974353  1  0  -0.055407  -0.170982  0  4.196576  0
C  C24  1  0.08082029  0.71795061  0.94055066  1  0  -0.055762  -0.172739  0  4.199196  0
C  C25  1  0.35972856  0.22231926  0.94025701  1  0  -0.055367  -0.170914  0  4.196522  0
C  C26  1  0.85067850  0.40631070  0.06101616  1  0  -0.029055  -0.093407  0  4.166848  0
C  C27  1  0.71006097  0.65485595  0.06111624  1  0  -0.028241  -0.091125  0  4.168463  0
C  C28  1  0.14932838  0.59369128  0.93898224  1  0  -0.029042  -0.093439  0  4.16677  0
C  C29  1  0.28994477  0.34514702  0.93888367  1  0  -0.028343  -0.091254  0  4.168569  0
C  C30  1  0.76960180  0.42730050  0.97109337  1  0  0.07357  0.105959  0  4.106488  0
C  C31  1  0.70079793  0.54354288  0.97114949  1  0  0.073526  0.104839  0  4.11014  0
C  C32  1  0.23040395  0.57270249  0.02890585  1  0  0.073533  0.10591  0  4.106784  0
C  C33  1  0.29920505  0.45646006  0.02885078  1  0  0.073574  0.10488  0  4.110258  0
C  C34  1  0.85708975  0.51643699  0.15092097  1  0  0.073923  0.114007  0  4.077014  0
C  C35  1  0.79375002  0.63497662  0.15098556  1  0  0.071931  0.109058  0  4.081399  0
C  C36  1  0.14291575  0.48356498  0.84907796  1  0  0.073942  0.114053  0  4.07693  0
C  C37  1  0.20625386  0.36502432  0.84901291  1  0  0.071922  0.10912  0  4.081347  0
C  C38  1  0.88512700  0.16807646  0.96929751  1  0  0.186641  0.307297  0  4.101907  0
C  C39  1  0.58449688  0.80146010  0.96968537  1  0  0.187073  0.308823  0  4.098505  0
C  C40  1  0.11488037  0.83192756  0.03070079  1  0  0.186714  0.307319  0  4.101929  0
C  C41  1  0.41550586  0.19854182  0.03031461  1  0  0.187075  0.30879  0  4.098409  0
C  C42  1  0.19785706  0.97155312  0.36305277  1  0  0.059984  0.113218  0  3.932583  0
C  C43  1  0.66469253  0.39191502  0.36304859  1  0  0.059613  0.111726  0  3.934541  0
C  C44  1  0.80213533  0.02844568  0.63694449  1  0  0.060004  0.113275  0  3.93257  0
C  C45  1  0.33530695  0.60808481  0.63695323  1  0  0.059668  0.111822  0  3.934639  0
C  C46  1  0.18156779  0.95448280  0.45322278  1  0  -0.083282  -0.128649  0  3.99343  0
C  C47  1  0.77159776  0.49899995  0.45323708  1  0  -0.082971  -0.128203  0  3.992206  0
C  C48  1  0.81842072  0.04551697  0.54677497  1  0  -0.083242  -0.128588  0  3.99323  0
C  C49  1  0.22839556  0.50100284  0.54676756  1  0  -0.083013  -0.128198  0  3.99233  0
C  C50  1  0.28457855  0.05090731  0.54723977  1  0  -0.061557  -0.072767  0  3.901428  0
C  C51  1  0.76281677  0.49653049  0.54726264  1  0  -0.061817  -0.071589  0  3.902865  0
C  C52  1  0.71541148  0.94908739  0.45275753  1  0  -0.061579  -0.072694  0  3.901215  0
C  C53  1  0.23718221  0.50346730  0.45273929  1  0  -0.061775  -0.071525  0  3.902858  0
C  C54  1  0.41489131  0.17194867  0.45573530  1  0  0.117458  0.120632  0  3.970756  0
C  C55  1  0.54016362  0.28429263  0.45571735  1  0  0.117361  0.121066  0  3.969883  0
C  C56  1  0.58510681  0.82805117  0.54426498  1  0  0.117428  0.120549  0  3.970893  0
C  C57  1  0.45983513  0.71570415  0.54428360  1  0  0.117424  0.121173  0  3.969789  0
C  C58  1  0.40431007  0.16445204  0.55080082  1  0  -0.002366  0.043133  0  4.004718  0
C  C59  1  0.64623705  0.38671319  0.55079245  1  0  -0.001575  0.04264  0  4.004746  0
C  C60  1  0.59568319  0.83554470  0.44919877  1  0  -0.002388  0.043084  0  4.004744  0
C  C61  1  0.35376032  0.61328356  0.44920902  1  0  -0.001637  0.042528  0  4.004777  0
C  C62  1  0.51482094  0.26892045  0.64492534  1  0  -0.085254  -0.121506  0  3.98263  0
C  C63  1  0.62993456  0.37635168  0.64492419  1  0  -0.085453  -0.12219  0  3.98358  0
C  C64  1  0.48517796  0.73107125  0.35507361  1  0  -0.085157  -0.121401  0  3.982453  0
C  C65  1  0.37006344  0.62364203  0.35507657  1  0  -0.085457  -0.122217  0  3.983415  0
N  N66  1  0.11700485  0.24491729  0.21471221  1  0  -0.370574  -0.469599  0  3.027384  0
N  N67  1  0.59729721  0.97030859  0.21514890  1  0  -0.369475  -0.466976  0  3.030083  0
N  N68  1  0.88300575  0.75508877  0.78528838  1  0  -0.370533  -0.469467  0  3.027654  0
N  N69  1  0.40270328  0.02969536  0.78485065  1  0  -0.369436  -0.466965  0  3.030091  0
N  N70  1  0.31160753  0.07646992  0.36477599  1  0  -0.321668  -0.26278  0  3.506508  0
N  N71  1  0.55237803  0.28884511  0.36474599  1  0  -0.321822  -0.262815  0  3.508298  0
N  N72  1  0.68838873  0.92352786  0.63522354  1  0  -0.321681  -0.262756  0  3.506476  0
N  N73  1  0.44762008  0.71115472  0.63525498  1  0  -0.321869  -0.262885  0  3.508276  0
N  N74  1  0.86363185  0.07202204  0.89355671  1  0  -0.3731  -0.45112  0  3.096213  0
N  N75  1  0.53067734  0.82173657  0.89399480  1  0  -0.374096  -0.45355  0  3.093654  0
N  N76  1  0.13637099  0.92798599  0.10644418  1  0  -0.373133  -0.451147  0  3.096241  0
N  N77  1  0.46932766  0.17826334  0.10600492  1  0  -0.374085  -0.45351  0  3.093557  0
F  F78  1  0.92932802  0.50906316  0.24421791  1  0  -0.085467  -0.114598  0  1.420611  0
F  F79  1  0.81505321  0.73592217  0.24435065  1  0  -0.084737  -0.113466  0  1.422601  0
F  F80  1  0.07067536  0.49093572  0.75578135  1  0  -0.085471  -0.114616  0  1.420597  0
F  F81  1  0.18494580  0.26407566  0.75564783  1  0  -0.084751  -0.113505  0  1.422569  0
F  F82  1  0.75584217  0.32988074  0.87778158  1  0  -0.08121  -0.103209  0  1.442319  0
F  F83  1  0.62088900  0.54732731  0.87790354  1  0  -0.080584  -0.102234  0  1.443635  0
F  F84  1  0.24415233  0.67012113  0.12221673  1  0  -0.081204  -0.103204  0  1.442405  0
F  F85  1  0.37910435  0.45267553  0.12209765  1  0  -0.080552  -0.102216  0  1.44371  0
