# generated using pymatgen
data_Zr3H21C44SCl5O19
_symmetry_space_group_name_H-M   'P 1'
_cell_length_a   19.08561536
_cell_length_b   19.05570238
_cell_length_c   19.07892520
_cell_angle_alpha   59.81245798
_cell_angle_beta   59.90331095
_cell_angle_gamma   60.03202047
_symmetry_Int_Tables_number   1
_chemical_formula_structural   Zr3H21C44SCl5O19
_chemical_formula_sum   'Zr6 H42 C88 S2 Cl10 O38'
_cell_volume   4897.08652870
_cell_formula_units_Z   2
loop_
 _symmetry_equiv_pos_site_id
 _symmetry_equiv_pos_as_xyz
  1  'x, y, z'
loop_
 _atom_site_type_symbol
 _atom_site_label
 _atom_site_symmetry_multiplicity
 _atom_site_fract_x
 _atom_site_fract_y
 _atom_site_fract_z
 _atom_site_occupancy
 _atom_site_pbe_bader_charge
 _atom_site_pbe_bader_spin_density
 _atom_site_pbe_cm5_charge
 _atom_site_pbe_ddec_charge
 _atom_site_pbe_ddec_spin_density
 _atom_site_pbe_ddec_sum_bond_order
 _atom_site_pbe_magmom
Zr  Zr0  1  0.90345201  0.41043373  0.59386867  1  2.636251  0  1.627561  2.373222  0  2.759669  0
Zr  Zr1  1  0.09234542  0.59303637  0.41132104  1  2.63669  0  1.627227  2.373728  0  2.757156  0
Zr  Zr2  1  0.08927230  0.40691325  0.59666043  1  2.635078  0  1.623346  2.373085  0  2.755094  0
Zr  Zr3  1  0.90736224  0.59576351  0.40767054  1  2.635966  0  1.623555  2.373167  0  2.75362  0
Zr  Zr4  1  0.90534225  0.59425306  0.59506739  1  2.635537  0  1.627633  2.373611  0  2.753245  0
Zr  Zr5  1  0.09079266  0.40882719  0.40977229  1  2.636001  0  1.628504  2.3732  0  2.758649  0
H  H6  1  0.92255434  0.42815210  0.72179959  1  0.611602  0  0.330918  0.422789  0  0.858729  0
H  H7  1  0.92758743  0.72093355  0.42888230  1  0.597513  0  0.331411  0.423714  0  0.858194  0
H  H8  1  0.21688139  0.42614200  0.43194442  1  0.601628  0  0.33294  0.425811  0  0.85326  0
H  H9  1  0.92527475  0.43109697  0.42686191  1  0.601789  0  0.332801  0.425748  0  0.853516  0
H  H10  1  0.34924142  0.57513581  0.21095947  1  0.106188  0  0.112623  0.132659  0  0.987651  0
H  H11  1  0.70686893  0.36971248  0.85263719  1  0.139554  0  0.110035  0.128875  0  0.993364  0
H  H12  1  0.63494908  0.64313914  0.78277900  1  0.125202  0  0.11334  0.122294  0  0.980463  0
H  H13  1  0.50415369  0.64113095  0.91343592  1  0.08199  0  0.105125  0.111837  0  0.991463  0
H  H14  1  0.28039059  0.43914715  0.14377013  1  0.09758  0  0.113017  0.122303  0  0.981115  0
H  H15  1  0.41000111  0.44151289  0.01185532  1  0.088482  0  0.104316  0.110725  0  0.993022  0
H  H16  1  0.06975969  0.85234586  0.36995656  1  0.103687  0  0.110034  0.128429  0  0.992785  0
H  H17  1  0.86393336  0.21137682  0.57501514  1  0.130324  0  0.112381  0.132448  0  0.987695  0
H  H18  1  0.13602801  0.14331006  0.43910348  1  0.075729  0  0.113145  0.122489  0  0.980666  0
H  H19  1  0.13519007  0.01212170  0.44078399  1  0.058957  0  0.104467  0.110633  0  0.992411  0
H  H20  1  0.93792563  0.78330888  0.64335847  1  0.111348  0  0.113332  0.122459  0  0.980157  0
H  H21  1  0.93948299  0.91458959  0.64066859  1  0.082685  0  0.105226  0.111954  0  0.991606  0
H  H22  1  0.34926256  0.21154515  0.37108571  1  0.122824  0  0.111666  0.131419  0  0.988398  0
H  H23  1  0.70555047  0.85248941  0.57575557  1  0.102875  0  0.112422  0.132235  0  0.987662  0
H  H24  1  0.63876286  0.78397187  0.43923787  1  0.095282  0  0.109647  0.117548  0  0.986604  0
H  H25  1  0.50581533  0.91201670  0.44356060  1  0.091568  0  0.104193  0.110797  0  0.99067  0
H  H26  1  0.27588087  0.13444141  0.64611834  1  0.144488  0  0.108808  0.12496  0  0.995517  0
H  H27  1  0.40468783  0.00384337  0.64474930  1  0.102048  0  0.105849  0.115239  0  0.989599  0
H  H28  1  0.86668384  0.57598358  0.85276784  1  0.11193  0  0.11252  0.132805  0  0.987198  0
H  H29  1  0.06902404  0.37050782  0.21159716  1  0.106676  0  0.111741  0.131784  0  0.988352  0
H  H30  1  0.94456239  0.64549347  0.13497331  1  0.107322  0  0.108716  0.124552  0  0.996158  0
H  H31  1  0.94790616  0.64455700  0.00407703  1  0.085838  0  0.105514  0.1147  0  0.990775  0
H  H32  1  0.13833610  0.43865538  0.78428006  1  0.086757  0  0.109532  0.117478  0  0.986811  0
H  H33  1  0.13935324  0.44318409  0.91197863  1  0.084524  0  0.1045  0.111338  0  0.990834  0
H  H34  1  0.12346951  0.81755661  0.16921125  1  0.100788  0  0.117019  0.12729  0  0.982845  0
H  H35  1  0.19017681  0.92805466  0.05123754  1  0.146494  0  0.121369  0.135402  0  0.981594  0
H  H36  1  0.90618872  0.80391978  0.17013655  1  0.10171  0  0.106591  0.105715  0  1.052486  0
H  H37  1  0.89007417  0.16826125  0.81826460  1  0.119866  0  0.117129  0.127443  0  0.982645  0
H  H38  1  0.83097193  0.05021547  0.92865355  1  0.113595  0  0.121295  0.135187  0  0.981724  0
H  H39  1  0.11979177  0.16949617  0.80491843  1  0.093876  0  0.106593  0.105915  0  1.052133  0
H  H40  1  0.35134500  0.36448082  0.57693331  1  0.126195  0  0.112611  0.133041  0  0.985343  0
H  H41  1  0.70735130  0.57605314  0.36529797  1  0.12117  0  0.112539  0.132843  0  0.986111  0
H  H42  1  0.63823989  0.44392150  0.63882793  1  0.094699  0  0.112053  0.120796  0  0.982765  0
H  H43  1  0.50792628  0.44270689  0.63952148  1  0.083407  0  0.104098  0.110465  0  0.992833  0
H  H44  1  0.27919058  0.63802458  0.44496748  1  0.080838  0  0.111816  0.120565  0  0.983202  0
H  H45  1  0.41005477  0.63855291  0.44386656  1  0.110083  0  0.103938  0.109881  0  0.992995  0
H  H46  1  0.16164564  0.20471259  0.86664095  1  0.642788  0  0.350402  0.401964  0  0.846124  0
H  H47  1  0.76722919  0.86557321  0.20528169  1  0.638121  0  0.350992  0.403498  0  0.844563  0
C  C48  1  0.75779272  0.50556601  0.73279907  1  1.528  0  0.237026  0.641877  0  4.102876  0
C  C49  1  0.00349764  0.73229525  0.50624423  1  1.563521  0  0.236627  0.641882  0  4.101312  0
C  C50  1  0.23081418  0.50533471  0.26499578  1  1.540878  0  0.237542  0.642134  0  4.100483  0
C  C51  1  0.99877861  0.26430821  0.50599068  1  1.567544  0  0.237569  0.642708  0  4.1014  0
C  C52  1  0.99880505  0.26028942  0.73374199  1  1.56552  0  0.237105  0.641343  0  4.101463  0
C  C53  1  0.75953590  0.50958601  0.50091539  1  1.561306  0  0.236216  0.642112  0  4.100473  0
C  C54  1  0.00739829  0.73290303  0.26106088  1  1.55891  0  0.237157  0.640691  0  4.103425  0
C  C55  1  0.23008769  0.50014711  0.51044780  1  1.570391  0  0.237363  0.643828  0  4.100432  0
C  C56  1  0.99986860  0.50367494  0.73575207  1  1.556561  0  0.236294  0.643829  0  4.098079  0
C  C57  1  0.22794248  0.26070096  0.50708431  1  1.561062  0  0.236956  0.642916  0  4.09768  0
C  C58  1  0.00477465  0.50613386  0.26140300  1  1.555998  0  0.238186  0.644438  0  4.095695  0
C  C59  1  0.76090011  0.73506865  0.50423596  1  1.554709  0  0.236457  0.643965  0  4.09694  0
C  C60  1  0.30711048  0.50715735  0.18511006  1  -0.026352  0  -0.014966  -0.022195  0  3.984981  0
C  C61  1  0.67862134  0.50648509  0.80984986  1  -0.087823  0  -0.015578  -0.023229  0  3.988652  0
C  C62  1  0.36301933  0.54541917  0.16743801  1  0.071159  0  -0.087501  -0.158619  0  3.958969  0
C  C63  1  0.43737691  0.54308015  0.09566837  1  0.006836  0  0.016607  0.106712  0  4.011209  0
C  C64  1  0.66264550  0.42905873  0.86649767  1  0.00837  0  -0.089184  -0.161668  0  3.966762  0
C  C65  1  0.59168042  0.42776376  0.94162377  1  0.030838  0  0.01626  0.107278  0  4.013984  0
C  C66  1  0.62190776  0.58310574  0.82719569  1  0.053419  0  -0.081638  -0.089765  0  3.975334  0
C  C67  1  0.54953309  0.58147707  0.90051990  1  -0.039651  0  -0.086214  -0.115748  0  3.996613  0
C  C68  1  0.32437382  0.46882768  0.12937663  1  0.01798  0  -0.082027  -0.091344  0  3.973609  0
C  C69  1  0.39706271  0.46973936  0.05635317  1  -0.085144  0  -0.087359  -0.116949  0  3.998097  0
C  C70  1  0.45580439  0.50564957  0.03806594  1  0.052855  0  -0.008034  0.021883  0  3.980799  0
C  C71  1  0.53300230  0.50418945  0.96004769  1  0.011919  0  -0.008506  0.020527  0  3.981776  0
C  C72  1  0.00404937  0.80988799  0.50676211  1  -0.073166  0  -0.015832  -0.023723  0  3.986778  0
C  C73  1  0.99999723  0.18498380  0.50719860  1  -0.059951  0  -0.015761  -0.022094  0  3.985007  0
C  C74  1  0.04057221  0.86654492  0.42915475  1  0.08193  0  -0.089025  -0.160299  0  3.964521  0
C  C75  1  0.03732229  0.94202824  0.42746032  1  0.006582  0  0.016302  0.106765  0  4.014782  0
C  C76  1  0.92325021  0.16783382  0.54515648  1  0.023949  0  -0.08706  -0.158574  0  3.958081  0
C  C77  1  0.92260003  0.09649746  0.54240814  1  0.026903  0  0.016804  0.107634  0  4.012111  0
C  C78  1  0.07657522  0.12927107  0.46861191  1  0.00247  0  -0.082107  -0.092032  0  3.973933  0
C  C79  1  0.07557514  0.05668417  0.46909953  1  0.001947  0  -0.087065  -0.115654  0  3.996734  0
C  C80  1  0.96645081  0.82770601  0.58317623  1  0.016875  0  -0.081202  -0.089726  0  3.973404  0
C  C81  1  0.96679698  0.90138064  0.58115461  1  -0.02917  0  -0.086692  -0.116129  0  3.995289  0
C  C82  1  0.00102322  0.96081360  0.50368985  1  -0.006737  0  -0.008038  0.021571  0  3.982207  0
C  C83  1  0.99899017  0.03880286  0.50492356  1  0.060792  0  -0.008276  0.019805  0  3.983101  0
C  C84  1  0.30430079  0.18095682  0.50852598  1  -0.001621  0  -0.015907  -0.026342  0  3.986683  0
C  C85  1  0.68037434  0.81063187  0.50700482  1  0.014791  0  -0.017482  -0.025903  0  3.986951  0
C  C86  1  0.36176903  0.16605567  0.43098571  1  0.021548  0  -0.088664  -0.159731  0  3.960797  0
C  C87  1  0.43622894  0.09460264  0.43032338  1  -0.01071  0  0.015192  0.105142  0  4.017054  0
C  C88  1  0.66196227  0.86587557  0.54630778  1  0.012926  0  -0.08716  -0.158071  0  3.956563  0
C  C89  1  0.58925332  0.93924448  0.54545195  1  0.014755  0  0.017084  0.107152  0  4.012287  0
C  C90  1  0.62424770  0.82764668  0.46924370  1  -0.035671  0  -0.085937  -0.095279  0  3.983511  0
C  C91  1  0.55042762  0.89934586  0.47149752  1  0.000586  0  -0.087238  -0.116806  0  3.999822  0
C  C92  1  0.32026200  0.12268758  0.58572863  1  -0.045356  0  -0.081323  -0.087571  0  3.957848  0
C  C93  1  0.39306890  0.04990422  0.58453126  1  -0.034629  0  -0.085244  -0.113123  0  3.985712  0
C  C94  1  0.45331625  0.03443851  0.50726638  1  0.034812  0  -0.009137  0.018225  0  3.984908  0
C  C95  1  0.53144867  0.95744383  0.50841883  1  -0.02032  0  -0.008171  0.021893  0  3.980705  0
C  C96  1  0.00234475  0.50674220  0.81099478  1  0.010369  0  -0.017149  -0.026086  0  3.987598  0
C  C97  1  0.00702886  0.50787619  0.18135554  1  -0.059354  0  -0.01612  -0.02554  0  3.985079  0
C  C98  1  0.92637988  0.54638099  0.86609938  1  0.014193  0  -0.087669  -0.159237  0  3.957083  0
C  C99  1  0.92681221  0.54568413  0.93927467  1  0.043369  0  0.017436  0.108158  0  4.011825  0
C  C100  1  0.04210266  0.43048825  0.16618638  1  0.089443  0  -0.089392  -0.161785  0  3.963062  0
C  C101  1  0.03988551  0.43003841  0.09454265  1  -0.019085  0  0.015871  0.106532  0  4.015891  0
C  C102  1  0.97231542  0.58519244  0.12306910  1  0.000339  0  -0.082017  -0.088172  0  3.957348  0
C  C103  1  0.97357675  0.58423277  0.05011602  1  -0.028072  0  -0.08451  -0.112417  0  3.984873  0
C  C104  1  0.07929781  0.46889598  0.82787594  1  -0.029036  0  -0.08604  -0.095142  0  3.982348  0
C  C105  1  0.07940410  0.47126725  0.89939275  1  -0.025123  0  -0.087497  -0.1171  0  3.999102  0
C  C106  1  0.00350129  0.50840237  0.95746092  1  0.001206  0  -0.008267  0.02116  0  3.98057  0
C  C107  1  0.00597924  0.50708365  0.03445535  1  0.045803  0  -0.009139  0.018353  0  3.983119  0
C  C108  1  0.07539315  0.84395457  0.13959172  1  0.006434  0  -0.066535  -0.121862  0  3.899744  0
C  C109  1  0.07655994  0.91536182  0.06370335  1  0.028669  0  -0.000885  0.080068  0  4.025221  0
C  C110  1  0.14067808  0.95484110  0.02324859  1  -0.021645  0  -0.064101  -0.109963  0  3.942873  0
C  C111  1  0.95098083  0.83836846  0.14002490  1  0.003684  0  -0.078119  -0.136989  0  3.934757  0
C  C112  1  0.94831140  0.91083061  0.06545271  1  0.033528  0  -0.000521  0.068202  0  4.010932  0
C  C113  1  0.88375053  0.94942546  0.02630236  1  -0.200502  0  -0.014396  -0.139188  0  3.969705  0
C  C114  1  0.94134267  0.13870618  0.84468028  1  -0.059817  0  -0.066033  -0.120968  0  3.899869  0
C  C115  1  0.94468327  0.06279420  0.91610724  1  -0.015869  0  -0.000725  0.080692  0  4.02539  0
C  C116  1  0.88163558  0.02225918  0.95549102  1  0.023304  0  -0.064283  -0.110754  0  3.944411  0
C  C117  1  0.07072249  0.13930031  0.83930202  1  -0.02435  0  -0.077979  -0.1373  0  3.931922  0
C  C118  1  0.07552139  0.06473515  0.91174805  1  0.039846  0  -0.000232  0.068684  0  4.010763  0
C  C119  1  0.14057938  0.02567757  0.95041993  1  -0.191202  0  -0.014519  -0.139382  0  3.970156  0
C  C120  1  0.01220898  0.80655679  0.17786533  1  -0.005238  0  -0.012845  -0.024876  0  3.989193  0
C  C121  1  0.01191963  0.95077456  0.02644903  1  -0.055899  0  0.013968  0.015159  0  3.890559  0
C  C122  1  0.00354780  0.17708203  0.80737391  1  0.019251  0  -0.013549  -0.026635  0  3.988624  0
C  C123  1  0.01107697  0.02563651  0.95161515  1  0.031554  0  0.012957  0.014748  0  3.89077  0
C  C124  1  0.30724418  0.50131870  0.51121957  1  -0.016243  0  -0.015864  -0.024865  0  3.983925  0
C  C125  1  0.68043488  0.51033979  0.50214374  1  -0.048451  0  -0.015386  -0.023998  0  3.98315  0
C  C126  1  0.36442765  0.42453958  0.54744716  1  -0.004499  0  -0.087925  -0.159516  0  3.955056  0
C  C127  1  0.43941954  0.42475845  0.54320376  1  0.012581  0  0.017445  0.10793  0  4.008851  0
C  C128  1  0.66373949  0.54655043  0.42539576  1  0.040214  0  -0.08761  -0.159414  0  3.954404  0
C  C129  1  0.59276462  0.54222176  0.42570501  1  0.024148  0  0.016825  0.10799  0  4.010135  0
C  C130  1  0.62451191  0.47210339  0.57944061  1  -0.019786  0  -0.082967  -0.090166  0  3.97482  0
C  C131  1  0.55240830  0.47097971  0.57931227  1  -0.033007  0  -0.086751  -0.116771  0  4.001188  0
C  C132  1  0.32412470  0.57858869  0.47309475  1  -0.00948  0  -0.082461  -0.090359  0  3.975408  0
C  C133  1  0.39749311  0.57836346  0.47204611  1  -0.013583  0  -0.087184  -0.116237  0  3.998104  0
C  C134  1  0.45742255  0.50184477  0.50594460  1  -0.008022  0  -0.008627  0.020805  0  3.978668  0
C  C135  1  0.53500360  0.50490385  0.50283828  1  0.059814  0  -0.008388  0.019774  0  3.982784  0
S  S136  1  0.22497130  0.06771442  0.90520309  1  3.042962  0  0.53998  1.156966  0  5.996774  0
S  S137  1  0.80263764  0.90412238  0.06823809  1  3.019185  0  0.54032  1.157626  0  5.997767  0
Cl  Cl138  1  0.50796535  0.58453353  0.08206924  1  -0.209786  0  -0.014145  -0.090739  0  1.452273  0
Cl  Cl139  1  0.58043222  0.32828081  0.01315200  1  -0.214244  0  -0.015781  -0.092364  0  1.451259  0
Cl  Cl140  1  0.07634452  0.01345888  0.32778188  1  -0.209438  0  -0.01608  -0.092646  0  1.451081  0
Cl  Cl141  1  0.82395310  0.08341998  0.58355416  1  -0.208614  0  -0.014375  -0.091038  0  1.452593  0
Cl  Cl142  1  0.50906543  0.08454388  0.33103460  1  -0.211335  0  -0.017489  -0.092468  0  1.453664  0
Cl  Cl143  1  0.57450538  0.00915968  0.58821734  1  -0.201606  0  -0.011626  -0.086482  0  1.454073  0
Cl  Cl144  1  0.82904331  0.58896610  0.00900743  1  -0.203784  0  -0.011339  -0.086246  0  1.453902  0
Cl  Cl145  1  0.07659290  0.33083431  0.08423058  1  -0.208374  0  -0.017482  -0.092642  0  1.454313  0
Cl  Cl146  1  0.51161418  0.32628855  0.58206687  1  -0.206612  0  -0.015134  -0.09134  0  1.451287  0
Cl  Cl147  1  0.58005140  0.58107074  0.32729629  1  -0.208259  0  -0.015022  -0.091425  0  1.451533  0
O  O148  1  0.79052466  0.44336593  0.70502779  1  -1.172937  0  -0.358175  -0.619007  0  2.281466  0
O  O149  1  0.06101190  0.70429515  0.44426995  1  -1.183304  0  -0.357982  -0.619135  0  2.281092  0
O  O150  1  0.20396642  0.56137609  0.29890039  1  -1.181636  0  -0.359037  -0.620555  0  2.277437  0
O  O151  1  0.93586409  0.29802200  0.56225677  1  -1.181419  0  -0.358544  -0.620223  0  2.277949  0
O  O152  1  0.05565172  0.29314931  0.70716137  1  -1.179474  0  -0.356115  -0.618081  0  2.290742  0
O  O153  1  0.79359756  0.56608753  0.43834203  1  -1.178668  0  -0.355878  -0.618163  0  2.269185  0
O  O154  1  0.94431639  0.70626449  0.29385640  1  -1.18695  0  -0.356398  -0.618611  0  2.290927  0
O  O155  1  0.20208639  0.43758575  0.56694477  1  -1.185073  0  -0.356157  -0.619326  0  2.270753  0
O  O156  1  0.93770784  0.56054913  0.70783540  1  -1.185268  0  -0.355649  -0.616966  0  2.276765  0
O  O157  1  0.20125292  0.29524251  0.44370438  1  -1.179572  0  -0.357665  -0.619725  0  2.276573  0
O  O158  1  0.06015852  0.44264651  0.29606226  1  -1.185213  0  -0.358306  -0.620658  0  2.27662  0
O  O159  1  0.79396179  0.70701956  0.56126433  1  -1.177851  0  -0.355666  -0.617214  0  2.277312  0
O  O160  1  0.19592672  0.28965654  0.56817594  1  -1.18359  0  -0.355267  -0.617913  0  2.27121  0
O  O161  1  0.94660610  0.56712154  0.29046928  1  -1.176147  0  -0.355326  -0.618685  0  2.270424  0
O  O162  1  0.79161055  0.70508548  0.44412583  1  -1.181292  0  -0.357363  -0.626763  0  2.269627  0
O  O163  1  0.05917891  0.44346668  0.70588859  1  -1.191809  0  -0.357416  -0.626382  0  2.270286  0
O  O164  1  0.93795489  0.29262695  0.70470283  1  -1.179366  0  -0.347512  -0.610651  0  2.272546  0
O  O165  1  0.19885447  0.56142465  0.45174909  1  -1.180758  0  -0.355108  -0.619719  0  2.280672  0
O  O166  1  0.06488664  0.70390720  0.29345648  1  -1.177072  0  -0.347519  -0.610712  0  2.273368  0
O  O167  1  0.78819632  0.45086731  0.56218212  1  -1.184236  0  -0.354678  -0.619281  0  2.281002  0
O  O168  1  0.05980343  0.29352492  0.44769737  1  -1.181152  0  -0.353885  -0.616455  0  2.280203  0
O  O169  1  0.78792990  0.56576273  0.70160792  1  -1.176185  0  -0.353569  -0.616745  0  2.273617  0
O  O170  1  0.94452247  0.70091190  0.56656678  1  -1.186957  0  -0.353171  -0.616735  0  2.273682  0
O  O171  1  0.19912004  0.44679187  0.29441984  1  -1.176551  0  -0.353651  -0.615804  0  2.279604  0
O  O172  1  0.94580675  0.45117165  0.44845632  1  -1.228546  0  -0.695082  -1.071408  0  2.360268  0
O  O173  1  0.15467773  0.44763569  0.45210636  1  -1.229756  0  -0.69538  -1.071958  0  2.36124  0
O  O174  1  0.94782811  0.65858722  0.44951536  1  -1.227502  0  -0.694698  -1.070746  0  2.360902  0
O  O175  1  0.94409777  0.44871107  0.65944662  1  -1.241897  0  -0.693777  -1.069154  0  2.360414  0
O  O176  1  0.03649474  0.53861422  0.54230909  1  -1.199811  0  -0.791447  -1.149222  0  2.129006  0
O  O177  1  0.88272440  0.54144340  0.53937488  1  -1.199928  0  -0.791677  -1.148855  0  2.128358  0
O  O178  1  0.03806862  0.54047324  0.38667305  1  -1.20118  0  -0.790793  -1.149471  0  2.124047  0
O  O179  1  0.03491804  0.38582325  0.54138774  1  -1.201281  0  -0.791231  -1.150338  0  2.127049  0
O  O180  1  0.17416294  0.16032813  0.91906847  1  -1.188047  0  -0.36245  -0.532752  0  2.116625  0
O  O181  1  0.27677573  0.01767062  0.95946212  1  -1.273244  0  -0.30275  -0.502351  0  2.103173  0
O  O182  1  0.26202482  0.08290850  0.81383756  1  -1.295232  0  -0.313058  -0.539745  0  2.127263  0
O  O183  1  0.74678904  0.91800530  0.16083893  1  -1.18446  0  -0.363267  -0.534598  0  2.115233  0
O  O184  1  0.74671774  0.95829786  0.01808596  1  -1.263827  0  -0.303038  -0.502671  0  2.103828  0
O  O185  1  0.84185617  0.81275885  0.08344807  1  -1.280281  0  -0.312869  -0.53973  0  2.128839  0
