# generated using pymatgen
data_NdH15C12S2O15
_symmetry_space_group_name_H-M   'P 1'
_cell_length_a   6.97278301
_cell_length_b   10.82081746
_cell_length_c   12.23965553
_cell_angle_alpha   83.97477417
_cell_angle_beta   77.11197584
_cell_angle_gamma   89.40780008
_symmetry_Int_Tables_number   1
_chemical_formula_structural   NdH15C12S2O15
_chemical_formula_sum   'Nd2 H30 C24 S4 O30'
_cell_volume   895.17742730
_cell_formula_units_Z   2
loop_
 _symmetry_equiv_pos_site_id
 _symmetry_equiv_pos_as_xyz
  1  'x, y, z'
loop_
 _atom_site_type_symbol
 _atom_site_label
 _atom_site_symmetry_multiplicity
 _atom_site_fract_x
 _atom_site_fract_y
 _atom_site_fract_z
 _atom_site_occupancy
 _atom_site_hle17_bader_spin_density
 _atom_site_hle17_ddec_charge
 _atom_site_hle17_ddec_spin_density
 _atom_site_hle17_ddec_sum_bond_order
 _atom_site_hle17_magmom
 _atom_site_hse06_10hf_bader_spin_density
 _atom_site_hse06_10hf_ddec_charge
 _atom_site_hse06_10hf_ddec_spin_density
 _atom_site_hse06_10hf_ddec_sum_bond_order
 _atom_site_hse06_10hf_magmom
 _atom_site_hse06_bader_spin_density
 _atom_site_hse06_ddec_charge
 _atom_site_hse06_ddec_spin_density
 _atom_site_hse06_ddec_sum_bond_order
 _atom_site_hse06_magmom
 _atom_site_pbe_bader_spin_density
 _atom_site_pbe_cm5_charge
 _atom_site_pbe_ddec_charge
 _atom_site_pbe_ddec_spin_density
 _atom_site_pbe_ddec_sum_bond_order
 _atom_site_pbe_magmom
Nd  Nd0  1  0.21102586  0.59796953  0.21343005  1  0  2.392595  0  1.519795  0  0  2.294564  0  1.874191  0  0  2.329141  0  1.833321  0  0  1.49388  2.269181  0  1.903237  0
Nd  Nd1  1  0.78897409  0.40202814  0.78657197  1  0  2.392658  0  1.519715  0  0  2.294628  0  1.874092  0  0  2.329203  0  1.833223  0  0  1.493898  2.269243  0  1.903143  0
H  H2  1  0.96435822  0.22228459  0.26610569  1  0  0.421032  0  0.84794  0  0  0.389917  0  0.926091  0  0  0.401651  0  0.912888  0  0  0.317313  0.381599  0  0.935512  0
H  H3  1  0.03564174  0.77771494  0.73389207  1  0  0.42119  0  0.847739  0  0  0.390037  0  0.925953  0  0  0.401774  0  0.91274  0  0  0.31737  0.381719  0  0.93538  0
H  H4  1  0.77580319  0.58659219  0.16569505  1  0  0.44745  0  0.846941  0  0  0.418476  0  0.90693  0  0  0.429123  0  0.891203  0  0  0.303211  0.410914  0  0.918148  0
H  H5  1  0.22420134  0.41341104  0.83430749  1  0  0.447424  0  0.846965  0  0  0.418459  0  0.90694  0  0  0.429105  0  0.891214  0  0  0.303222  0.410893  0  0.918166  0
H  H6  1  0.86572840  0.44895528  0.16901034  1  0  0.438907  0  0.855165  0  0  0.409422  0  0.915493  0  0  0.419597  0  0.900471  0  0  0.304137  0.402146  0  0.926235  0
H  H7  1  0.13427463  0.55104796  0.83098995  1  0  0.438921  0  0.855149  0  0  0.409426  0  0.915498  0  0  0.419601  0  0.900476  0  0  0.304131  0.402145  0  0.92625  0
H  H8  1  0.35405378  0.35369298  0.09596399  1  0  0.440789  0  0.856322  0  0  0.410085  0  0.919209  0  0  0.42005  0  0.904595  0  0  0.307203  0.402997  0  0.929662  0
H  H9  1  0.64594775  0.64630933  0.90403658  1  0  0.440791  0  0.85633  0  0  0.410065  0  0.91926  0  0  0.420034  0  0.90464  0  0  0.307184  0.402975  0  0.929716  0
H  H10  1  0.26136009  0.43994389  0.01082258  1  0  0.449801  0  0.816638  0  0  0.423747  0  0.882112  0  0  0.433153  0  0.867949  0  0  0.323228  0.41704  0  0.892245  0
H  H11  1  0.73863711  0.56006028  0.98918083  1  0  0.449945  0  0.816744  0  0  0.423893  0  0.881957  0  0  0.433299  0  0.867795  0  0  0.323289  0.417185  0  0.89209  0
H  H12  1  0.86794315  0.44327169  0.39318975  1  0  0.454239  0  0.837519  0  0  0.421965  0  0.901854  0  0  0.43252  0  0.886432  0  0  0.305972  0.414533  0  0.912702  0
H  H13  1  0.13205971  0.55672597  0.60680944  1  0  0.454248  0  0.837498  0  0  0.421976  0  0.901829  0  0  0.432531  0  0.886408  0  0  0.305992  0.414547  0  0.912673  0
H  H14  1  0.06602209  0.43771642  0.43575091  1  0  0.452274  0  0.801655  0  0  0.430613  0  0.861852  0  0  0.439462  0  0.850327  0  0  0.330071  0.424296  0  0.869635  0
H  H15  1  0.93397659  0.56228776  0.56425395  1  0  0.452257  0  0.801701  0  0  0.430599  0  0.861887  0  0  0.439447  0  0.850347  0  0  0.330084  0.424282  0  0.869674  0
H  H16  1  0.43453996  0.35133101  0.24527290  1  0  0.429508  0  0.872785  0  0  0.401417  0  0.932658  0  0  0.410896  0  0.918659  0  0  0.303412  0.39472  0  0.942571  0
H  H17  1  0.56546600  0.64867223  0.75472619  1  0  0.429501  0  0.872786  0  0  0.401417  0  0.932649  0  0  0.410897  0  0.918648  0  0  0.303426  0.394724  0  0.942557  0
H  H18  1  0.48910748  0.42219930  0.33931607  1  0  0.450178  0  0.842457  0  0  0.419029  0  0.905538  0  0  0.429433  0  0.890238  0  0  0.305466  0.411749  0  0.916213  0
H  H19  1  0.51089988  0.57780114  0.66068310  1  0  0.450133  0  0.842487  0  0  0.418993  0  0.905555  0  0  0.429394  0  0.89026  0  0  0.305445  0.411717  0  0.916226  0
H  H20  1  0.83738045  0.72870992  0.32859319  1  0  0.448006  0  0.845664  0  0  0.418999  0  0.905063  0  0  0.428977  0  0.890547  0  0  0.303074  0.411901  0  0.915413  0
H  H21  1  0.16261807  0.27128961  0.67140802  1  0  0.448058  0  0.845591  0  0  0.419051  0  0.904988  0  0  0.42903  0  0.890473  0  0  0.303086  0.411947  0  0.915347  0
H  H22  1  0.97705906  0.84551775  0.27231378  1  0  0.44972  0  0.841397  0  0  0.422593  0  0.897991  0  0  0.432774  0  0.883126  0  0  0.303985  0.415278  0  0.908671  0
H  H23  1  0.02293806  0.15448364  0.72768990  1  0  0.449756  0  0.841364  0  0  0.422637  0  0.897945  0  0  0.432818  0  0.883081  0  0  0.303991  0.41532  0  0.908625  0
H  H24  1  0.09704407  0.25178922  0.98464150  1  0  0.11201  0  0.971189  0  0  0.118168  0  1.039577  0  0  0.122253  0  1.035752  0  0  0.115135  0.114963  0  1.042945  0
H  H25  1  0.90295894  0.74821402  0.01535715  1  0  0.112032  0  0.971172  0  0  0.118186  0  1.039559  0  0  0.122272  0  1.035733  0  0  0.115161  0.114984  0  1.042924  0
H  H26  1  0.50425541  0.97791193  0.84831888  1  0  0.12436  0  0.945465  0  0  0.13059  0  1.009843  0  0  0.134114  0  1.007876  0  0  0.113199  0.128024  0  1.01129  0
H  H27  1  0.49573872  0.02208761  0.15168536  1  0  0.124393  0  0.945409  0  0  0.13056  0  1.009862  0  0  0.134081  0  1.007901  0  0  0.113189  0.127999  0  1.0113  0
H  H28  1  0.31587093  0.21194913  0.42228436  1  0  0.115971  0  0.967631  0  0  0.121651  0  1.036273  0  0  0.125959  0  1.03216  0  0  0.112783  0.118389  0  1.039527  0
H  H29  1  0.68412315  0.78804948  0.57771752  1  0  0.11594  0  0.9677  0  0  0.121616  0  1.036346  0  0  0.125924  0  1.032235  0  0  0.112742  0.118358  0  1.039609  0
H  H30  1  0.17267004  0.84096609  0.37076866  1  0  0.109543  0  1.001552  0  0  0.114525  0  1.07135  0  0  0.11925  0  1.066838  0  0  0.118331  0.111039  0  1.07477  0
H  H31  1  0.82732987  0.15903251  0.62922674  1  0  0.109577  0  1.00159  0  0  0.114572  0  1.071363  0  0  0.119298  0  1.066851  0  0  0.11835  0.111084  0  1.074781  0
C  C32  1  0.12785237  0.15551914  0.97012452  1  0  -0.06655  0  3.632108  0  0  -0.104741  0  3.884785  0  0  -0.10083  0  3.898685  0  0  -0.060715  -0.107602  0  3.876276  0
C  C33  1  0.87214470  0.84448226  0.02987427  1  0  -0.066538  0  3.632001  0  0  -0.10472  0  3.884669  0  0  -0.100812  0  3.898572  0  0  -0.060733  -0.107589  0  3.876168  0
C  C34  1  0.31241458  0.12507364  0.91172951  1  0  -0.035421  0  3.725665  0  0  -0.009616  0  3.959875  0  0  -0.018095  0  3.980801  0  0  -0.007306  -0.004139  0  3.946022  0
C  C35  1  0.68757954  0.87492683  0.08827137  1  0  -0.035471  0  3.725716  0  0  -0.009636  0  3.959865  0  0  -0.018115  0  3.98079  0  0  -0.007277  -0.004154  0  3.946017  0
C  C36  1  0.35719327  0.00037444  0.89283708  1  0  -0.037894  0  3.688865  0  0  -0.078749  0  3.942126  0  0  -0.075095  0  3.95974  0  0  -0.067066  -0.080865  0  3.930323  0
C  C37  1  0.64280236  0.99962789  0.10716262  1  0  -0.037941  0  3.688999  0  0  -0.078737  0  3.942289  0  0  -0.075083  0  3.959905  0  0  -0.067059  -0.080856  0  3.930485  0
C  C38  1  0.21520542  0.90916490  0.93072006  1  0  -0.15234  0  3.695761  0  0  -0.133776  0  3.953218  0  0  -0.141517  0  3.973544  0  0  -0.006477  -0.128749  0  3.939642  0
C  C39  1  0.78478871  0.09083744  0.06927739  1  0  -0.152312  0  3.695773  0  0  -0.133794  0  3.953274  0  0  -0.141535  0  3.973602  0  0  -0.006496  -0.128761  0  3.939682  0
C  C40  1  0.02109494  0.93641469  0.98988478  1  0  0.082145  0  3.705222  0  0  0.088003  0  3.939383  0  0  0.088979  0  3.961234  0  0  0.014992  0.087446  0  3.924589  0
C  C41  1  0.97889917  0.06358672  0.01011275  1  0  0.082179  0  3.705182  0  0  0.088069  0  3.939338  0  0  0.089045  0  3.961189  0  0  0.015007  0.087516  0  3.924534  0
C  C42  1  0.46842778  0.22196730  0.86714364  1  0  0.644799  0  3.922406  0  0  0.594347  0  4.220874  0  0  0.628551  0  4.212442  0  0  0.19886  0.571329  0  4.22567  0
C  C43  1  0.53156920  0.77803038  0.13285632  1  0  0.644956  0  3.922381  0  0  0.594487  0  4.220848  0  0  0.628691  0  4.212411  0  0  0.198888  0.571461  0  4.225658  0
C  C44  1  0.33964172  0.11249418  0.43415803  1  0  -0.065092  0  3.621966  0  0  -0.106628  0  3.878921  0  0  -0.102502  0  3.892991  0  0  -0.065  -0.109224  0  3.869705  0
C  C45  1  0.66035958  0.88749977  0.56584251  1  0  -0.065069  0  3.621805  0  0  -0.106597  0  3.878766  0  0  -0.102463  0  3.892833  0  0  -0.064966  -0.109205  0  3.869571  0
C  C46  1  0.22902264  0.03231593  0.39113295  1  0  -0.058947  0  3.749508  0  0  -0.035944  0  3.992132  0  0  -0.045071  0  4.014568  0  0  -0.010774  -0.029969  0  3.977148  0
C  C47  1  0.77098321  0.96768358  0.60886486  1  0  -0.058958  0  3.749606  0  0  -0.035924  0  3.992244  0  0  -0.045063  0  4.014676  0  0  -0.010757  -0.029938  0  3.977261  0
C  C48  1  0.25939908  0.90302942  0.40516799  1  0  -0.049968  0  3.740625  0  0  -0.091735  0  3.994356  0  0  -0.08857  0  4.01254  0  0  -0.072371  -0.093442  0  3.982151  0
C  C49  1  0.74060076  0.09696640  0.59482849  1  0  -0.049892  0  3.740645  0  0  -0.091683  0  3.994388  0  0  -0.08851  0  4.012571  0  0  -0.072289  -0.093392  0  3.982174  0
C  C50  1  0.40098698  0.85517110  0.45896145  1  0  -0.158537  0  3.677006  0  0  -0.136779  0  3.926841  0  0  -0.144923  0  3.948495  0  0  -0.012135  -0.131707  0  3.912754  0
C  C51  1  0.59900562  0.14482845  0.54103726  1  0  -0.158496  0  3.676977  0  0  -0.136764  0  3.926854  0  0  -0.144915  0  3.948513  0  0  -0.01219  -0.131688  0  3.912762  0
C  C52  1  0.51711003  0.93388782  0.50658938  1  0  0.076445  0  3.701552  0  0  0.083672  0  3.934581  0  0  0.084317  0  3.957414  0  0  0.010549  0.083121  0  3.919645  0
C  C53  1  0.48288842  0.06611078  0.49340784  1  0  0.076348  0  3.701656  0  0  0.083616  0  3.934657  0  0  0.084267  0  3.957489  0  0  0.010547  0.083062  0  3.919713  0
C  C54  1  0.07962593  0.07644317  0.32616568  1  0  0.659527  0  3.794187  0  0  0.608464  0  4.09229  0  0  0.640986  0  4.08498  0  0  0.238294  0.586209  0  4.097025  0
C  C55  1  0.92034856  0.92354156  0.67383185  1  0  0.659414  0  3.793873  0  0  0.608282  0  4.092066  0  0  0.64081  0  4.084757  0  0  0.238108  0.586008  0  4.096814  0
S  S56  1  0.28225118  0.75475659  0.90317600  1  0  1.362593  0  5.547536  0  0  1.257035  0  6.065156  0  0  1.304923  0  6.041331  0  0  0.552864  1.223795  0  6.080882  0
S  S57  1  0.71774592  0.24524574  0.09682351  1  0  1.362523  0  5.547475  0  0  1.256973  0  6.065114  0  0  1.30486  0  6.041288  0  0  0.552844  1.223744  0  6.08082  0
S  S58  1  0.43284315  0.69043020  0.46314184  1  0  1.355599  0  5.57597  0  0  1.249947  0  6.096648  0  0  1.297865  0  6.073442  0  0  0.544628  1.217019  0  6.111629  0
S  S59  1  0.56715682  0.30956933  0.53685755  1  0  1.355591  0  5.576009  0  0  1.249921  0  6.096713  0  0  1.297842  0  6.073504  0  0  0.544615  1.216985  0  6.111708  0
O  O60  1  0.64316157  0.18773557  0.82966620  1  0  -0.67494  0  2.010083  0  0  -0.631196  0  2.252651  0  0  -0.656288  0  2.247209  0  0  -0.368394  -0.61359  0  2.255742  0
O  O61  1  0.35683984  0.81226116  0.17033816  1  0  -0.675  0  2.010085  0  0  -0.63127  0  2.252707  0  0  -0.656362  0  2.24726  0  0  -0.368432  -0.613663  0  2.255805  0
O  O62  1  0.42664729  0.33844771  0.86743930  1  0  -0.747104  0  2.039372  0  0  -0.693307  0  2.277143  0  0  -0.717282  0  2.264261  0  0  -0.367835  -0.676779  0  2.285901  0
O  O63  1  0.57335410  0.66154996  0.13256008  1  0  -0.747211  0  2.039412  0  0  -0.693404  0  2.2772  0  0  -0.717379  0  2.264316  0  0  -0.367846  -0.676865  0  2.285948  0
O  O64  1  0.23091254  0.67417914  0.00995377  1  0  -0.766823  0  2.09755  0  0  -0.717965  0  2.37625  0  0  -0.739139  0  2.360888  0  0  -0.388141  -0.70281  0  2.386564  0
O  O65  1  0.76909040  0.32582132  0.99004515  1  0  -0.766837  0  2.097641  0  0  -0.717984  0  2.376351  0  0  -0.739159  0  2.36099  0  0  -0.388154  -0.702839  0  2.386659  0
O  O66  1  0.16959901  0.71678073  0.82324038  1  0  -0.677388  0  2.028015  0  0  -0.613388  0  2.269302  0  0  -0.635616  0  2.254107  0  0  -0.31803  -0.597359  0  2.279418  0
O  O67  1  0.83040531  0.28321693  0.17675780  1  0  -0.677309  0  2.027982  0  0  -0.613324  0  2.269258  0  0  -0.63555  0  2.254062  0  0  -0.317999  -0.597306  0  2.279369  0
O  O68  1  0.49607737  0.75978225  0.85462136  1  0  -0.670894  0  2.001148  0  0  -0.606884  0  2.235925  0  0  -0.62936  0  2.223213  0  0  -0.317473  -0.591044  0  2.244398  0
O  O69  1  0.50391833  0.24022287  0.14537726  1  0  -0.670901  0  2.001111  0  0  -0.606874  0  2.235854  0  0  -0.629351  0  2.223158  0  0  -0.317494  -0.591045  0  2.244312  0
O  O70  1  0.06088966  0.19938327  0.31462909  1  0  -0.529032  0  2.083457  0  0  -0.477501  0  2.300597  0  0  -0.498903  0  2.286426  0  0  -0.316672  -0.462656  0  2.310232  0
O  O71  1  0.93911187  0.80061904  0.68537148  1  0  -0.529035  0  2.0838  0  0  -0.477405  0  2.300941  0  0  -0.498804  0  2.286761  0  0  -0.316572  -0.462564  0  2.310597  0
O  O72  1  0.98217366  0.00559630  0.28596887  1  0  -0.556567  0  1.954635  0  0  -0.510016  0  2.166166  0  0  -0.53177  0  2.160344  0  0  -0.278035  -0.49495  0  2.170157  0
O  O73  1  0.01783400  0.99441250  0.71403685  1  0  -0.556734  0  1.953643  0  0  -0.510185  0  2.165189  0  0  -0.531953  0  2.159379  0  0  -0.278089  -0.495103  0  2.169181  0
O  O74  1  0.31758536  0.64897083  0.38674301  1  0  -0.75109  0  2.083621  0  0  -0.699642  0  2.359531  0  0  -0.72019  0  2.343976  0  0  -0.388269  -0.68522  0  2.369668  0
O  O75  1  0.68241751  0.35102683  0.61325699  1  0  -0.751122  0  2.083591  0  0  -0.699683  0  2.359531  0  0  -0.720232  0  2.343973  0  0  -0.388258  -0.685265  0  2.369679  0
O  O76  1  0.35035649  0.63822599  0.58078245  1  0  -0.674164  0  2.011971  0  0  -0.609549  0  2.249934  0  0  -0.632577  0  2.235906  0  0  -0.319964  -0.59322  0  2.258996  0
O  O77  1  0.64964496  0.36177354  0.41921757  1  0  -0.674182  0  2.011989  0  0  -0.609558  0  2.249953  0  0  -0.632585  0  2.23592  0  0  -0.319968  -0.593229  0  2.25902  0
O  O78  1  0.64385613  0.66808066  0.42919694  1  0  -0.652161  0  1.977077  0  0  -0.594079  0  2.217777  0  0  -0.61512  0  2.202693  0  0  -0.315936  -0.579192  0  2.227639  0
O  O79  1  0.35614691  0.33192258  0.57080416  1  0  -0.652139  0  1.97711  0  0  -0.59403  0  2.217799  0  0  -0.615071  0  2.202715  0  0  -0.315923  -0.579143  0  2.227663  0
O  O80  1  0.89730355  0.53803256  0.16650916  1  0  -0.913526  0  1.824396  0  0  -0.864918  0  2.010544  0  0  -0.882659  0  1.978041  0  0  -0.648422  -0.852175  0  2.033517  0
O  O81  1  0.10270098  0.46197068  0.83349338  1  0  -0.913555  0  1.82444  0  0  -0.864924  0  2.010529  0  0  -0.882666  0  1.978025  0  0  -0.648434  -0.852162  0  2.033501  0
O  O82  1  0.26660722  0.42541114  0.09000592  1  0  -0.896737  0  1.846892  0  0  -0.854638  0  2.044903  0  0  -0.870751  0  2.013058  0  0  -0.637683  -0.843123  0  2.06735  0
O  O83  1  0.73338987  0.57458932  0.90999703  1  0  -0.896909  0  1.847059  0  0  -0.85479  0  2.044854  0  0  -0.870907  0  2.013002  0  0  -0.637729  -0.843274  0  2.067311  0
O  O84  1  0.99862953  0.48406754  0.38311194  1  0  -0.921289  0  1.85724  0  0  -0.879503  0  2.056542  0  0  -0.896049  0  2.025721  0  0  -0.643555  -0.867708  0  2.077627  0
O  O85  1  0.00137469  0.51592734  0.61688405  1  0  -0.921253  0  1.857219  0  0  -0.879495  0  2.056565  0  0  -0.896022  0  2.025694  0  0  -0.643569  -0.8677  0  2.07765  0
O  O86  1  0.40310112  0.42630830  0.28472951  1  0  -0.930328  0  1.873219  0  0  -0.890119  0  2.072353  0  0  -0.907002  0  2.040212  0  0  -0.65806  -0.878183  0  2.094792  0
O  O87  1  0.59690777  0.57369400  0.71527010  1  0  -0.930288  0  1.873296  0  0  -0.890081  0  2.072405  0  0  -0.906967  0  2.040267  0  0  -0.658048  -0.878144  0  2.09484  0
O  O88  1  0.96167925  0.75426442  0.27395932  1  0  -0.93064  0  1.834549  0  0  -0.886521  0  2.020623  0  0  -0.904632  0  1.989976  0  0  -0.652249  -0.873941  0  2.04262  0
O  O89  1  0.03831629  0.24573419  0.72604155  1  0  -0.930743  0  1.834494  0  0  -0.886633  0  2.020556  0  0  -0.904747  0  1.989905  0  0  -0.652312  -0.874058  0  2.04256  0
