# generated using pymatgen
data_CuH8AuC6SN2
_symmetry_space_group_name_H-M   'P 1'
_cell_length_a   8.83052919
_cell_length_b   8.83052387
_cell_length_c   12.41165363
_cell_angle_alpha   103.49925092
_cell_angle_beta   103.49922564
_cell_angle_gamma   90.25959366
_symmetry_Int_Tables_number   1
_chemical_formula_structural   CuH8AuC6SN2
_chemical_formula_sum   'Cu4 H32 Au4 C24 S4 N8'
_cell_volume   913.31556057
_cell_formula_units_Z   4
loop_
 _symmetry_equiv_pos_site_id
 _symmetry_equiv_pos_as_xyz
  1  'x, y, z'
loop_
 _atom_site_type_symbol
 _atom_site_label
 _atom_site_symmetry_multiplicity
 _atom_site_fract_x
 _atom_site_fract_y
 _atom_site_fract_z
 _atom_site_occupancy
 _atom_site_hle17_bader_spin_density
 _atom_site_hle17_ddec_charge
 _atom_site_hle17_ddec_spin_density
 _atom_site_hle17_ddec_sum_bond_order
 _atom_site_hle17_magmom
 _atom_site_hse06_10hf_bader_spin_density
 _atom_site_hse06_10hf_ddec_charge
 _atom_site_hse06_10hf_ddec_spin_density
 _atom_site_hse06_10hf_ddec_sum_bond_order
 _atom_site_hse06_10hf_magmom
 _atom_site_hse06_bader_spin_density
 _atom_site_hse06_ddec_charge
 _atom_site_hse06_ddec_spin_density
 _atom_site_hse06_ddec_sum_bond_order
 _atom_site_hse06_magmom
 _atom_site_pbe_bader_spin_density
 _atom_site_pbe_cm5_charge
 _atom_site_pbe_ddec_charge
 _atom_site_pbe_ddec_spin_density
 _atom_site_pbe_ddec_sum_bond_order
 _atom_site_pbe_magmom
Cu  Cu0  1  0.35864685  0.53775381  0.64291191  1  0  0.380298  0  2.286653  0  0  0.302996  0  2.786005  0  0  0.29024  0  2.749721  0  0  0.519343  0.315041  0  2.808038  0
Cu  Cu1  1  0.53775453  0.35864772  0.14291097  1  0  0.380256  0  2.286663  0  0  0.302959  0  2.786027  0  0  0.290196  0  2.749734  0  0  0.51934  0.314991  0  2.808075  0
Cu  Cu2  1  0.46372879  0.75963577  0.38112066  1  0  0.378652  0  2.260616  0  0  0.297345  0  2.7616  0  0  0.284682  0  2.724533  0  0  0.510693  0.309428  0  2.78396  0
Cu  Cu3  1  0.75963476  0.46372894  0.88112086  1  0  0.378611  0  2.260631  0  0  0.297308  0  2.761589  0  0  0.284624  0  2.724529  0  0  0.510698  0.309392  0  2.783954  0
H  H4  1  0.73928515  0.27060704  0.62984176  1  0  0.085138  0  0.975106  0  0  0.095179  0  1.048463  0  0  0.095567  0  1.049611  0  0  0.085308  0.094898  0  1.047725  0
H  H5  1  0.27060620  0.73928650  0.12984070  1  0  0.085124  0  0.975113  0  0  0.095157  0  1.04849  0  0  0.095545  0  1.049637  0  0  0.085299  0.094875  0  1.047753  0
H  H6  1  0.54820700  0.27760701  0.54200688  1  0  0.105813  0  0.921058  0  0  0.125848  0  0.969561  0  0  0.126667  0  0.970734  0  0  0.103789  0.125228  0  0.968809  0
H  H7  1  0.27760670  0.54820613  0.04200633  1  0  0.105801  0  0.921047  0  0  0.125848  0  0.969544  0  0  0.126665  0  0.970721  0  0  0.103791  0.125229  0  0.968793  0
H  H8  1  0.79891455  0.34645052  0.46847813  1  0  0.074338  0  0.963305  0  0  0.088972  0  1.032877  0  0  0.088741  0  1.034143  0  0  0.084931  0.089114  0  1.032011  0
H  H9  1  0.34645077  0.79891450  0.96847699  1  0  0.074322  0  0.963328  0  0  0.088961  0  1.032895  0  0  0.08873  0  1.03416  0  0  0.084921  0.089105  0  1.032026  0
H  H10  1  0.64309964  0.47198280  0.45647578  1  0  0.067805  0  0.942219  0  0  0.082224  0  1.011575  0  0  0.084405  0  1.009599  0  0  0.084086  0.080473  0  1.013187  0
H  H11  1  0.47198324  0.64310011  0.95647634  1  0  0.067807  0  0.942224  0  0  0.082227  0  1.011575  0  0  0.084409  0  1.009598  0  0  0.084085  0.080476  0  1.013187  0
H  H12  1  0.87977578  0.64407907  0.55789702  1  0  0.079935  0  0.952592  0  0  0.100461  0  1.010198  0  0  0.099735  0  1.012865  0  0  0.094569  0.100973  0  1.008341  0
H  H13  1  0.64407882  0.87977647  0.05789673  1  0  0.07991  0  0.952613  0  0  0.100437  0  1.010219  0  0  0.099711  0  1.012886  0  0  0.094559  0.100949  0  1.008364  0
H  H14  1  0.93705701  0.52239777  0.65422753  1  0  0.086474  0  0.920609  0  0  0.10574  0  0.973781  0  0  0.105818  0  0.975958  0  0  0.094064  0.105661  0  0.972325  0
H  H15  1  0.52239725  0.93705638  0.15422700  1  0  0.086449  0  0.9206  0  0  0.10572  0  0.973772  0  0  0.105798  0  0.97595  0  0  0.094058  0.105641  0  0.972317  0
H  H16  1  0.65538037  0.72587174  0.63152158  1  0  0.086163  0  0.965416  0  0  0.096884  0  1.036299  0  0  0.09821  0  1.036138  0  0  0.090805  0.095872  0  1.036517  0
H  H17  1  0.72587196  0.65538056  0.13152206  1  0  0.086171  0  0.965392  0  0  0.096892  0  1.036272  0  0  0.098219  0  1.036109  0  0  0.09081  0.09588  0  1.03649  0
H  H18  1  0.80125498  0.72383049  0.75897680  1  0  0.0927  0  0.962782  0  0  0.105781  0  1.029575  0  0  0.105976  0  1.030931  0  0  0.093351  0.105618  0  1.028681  0
H  H19  1  0.72383017  0.80125601  0.25897735  1  0  0.092687  0  0.962786  0  0  0.105768  0  1.029574  0  0  0.105964  0  1.030929  0  0  0.093348  0.105606  0  1.028681  0
H  H20  1  0.09546586  0.68676965  0.52144946  1  0  0.086065  0  0.984602  0  0  0.098757  0  1.051708  0  0  0.09921  0  1.053091  0  0  0.090643  0.098405  0  1.050819  0
H  H21  1  0.68676904  0.09546579  0.02144971  1  0  0.086066  0  0.984599  0  0  0.098742  0  1.051714  0  0  0.099194  0  1.053098  0  0  0.090638  0.098391  0  1.050825  0
H  H22  1  0.13763892  0.79383604  0.42594453  1  0  0.082972  0  0.995087  0  0  0.095199  0  1.064739  0  0  0.095314  0  1.066163  0  0  0.084003  0.095106  0  1.063799  0
H  H23  1  0.79383723  0.13763922  0.92594590  1  0  0.082958  0  0.995118  0  0  0.095178  0  1.06478  0  0  0.095295  0  1.066204  0  0  0.083999  0.095089  0  1.063835  0
H  H24  1  0.93286200  0.62058815  0.29331895  1  0  0.077714  0  0.936917  0  0  0.10088  0  0.989649  0  0  0.100851  0  0.991111  0  0  0.094289  0.100835  0  0.988689  0
H  H25  1  0.62058866  0.93286153  0.79331937  1  0  0.077711  0  0.936911  0  0  0.100878  0  0.989645  0  0  0.100852  0  0.991106  0  0  0.094297  0.100832  0  0.988685  0
H  H26  1  0.96623931  0.47494282  0.37123838  1  0  0.073144  0  0.946501  0  0  0.092419  0  1.004669  0  0  0.092226  0  1.00697  0  0  0.089144  0.092492  0  1.003148  0
H  H27  1  0.47494285  0.96623696  0.87123843  1  0  0.073146  0  0.946467  0  0  0.09242  0  1.004645  0  0  0.092229  0  1.006947  0  0  0.089149  0.092495  0  1.003122  0
H  H28  1  0.16512594  0.55271346  0.21709823  1  0  0.071518  0  0.945744  0  0  0.091658  0  1.003745  0  0  0.092081  0  1.005016  0  0  0.088595  0.091252  0  1.002966  0
H  H29  1  0.55271234  0.16512540  0.71709829  1  0  0.071526  0  0.945772  0  0  0.091701  0  1.003724  0  0  0.092123  0  1.004996  0  0  0.088604  0.091293  0  1.002947  0
H  H30  1  0.06416542  0.37163509  0.20128122  1  0  0.077951  0  0.946602  0  0  0.094253  0  1.01091  0  0  0.094291  0  1.011752  0  0  0.087721  0.094215  0  1.010314  0
H  H31  1  0.37163573  0.06416479  0.70128237  1  0  0.077967  0  0.946625  0  0  0.09427  0  1.010928  0  0  0.094306  0  1.011771  0  0  0.087736  0.094233  0  1.010331  0
H  H32  1  0.36486919  0.39347595  0.30724699  1  0  0.090522  0  0.967936  0  0  0.101627  0  1.039145  0  0  0.104429  0  1.037024  0  0  0.091605  0.099497  0  1.040792  0
H  H33  1  0.39347502  0.36486917  0.80724641  1  0  0.090535  0  0.967958  0  0  0.101642  0  1.039153  0  0  0.104442  0  1.037034  0  0  0.09161  0.099511  0  1.040797  0
H  H34  1  0.23342935  0.33628673  0.38282067  1  0  0.089351  0  0.965507  0  0  0.10276  0  1.031856  0  0  0.102902  0  1.033657  0  0  0.085603  0.10266  0  1.030628  0
H  H35  1  0.33628707  0.23342858  0.88282097  1  0  0.08935  0  0.965521  0  0  0.10276  0  1.031858  0  0  0.102901  0  1.033661  0  0  0.085598  0.10266  0  1.030629  0
Au  Au36  1  0.96608671  0.07893348  0.53427889  1  0  0.078656  0  2.594234  0  0  0.029852  0  3.108644  0  0  0.03912  0  3.070286  0  0  0.285184  0.023841  0  3.135108  0
Au  Au37  1  0.07893244  0.96608685  0.03427926  1  0  0.078708  0  2.594259  0  0  0.029915  0  3.108667  0  0  0.039185  0  3.070309  0  0  0.28521  0.023906  0  3.135135  0
Au  Au38  1  0.00568000  0.07827803  0.28246739  1  0  0.080959  0  2.572273  0  0  0.029946  0  3.084819  0  0  0.040459  0  3.045127  0  0  0.283737  0.022994  0  3.112208  0
Au  Au39  1  0.07827811  0.00567870  0.78246676  1  0  0.08095  0  2.572267  0  0  0.029947  0  3.084799  0  0  0.040458  0  3.045108  0  0  0.283739  0.022995  0  3.112184  0
C  C40  1  0.13661038  0.24288392  0.57514355  1  0  0.0625  0  3.586124  0  0  0.067319  0  3.926715  0  0  0.070573  0  3.934788  0  0  -0.002628  0.0649  0  3.921745  0
C  C41  1  0.24288385  0.13660843  0.07514282  1  0  0.062464  0  3.586152  0  0  0.067274  0  3.926748  0  0  0.070528  0  3.934822  0  0  -0.002669  0.064854  0  3.921784  0
C  C42  1  0.78371241  0.92927304  0.49055965  1  0  0.057933  0  3.594018  0  0  0.062937  0  3.934628  0  0  0.066916  0  3.940689  0  0  -0.006998  0.059981  0  3.931074  0
C  C43  1  0.92926826  0.78371468  0.99055960  1  0  0.057795  0  3.594046  0  0  0.062788  0  3.934675  0  0  0.066766  0  3.940731  0  0  -0.007065  0.059831  0  3.931124  0
C  C44  1  0.20191020  0.97367959  0.31766986  1  0  0.049536  0  3.61174  0  0  0.055246  0  3.95195  0  0  0.058492  0  3.958703  0  0  -0.010608  0.052782  0  3.947984  0
C  C45  1  0.97367772  0.20190877  0.81766800  1  0  0.049547  0  3.611723  0  0  0.05526  0  3.951919  0  0  0.058505  0  3.958673  0  0  -0.010591  0.052796  0  3.947954  0
C  C46  1  0.81663413  0.19147198  0.24577525  1  0  0.060532  0  3.610198  0  0  0.064171  0  3.958397  0  0  0.068379  0  3.963681  0  0  -0.001272  0.061095  0  3.955464  0
C  C47  1  0.19147186  0.81663387  0.74577483  1  0  0.060564  0  3.610202  0  0  0.064201  0  3.958405  0  0  0.068411  0  3.963689  0  0  -0.001294  0.061125  0  3.955468  0
C  C48  1  0.65768529  0.34549841  0.58889182  1  0  -0.132155  0  3.571755  0  0  -0.16904  0  3.833264  0  0  -0.170422  0  3.84507  0  0  -0.14945  -0.167915  0  3.824947  0
C  C49  1  0.34549784  0.65768517  0.08889135  1  0  -0.132121  0  3.571774  0  0  -0.169026  0  3.833318  0  0  -0.170409  0  3.845124  0  0  -0.14946  -0.167902  0  3.825004  0
C  C50  1  0.73273923  0.42854227  0.51780725  1  0  -0.097962  0  3.679381  0  0  -0.133141  0  3.927252  0  0  -0.134739  0  3.943681  0  0  -0.168017  -0.13179  0  3.915816  0
C  C51  1  0.42854182  0.73273908  0.01780680  1  0  -0.097986  0  3.679411  0  0  -0.133157  0  3.927282  0  0  -0.134755  0  3.943713  0  0  -0.16802  -0.13181  0  3.915844  0
C  C52  1  0.83615077  0.56508489  0.60168236  1  0  -0.105496  0  3.672421  0  0  -0.140608  0  3.91879  0  0  -0.142841  0  3.936653  0  0  -0.168123  -0.138915  0  3.906279  0
C  C53  1  0.56508603  0.83615098  0.10168143  1  0  -0.10543  0  3.672392  0  0  -0.140541  0  3.918741  0  0  -0.142783  0  3.936619  0  0  -0.168088  -0.138847  0  3.90623  0
C  C54  1  0.73490392  0.65330523  0.67636249  1  0  -0.128493  0  3.581428  0  0  -0.164812  0  3.839763  0  0  -0.166416  0  3.852404  0  0  -0.148438  -0.163586  0  3.831131  0
C  C55  1  0.65330556  0.73490551  0.17636244  1  0  -0.128454  0  3.581374  0  0  -0.164777  0  3.83973  0  0  -0.166379  0  3.852369  0  0  -0.14843  -0.163551  0  3.831097  0
C  C56  1  0.12963536  0.67726316  0.44110252  1  0  -0.132662  0  3.560806  0  0  -0.169072  0  3.812973  0  0  -0.170323  0  3.825483  0  0  -0.154988  -0.168135  0  3.804453  0
C  C57  1  0.67726239  0.12963456  0.94110339  1  0  -0.132677  0  3.560805  0  0  -0.16906  0  3.812974  0  0  -0.170315  0  3.825492  0  0  -0.154994  -0.168126  0  3.804451  0
C  C58  1  0.02440083  0.56018197  0.34008241  1  0  -0.090734  0  3.654115  0  0  -0.124581  0  3.898881  0  0  -0.126278  0  3.91562  0  0  -0.163239  -0.123236  0  3.887209  0
C  C59  1  0.56018205  0.02440052  0.84008271  1  0  -0.090704  0  3.654098  0  0  -0.124571  0  3.898895  0  0  -0.126262  0  3.915619  0  0  -0.163233  -0.123226  0  3.887224  0
C  C60  1  0.12630684  0.47499676  0.26409469  1  0  -0.10494  0  3.692262  0  0  -0.142187  0  3.94311  0  0  -0.143747  0  3.960026  0  0  -0.16812  -0.140927  0  3.931311  0
C  C61  1  0.47499604  0.12630539  0.76409548  1  0  -0.104953  0  3.692386  0  0  -0.142212  0  3.943213  0  0  -0.14377  0  3.960129  0  0  -0.168135  -0.140954  0  3.931413  0
C  C62  1  0.26621693  0.42870804  0.34513598  1  0  -0.138506  0  3.606524  0  0  -0.173416  0  3.864074  0  0  -0.176467  0  3.878339  0  0  -0.153551  -0.171166  0  3.854356  0
C  C63  1  0.42870603  0.26621483  0.84513405  1  0  -0.13854  0  3.606538  0  0  -0.173512  0  3.864224  0  0  -0.176557  0  3.87848  0  0  -0.153565  -0.171259  0  3.854501  0
S  S64  1  0.61533143  0.50143650  0.70373713  1  0  0.011112  0  2.964074  0  0  0.035913  0  3.46218  0  0  0.047759  0  3.432006  0  0  -0.050095  0.02666  0  3.482378  0
S  S65  1  0.50143543  0.61533394  0.20373781  1  0  0.011102  0  2.964078  0  0  0.035906  0  3.462195  0  0  0.04775  0  3.432022  0  0  -0.050086  0.026655  0  3.482394  0
S  S66  1  0.32765543  0.60563690  0.45934166  1  0  0.024103  0  2.857669  0  0  0.055832  0  3.321603  0  0  0.0656  0  3.295712  0  0  -0.033449  0.04801  0  3.339144  0
S  S67  1  0.60563765  0.32765607  0.95934145  1  0  0.024139  0  2.857644  0  0  0.05588  0  3.321567  0  0  0.065655  0  3.295668  0  0  -0.03345  0.048059  0  3.33911  0
N  N68  1  0.23159719  0.34607452  0.59846504  1  0  -0.394167  0  3.242032  0  0  -0.338047  0  3.557074  0  0  -0.345142  0  3.564465  0  0  -0.414171  -0.334294  0  3.55212  0
N  N69  1  0.34607560  0.23159661  0.09846392  1  0  -0.394151  0  3.242029  0  0  -0.33803  0  3.55708  0  0  -0.345122  0  3.564469  0  0  -0.414152  -0.334274  0  3.552133  0
N  N70  1  0.66834305  0.84868044  0.46175912  1  0  -0.396138  0  3.252183  0  0  -0.341321  0  3.571909  0  0  -0.346847  0  3.576153  0  0  -0.416512  -0.338645  0  3.568942  0
N  N71  1  0.84867966  0.66834528  0.96175892  1  0  -0.395993  0  3.252152  0  0  -0.341164  0  3.571866  0  0  -0.346684  0  3.576102  0  0  -0.41645  -0.338488  0  3.568902  0
N  N72  1  0.31735518  0.90998381  0.33962653  1  0  -0.391866  0  3.222498  0  0  -0.336423  0  3.530165  0  0  -0.342553  0  3.536418  0  0  -0.413421  -0.33333  0  3.525936  0
N  N73  1  0.90998252  0.31735398  0.83962483  1  0  -0.391857  0  3.222517  0  0  -0.336418  0  3.530183  0  0  -0.342543  0  3.536428  0  0  -0.413433  -0.333327  0  3.525959  0
N  N74  1  0.70969029  0.26537652  0.22115459  1  0  -0.398757  0  3.25617  0  0  -0.347538  0  3.580365  0  0  -0.352847  0  3.584123  0  0  -0.418386  -0.345072  0  3.577868  0
N  N75  1  0.26537645  0.70968946  0.72115326  1  0  -0.398808  0  3.256163  0  0  -0.347585  0  3.580347  0  0  -0.352898  0  3.584109  0  0  -0.418374  -0.345123  0  3.577845  0
