# generated using pymatgen
data_ZnSiH16C20(N4F3)2
_symmetry_space_group_name_H-M   'P 1'
_cell_length_a   7.79630927
_cell_length_b   13.36522788
_cell_length_c   13.36523942
_cell_angle_alpha   89.67991538
_cell_angle_beta   85.79860882
_cell_angle_gamma   85.79845683
_symmetry_Int_Tables_number   1
_chemical_formula_structural   ZnSiH16C20(N4F3)2
_chemical_formula_sum   'Zn1 Si1 H16 C20 N8 F6'
_cell_volume   1385.17540680
_cell_formula_units_Z   1
loop_
 _symmetry_equiv_pos_site_id
 _symmetry_equiv_pos_as_xyz
  1  'x, y, z'
loop_
 _atom_site_type_symbol
 _atom_site_label
 _atom_site_symmetry_multiplicity
 _atom_site_fract_x
 _atom_site_fract_y
 _atom_site_fract_z
 _atom_site_occupancy
 _atom_site_pbe_bader_charge
 _atom_site_pbe_bader_spin_density
 _atom_site_pbe_cm5_charge
 _atom_site_pbe_ddec_charge
 _atom_site_pbe_ddec_spin_density
 _atom_site_pbe_ddec_sum_bond_order
 _atom_site_pbe_magmom
Zn  Zn0  1  0.50000023  0.49999970  0.50000032  1  1.296869  0  0.704226  0.73303  0  2.326821  0
Si  Si1  1  0.99999959  0.49999863  0.50000205  1  3.171986  0  0.26168  1.721425  0  3.933468  0
H  H2  1  0.25475149  0.50006356  0.33154007  1  0.183149  0  0.117434  0.102879  0  1.042152  0
H  H3  1  0.26451722  0.50000289  0.14395737  1  0.121986  0  0.115549  0.123464  0  1.004586  0
H  H4  1  0.81820148  0.50002282  0.14038662  1  0.131017  0  0.118861  0.129453  0  0.980524  0
H  H5  1  0.78830139  0.50006100  0.32894994  1  0.141446  0  0.118749  0.104246  0  1.036805  0
H  H6  1  0.18180295  0.49997582  0.85961236  1  0.131046  0  0.118876  0.129464  0  0.980584  0
H  H7  1  0.73548473  0.49999500  0.85604171  1  0.121963  0  0.115538  0.12346  0  1.004576  0
H  H8  1  0.74524908  0.49993508  0.66845908  1  0.183105  0  0.117445  0.10283  0  1.042158  0
H  H9  1  0.21169918  0.49993764  0.67104995  1  0.141252  0  0.118753  0.104253  0  1.036799  0
H  H10  1  0.25474865  0.33154118  0.50006250  1  0.183076  0  0.117451  0.102881  0  1.042121  0
H  H11  1  0.26451404  0.14395806  0.50000043  1  0.122113  0  0.115532  0.123471  0  1.004665  0
H  H12  1  0.81819624  0.14038626  0.50002554  1  0.131063  0  0.118866  0.129439  0  0.98054  0
H  H13  1  0.78829883  0.32895005  0.50006089  1  0.141262  0  0.118775  0.104307  0  1.036766  0
H  H14  1  0.18180046  0.85961238  0.49997601  1  0.131027  0  0.118862  0.129444  0  0.980564  0
H  H15  1  0.73548369  0.85604283  0.49999508  1  0.121911  0  0.115553  0.123461  0  1.004606  0
H  H16  1  0.74525164  0.66845971  0.49993514  1  0.183096  0  0.117471  0.102891  0  1.042137  0
H  H17  1  0.21170165  0.67104934  0.49993750  1  0.141374  0  0.118772  0.104287  0  1.036768  0
C  C18  1  0.37703339  0.50003430  0.28666288  1  0.396015  0  0.053997  0.109428  0  3.89999  0
C  C19  1  0.38238520  0.49997912  0.18274990  1  0.068033  0  -0.073009  -0.17773  0  3.90891  0
C  C20  1  0.54323461  0.49997093  0.12844606  1  0.238595  0  0.101594  0.194074  0  4.046033  0
C  C21  1  0.69186122  0.50001998  0.18105202  1  0.04403  0  -0.068033  -0.176341  0  3.907814  0
C  C22  1  0.67554335  0.50003829  0.28547623  1  0.481117  0  0.055836  0.10888  0  3.895365  0
C  C23  1  0.30813925  0.49997941  0.81894787  1  0.044065  0  -0.068041  -0.176369  0  3.907801  0
C  C24  1  0.45676596  0.50002771  0.87155458  1  0.238908  0  0.101562  0.19406  0  4.04619  0
C  C25  1  0.61761517  0.50002102  0.81725074  1  0.068281  0  -0.073002  -0.177732  0  3.90883  0
C  C26  1  0.62296708  0.49996509  0.71333701  1  0.395906  0  0.054032  0.109517  0  3.899976  0
C  C27  1  0.32445981  0.49996036  0.71452056  1  0.48134  0  0.05582  0.108847  0  3.895355  0
C  C28  1  0.37703006  0.28666296  0.50003271  1  0.39589  0  0.053962  0.109406  0  3.900041  0
C  C29  1  0.38238201  0.18274927  0.49997571  1  0.068099  0  -0.072935  -0.177719  0  3.908892  0
C  C30  1  0.54323225  0.12844347  0.49997205  1  0.23906  0  0.101575  0.194127  0  4.046038  0
C  C31  1  0.69185625  0.18105241  0.50002086  1  0.043911  0  -0.067991  -0.176313  0  3.907867  0
C  C32  1  0.67553896  0.28547620  0.50003842  1  0.481368  0  0.05575  0.108733  0  3.895532  0
C  C33  1  0.30814036  0.81894698  0.49997844  1  0.04407  0  -0.068044  -0.176361  0  3.907878  0
C  C34  1  0.45676427  0.87155667  0.50002725  1  0.238931  0  0.101596  0.194086  0  4.046121  0
C  C35  1  0.61761581  0.81725088  0.50002055  1  0.068311  0  -0.07299  -0.177705  0  3.908814  0
C  C36  1  0.62297024  0.71333794  0.49996418  1  0.395967  0  0.053963  0.109439  0  3.900038  0
C  C37  1  0.32446033  0.71452245  0.49996003  1  0.481225  0  0.05579  0.108802  0  3.895506  0
N  N38  1  0.52079856  0.50003346  0.33745776  1  -1.212164  0  -0.310798  -0.223103  0  3.492738  0
N  N39  1  0.56886642  0.49995713  0.02219280  1  -0.496995  0  -0.13307  -0.120498  0  3.235427  0
N  N40  1  0.43113415  0.50004152  0.97780559  1  -0.445702  0  -0.133046  -0.120459  0  3.23551  0
N  N41  1  0.47920439  0.49996669  0.66254202  1  -1.21232  0  -0.310829  -0.223114  0  3.492968  0
N  N42  1  0.52079401  0.33745877  0.50003292  1  -1.212262  0  -0.310829  -0.223096  0  3.492984  0
N  N43  1  0.56886300  0.02219268  0.49995795  1  -0.497302  0  -0.133064  -0.120505  0  3.235616  0
N  N44  1  0.43113371  0.97780596  0.50004135  1  -0.445807  0  -0.133096  -0.120519  0  3.235724  0
N  N45  1  0.47920499  0.66254212  0.49996628  1  -1.212338  0  -0.310764  -0.223064  0  3.492927  0
F  F46  1  0.22627938  0.50066301  0.50066404  1  -0.825261  0  -0.194542  -0.498697  0  1.337971  0
F  F47  1  0.77372266  0.49933413  0.49933804  1  -0.825266  0  -0.194537  -0.498716  0  1.338003  0
F  F48  1  0.99999971  0.59018351  0.40981311  1  -0.826483  0  -0.241241  -0.538943  0  1.083616  0
F  F49  1  0.00000341  0.40981513  0.59019116  1  -0.826519  0  -0.241219  -0.538962  0  1.0837  0
F  F50  1  0.02399550  0.40983261  0.40984142  1  -0.82671  0  -0.241398  -0.539078  0  1.083362  0
F  F51  1  0.97600396  0.59016453  0.59016301  1  -0.826725  0  -0.241391  -0.539062  0  1.083351  0
