# generated using pymatgen
data_MgH8C4(NO3)2
_symmetry_space_group_name_H-M   'P 1'
_cell_length_a   8.46012156
_cell_length_b   8.64400329
_cell_length_c   12.12293754
_cell_angle_alpha   90.91929751
_cell_angle_beta   90.00022914
_cell_angle_gamma   89.99990015
_symmetry_Int_Tables_number   1
_chemical_formula_structural   MgH8C4(NO3)2
_chemical_formula_sum   'Mg4 H32 C16 N8 O24'
_cell_volume   886.42805170
_cell_formula_units_Z   4
loop_
 _symmetry_equiv_pos_site_id
 _symmetry_equiv_pos_as_xyz
  1  'x, y, z'
loop_
 _atom_site_type_symbol
 _atom_site_label
 _atom_site_symmetry_multiplicity
 _atom_site_fract_x
 _atom_site_fract_y
 _atom_site_fract_z
 _atom_site_occupancy
 _atom_site_hle17_bader_spin_density
 _atom_site_hle17_ddec_charge
 _atom_site_hle17_ddec_spin_density
 _atom_site_hle17_ddec_sum_bond_order
 _atom_site_hle17_magmom
 _atom_site_hse06_10hf_bader_spin_density
 _atom_site_hse06_10hf_ddec_charge
 _atom_site_hse06_10hf_ddec_spin_density
 _atom_site_hse06_10hf_ddec_sum_bond_order
 _atom_site_hse06_10hf_magmom
 _atom_site_hse06_bader_spin_density
 _atom_site_hse06_ddec_charge
 _atom_site_hse06_ddec_spin_density
 _atom_site_hse06_ddec_sum_bond_order
 _atom_site_hse06_magmom
 _atom_site_pbe_bader_spin_density
 _atom_site_pbe_cm5_charge
 _atom_site_pbe_ddec_charge
 _atom_site_pbe_ddec_spin_density
 _atom_site_pbe_ddec_sum_bond_order
 _atom_site_pbe_magmom
Mg  Mg0  1  0.00000026  0.00000059  0.49999951  1  0  1.444961  0  1.213289  0  0  1.333783  0  1.471842  0  0  1.359154  0  1.4359  0  0  0.80221  1.315872  0  1.496794  0
Mg  Mg1  1  0.49999924  0.00000077  0.99999971  1  0  1.445013  0  1.213203  0  0  1.333838  0  1.471761  0  0  1.35921  0  1.435819  0  0  0.802218  1.315934  0  1.496699  0
Mg  Mg2  1  0.50000090  0.50000051  0.49999994  1  0  1.456406  0  1.204282  0  0  1.351055  0  1.456264  0  0  1.377125  0  1.418269  0  0  0.797775  1.332582  0  1.482835  0
Mg  Mg3  1  0.99999937  0.49999951  0.00000029  1  0  1.456459  0  1.2042  0  0  1.351095  0  1.456192  0  0  1.377169  0  1.418195  0  0  0.797789  1.332623  0  1.482761  0
H  H4  1  0.85573134  0.01134007  0.87335396  1  0  0.347448  0  0.906284  0  0  0.325998  0  0.969961  0  0  0.33561  0  0.961812  0  0  0.301712  0.31919  0  0.975753  0
H  H5  1  0.35573221  0.98866136  0.62664490  1  0  0.347424  0  0.906385  0  0  0.326004  0  0.970001  0  0  0.335611  0  0.961849  0  0  0.301747  0.319202  0  0.975784  0
H  H6  1  0.14426928  0.98866094  0.12664592  1  0  0.347465  0  0.906277  0  0  0.326017  0  0.969952  0  0  0.335628  0  0.961804  0  0  0.30172  0.319208  0  0.975743  0
H  H7  1  0.64426840  0.01133849  0.37335497  1  0  0.347417  0  0.906398  0  0  0.325996  0  0.970015  0  0  0.335603  0  0.961863  0  0  0.30174  0.319194  0  0.975798  0
H  H8  1  0.79513964  0.70437171  0.54734525  1  0  0.020607  0  0.921818  0  0  0.026653  0  0.997251  0  0  0.028188  0  0.991368  0  0  0.120145  0.025224  0  1.001665  0
H  H9  1  0.29513653  0.29562634  0.95265752  1  0  0.020498  0  0.921749  0  0  0.026469  0  0.997286  0  0  0.028022  0  0.991378  0  0  0.120065  0.025043  0  1.001699  0
H  H10  1  0.20485980  0.29562814  0.45265379  1  0  0.020597  0  0.9218  0  0  0.026641  0  0.997242  0  0  0.028176  0  0.991357  0  0  0.120143  0.025213  0  1.001655  0
H  H11  1  0.70486290  0.70437351  0.04734152  1  0  0.020519  0  0.921741  0  0  0.026486  0  0.997289  0  0  0.028039  0  0.991381  0  0  0.12007  0.025058  0  1.001702  0
H  H12  1  0.63316182  0.53854358  0.82331574  1  0  0.03495  0  0.911823  0  0  0.045439  0  0.975291  0  0  0.046946  0  0.970706  0  0  0.123337  0.044114  0  0.978759  0
H  H13  1  0.13316038  0.46145589  0.67668495  1  0  0.034965  0  0.911911  0  0  0.045455  0  0.975373  0  0  0.046962  0  0.970787  0  0  0.123322  0.044128  0  0.978846  0
H  H14  1  0.36683880  0.46145627  0.17668412  1  0  0.034942  0  0.911891  0  0  0.045436  0  0.97535  0  0  0.046942  0  0.970767  0  0  0.123332  0.044112  0  0.978818  0
H  H15  1  0.86683906  0.53854396  0.32331492  1  0  0.034976  0  0.911905  0  0  0.045464  0  0.975369  0  0  0.046972  0  0.970783  0  0  0.123326  0.044137  0  0.978839  0
H  H16  1  0.54906519  0.28847882  0.83878029  1  0  0.346763  0  0.918584  0  0  0.320324  0  0.993032  0  0  0.329899  0  0.985087  0  0  0.300032  0.313542  0  0.998667  0
H  H17  1  0.04906675  0.71152195  0.66122018  1  0  0.346772  0  0.918583  0  0  0.320328  0  0.993043  0  0  0.329903  0  0.985098  0  0  0.300026  0.313545  0  0.998678  0
H  H18  1  0.45093425  0.71152103  0.16121957  1  0  0.346768  0  0.918582  0  0  0.320323  0  0.993035  0  0  0.329899  0  0.98509  0  0  0.300028  0.313541  0  0.99867  0
H  H19  1  0.95093386  0.28847906  0.33878053  1  0  0.346768  0  0.91858  0  0  0.320327  0  0.993029  0  0  0.329903  0  0.985084  0  0  0.300024  0.313544  0  0.998666  0
H  H20  1  0.47671595  0.28286279  0.69949085  1  0  0.339763  0  0.900353  0  0  0.320125  0  0.964069  0  0  0.32882  0  0.956912  0  0  0.306835  0.313957  0  0.969188  0
H  H21  1  0.97671694  0.71713728  0.80050833  1  0  0.339776  0  0.900353  0  0  0.320133  0  0.964074  0  0  0.32883  0  0.956915  0  0  0.306838  0.313965  0  0.969194  0
H  H22  1  0.52328467  0.71713706  0.30050819  1  0  0.339766  0  0.900358  0  0  0.320127  0  0.964076  0  0  0.328822  0  0.956919  0  0  0.30683  0.313959  0  0.969194  0
H  H23  1  0.02328367  0.28286142  0.19949153  1  0  0.339782  0  0.900341  0  0  0.320138  0  0.964065  0  0  0.328835  0  0.956907  0  0  0.306827  0.313969  0  0.969187  0
H  H24  1  0.71962471  0.21840028  0.58297881  1  0  0.001203  0  0.921054  0  0  0.009333  0  0.994258  0  0  0.010776  0  0.988812  0  0  0.111255  0.008068  0  0.99826  0
H  H25  1  0.21962290  0.78159906  0.91702130  1  0  0.001187  0  0.921051  0  0  0.009309  0  0.994273  0  0  0.010756  0  0.98882  0  0  0.111249  0.008051  0  0.99826  0
H  H26  1  0.28037591  0.78159842  0.41702187  1  0  0.001199  0  0.921067  0  0  0.009323  0  0.994282  0  0  0.010767  0  0.988834  0  0  0.111257  0.00806  0  0.99828  0
H  H27  1  0.78037654  0.21840080  0.08297775  1  0  0.001204  0  0.921058  0  0  0.009324  0  0.994289  0  0  0.010774  0  0.988827  0  0  0.111257  0.008068  0  0.998269  0
H  H28  1  0.06031663  0.18290362  0.71466339  1  0  0.023638  0  0.935589  0  0  0.032028  0  1.005029  0  0  0.033506  0  1.000435  0  0  0.123864  0.030764  0  1.008399  0
H  H29  1  0.56031617  0.81709598  0.78533627  1  0  0.02364  0  0.935577  0  0  0.032027  0  1.00502  0  0  0.033506  0  1.000425  0  0  0.123863  0.030761  0  1.008393  0
H  H30  1  0.93968399  0.81709739  0.28533649  1  0  0.023646  0  0.935604  0  0  0.032034  0  1.005042  0  0  0.033513  0  1.000448  0  0  0.123859  0.030768  0  1.008412  0
H  H31  1  0.43968326  0.18290388  0.21466359  1  0  0.023641  0  0.935575  0  0  0.032031  0  1.005014  0  0  0.033509  0  1.00042  0  0  0.123864  0.030764  0  1.008387  0
H  H32  1  0.97558649  0.17763380  0.89092530  1  0  0.330798  0  0.906838  0  0  0.310287  0  0.974186  0  0  0.317083  0  0.970032  0  0  0.311512  0.305478  0  0.977178  0
H  H33  1  0.47558638  0.82236744  0.60907472  1  0  0.33079  0  0.906862  0  0  0.310274  0  0.974218  0  0  0.317068  0  0.970068  0  0  0.311502  0.305465  0  0.977212  0
H  H34  1  0.02441294  0.82236721  0.10907458  1  0  0.330808  0  0.906839  0  0  0.310294  0  0.974189  0  0  0.31709  0  0.970035  0  0  0.311515  0.305485  0  0.97718  0
H  H35  1  0.52441305  0.17763242  0.39092515  1  0  0.33079  0  0.906865  0  0  0.310275  0  0.974221  0  0  0.31707  0  0.970069  0  0  0.311508  0.305466  0  0.977215  0
C  C36  1  0.72696544  0.77040625  0.48599388  1  0  0.622532  0  3.853605  0  0  0.543329  0  4.173454  0  0  0.576875  0  4.161241  0  0  0.164368  0.520731  0  4.181183  0
C  C37  1  0.22695875  0.22958958  0.01400802  1  0  0.622893  0  3.853553  0  0  0.543758  0  4.173342  0  0  0.577299  0  4.161126  0  0  0.164516  0.521157  0  4.18108  0
C  C38  1  0.27303399  0.22959476  0.51400600  1  0  0.622546  0  3.853575  0  0  0.543337  0  4.173424  0  0  0.576885  0  4.16121  0  0  0.164357  0.52074  0  4.181156  0
C  C39  1  0.77304187  0.77041143  0.98599186  1  0  0.622806  0  3.853473  0  0  0.543665  0  4.17327  0  0  0.577206  0  4.161054  0  0  0.164498  0.521066  0  4.181003  0
C  C40  1  0.77966379  0.27849857  0.51425051  1  0  0.627894  0  3.887633  0  0  0.553167  0  4.20003  0  0  0.585991  0  4.189911  0  0  0.159662  0.531047  0  4.2062  0
C  C41  1  0.27966366  0.72149951  0.98574893  1  0  0.627972  0  3.887449  0  0  0.553228  0  4.199862  0  0  0.586054  0  4.189741  0  0  0.159717  0.531109  0  4.206033  0
C  C42  1  0.22033683  0.72150013  0.48574935  1  0  0.627918  0  3.88758  0  0  0.553191  0  4.199973  0  0  0.586015  0  4.189853  0  0  0.159663  0.531072  0  4.20614  0
C  C43  1  0.72033460  0.27849918  0.01425093  1  0  0.627894  0  3.887482  0  0  0.553157  0  4.199891  0  0  0.585983  0  4.189771  0  0  0.159658  0.531041  0  4.206061  0
C  C44  1  0.97723268  0.09012088  0.73643721  1  0  0.558791  0  3.833892  0  0  0.487974  0  4.130249  0  0  0.516866  0  4.127221  0  0  0.185804  0.468566  0  4.13179  0
C  C45  1  0.47723093  0.90987803  0.76356278  1  0  0.558823  0  3.833822  0  0  0.487998  0  4.130194  0  0  0.516888  0  4.127165  0  0  0.185811  0.46859  0  4.131736  0
C  C46  1  0.02276794  0.90987897  0.26356348  1  0  0.558708  0  3.833855  0  0  0.48789  0  4.130222  0  0  0.516781  0  4.127195  0  0  0.185758  0.468483  0  4.131757  0
C  C47  1  0.52276850  0.09012067  0.23643707  1  0  0.558792  0  3.83388  0  0  0.487975  0  4.130243  0  0  0.516864  0  4.127218  0  0  0.185786  0.468566  0  4.131784  0
C  C48  1  0.57651944  0.48534048  0.74999947  1  0  0.560673  0  3.825572  0  0  0.49357  0  4.117864  0  0  0.522028  0  4.115616  0  0  0.186158  0.474456  0  4.118796  0
C  C49  1  0.07651833  0.51465909  0.75000024  1  0  0.560665  0  3.825768  0  0  0.493553  0  4.118054  0  0  0.522012  0  4.115809  0  0  0.18617  0.474439  0  4.118984  0
C  C50  1  0.42348235  0.51465937  0.25000040  1  0  0.560715  0  3.825671  0  0  0.493601  0  4.117963  0  0  0.522059  0  4.115716  0  0  0.186177  0.474486  0  4.118891  0
C  C51  1  0.92348229  0.48534076  0.24999962  1  0  0.560661  0  3.825758  0  0  0.493551  0  4.118047  0  0  0.522008  0  4.115803  0  0  0.186166  0.474435  0  4.118973  0
N  N52  1  0.93446054  0.09061566  0.84137239  1  0  -0.61307  0  3.129567  0  0  -0.568955  0  3.365393  0  0  -0.59162  0  3.361205  0  0  -0.555904  -0.553445  0  3.368028  0
N  N53  1  0.43445938  0.90938564  0.65862752  1  0  -0.613062  0  3.129695  0  0  -0.568954  0  3.365515  0  0  -0.591611  0  3.36133  0  0  -0.555899  -0.553448  0  3.368147  0
N  N54  1  0.06553889  0.90938535  0.15862749  1  0  -0.613041  0  3.129504  0  0  -0.56892  0  3.365325  0  0  -0.591583  0  3.361134  0  0  -0.555861  -0.55341  0  3.367958  0
N  N55  1  0.56554006  0.09061421  0.34137235  1  0  -0.613038  0  3.129695  0  0  -0.568931  0  3.365508  0  0  -0.591588  0  3.361323  0  0  -0.555889  -0.553426  0  3.36814  0
N  N56  1  0.53075077  0.34046556  0.76371745  1  0  -0.630109  0  3.135586  0  0  -0.588208  0  3.377136  0  0  -0.611182  0  3.371198  0  0  -0.557584  -0.572437  0  3.380988  0
N  N57  1  0.03075050  0.65953409  0.73628295  1  0  -0.630118  0  3.135634  0  0  -0.588216  0  3.377196  0  0  -0.61119  0  3.371254  0  0  -0.557573  -0.572443  0  3.381046  0
N  N58  1  0.46924985  0.65953430  0.23628241  1  0  -0.630133  0  3.135612  0  0  -0.588228  0  3.377167  0  0  -0.611201  0  3.371229  0  0  -0.557577  -0.572456  0  3.381015  0
N  N59  1  0.96925012  0.34046577  0.26371774  1  0  -0.630126  0  3.135627  0  0  -0.588226  0  3.377187  0  0  -0.611201  0  3.371248  0  0  -0.557565  -0.572454  0  3.381037  0
O  O60  1  0.78505187  0.89625197  0.45193298  1  0  -0.668989  0  2.088674  0  0  -0.604938  0  2.331907  0  0  -0.63007  0  2.321696  0  0  -0.336999  -0.587534  0  2.338312  0
O  O61  1  0.28504796  0.10375070  0.04806999  1  0  -0.669047  0  2.088793  0  0  -0.605035  0  2.332021  0  0  -0.63017  0  2.32181  0  0  -0.336994  -0.587629  0  2.33843  0
O  O62  1  0.21494875  0.10374904  0.54806691  1  0  -0.668986  0  2.088689  0  0  -0.604931  0  2.331919  0  0  -0.630065  0  2.321708  0  0  -0.336979  -0.587527  0  2.338326  0
O  O63  1  0.71495266  0.89625147  0.95192990  1  0  -0.669059  0  2.088781  0  0  -0.605023  0  2.331983  0  0  -0.630158  0  2.32178  0  0  -0.337014  -0.587618  0  2.338392  0
O  O64  1  0.90631440  0.21769933  0.47725770  1  0  -0.691805  0  2.102443  0  0  -0.624816  0  2.345199  0  0  -0.650535  0  2.335669  0  0  -0.352364  -0.606922  0  2.351094  0
O  O65  1  0.40631268  0.78229853  0.02274143  1  0  -0.691872  0  2.102379  0  0  -0.624838  0  2.3451  0  0  -0.650566  0  2.335586  0  0  -0.352415  -0.606945  0  2.350993  0
O  O66  1  0.09368740  0.78230053  0.52274217  1  0  -0.691813  0  2.102366  0  0  -0.624821  0  2.345115  0  0  -0.650541  0  2.335592  0  0  -0.352368  -0.606927  0  2.35101  0
O  O67  1  0.59368557  0.21770017  0.97725843  1  0  -0.69185  0  2.102366  0  0  -0.624851  0  2.34511  0  0  -0.650571  0  2.335586  0  0  -0.35241  -0.606961  0  2.351003  0
O  O68  1  0.93053730  0.99343098  0.66495911  1  0  -0.635621  0  2.021726  0  0  -0.575807  0  2.25927  0  0  -0.597965  0  2.250038  0  0  -0.343593  -0.56056  0  2.265133  0
O  O69  1  0.43053640  0.00656917  0.83504160  1  0  -0.635667  0  2.021681  0  0  -0.575832  0  2.259201  0  0  -0.597991  0  2.24997  0  0  -0.343618  -0.560588  0  2.265065  0
O  O70  1  0.06946332  0.00656887  0.33504159  1  0  -0.635606  0  2.021738  0  0  -0.575786  0  2.259272  0  0  -0.597944  0  2.250042  0  0  -0.343606  -0.56054  0  2.265133  0
O  O71  1  0.56946304  0.99343184  0.16495829  1  0  -0.635643  0  2.021727  0  0  -0.575824  0  2.259261  0  0  -0.597983  0  2.250033  0  0  -0.343608  -0.56058  0  2.265124  0
O  O72  1  0.71820228  0.40002201  0.47735884  1  0  -0.679156  0  2.0641  0  0  -0.622768  0  2.312206  0  0  -0.64724  0  2.30199  0  0  -0.357969  -0.605811  0  2.318647  0
O  O73  1  0.21820089  0.59997615  0.02264141  1  0  -0.679177  0  2.063993  0  0  -0.622804  0  2.31212  0  0  -0.647274  0  2.3019  0  0  -0.357983  -0.605854  0  2.318573  0
O  O74  1  0.28179952  0.59997784  0.52264103  1  0  -0.679179  0  2.064109  0  0  -0.62279  0  2.312211  0  0  -0.647261  0  2.301995  0  0  -0.357976  -0.605839  0  2.318663  0
O  O75  1  0.78179855  0.40002255  0.97735844  1  0  -0.679117  0  2.063989  0  0  -0.622735  0  2.312108  0  0  -0.647208  0  2.30189  0  0  -0.35793  -0.60578  0  2.318547  0
O  O76  1  0.59473326  0.71549508  0.45442062  1  0  -0.687351  0  2.069763  0  0  -0.623484  0  2.315723  0  0  -0.647194  0  2.302804  0  0  -0.347435  -0.607056  0  2.3241  0
O  O77  1  0.09472665  0.28450444  0.04558178  1  0  -0.687593  0  2.069798  0  0  -0.623663  0  2.315637  0  0  -0.647389  0  2.302733  0  0  -0.347488  -0.607235  0  2.324021  0
O  O78  1  0.40526736  0.28450478  0.54557760  1  0  -0.687359  0  2.069745  0  0  -0.623496  0  2.315722  0  0  -0.647207  0  2.302803  0  0  -0.347428  -0.607066  0  2.3241  0
O  O79  1  0.90527397  0.71549542  0.95441808  1  0  -0.68752  0  2.069709  0  0  -0.623599  0  2.315561  0  0  -0.647325  0  2.30266  0  0  -0.347462  -0.607172  0  2.323942  0
O  O80  1  0.56095552  0.56089743  0.66269811  1  0  -0.659618  0  2.067172  0  0  -0.601651  0  2.311313  0  0  -0.624905  0  2.302967  0  0  -0.342826  -0.585578  0  2.316492  0
O  O81  1  0.06095504  0.43910216  0.83730156  1  0  -0.659631  0  2.067183  0  0  -0.601664  0  2.311325  0  0  -0.624918  0  2.302977  0  0  -0.342849  -0.585595  0  2.31651  0
O  O82  1  0.43904510  0.43910242  0.33730176  1  0  -0.659638  0  2.067181  0  0  -0.601675  0  2.311331  0  0  -0.624928  0  2.302983  0  0  -0.342851  -0.585605  0  2.316514  0
O  O83  1  0.93904558  0.56089653  0.16269747  1  0  -0.659639  0  2.067194  0  0  -0.601662  0  2.311313  0  0  -0.624916  0  2.302968  0  0  -0.342845  -0.585594  0  2.316501  0
