# generated using pymatgen
data_FeCuH18C30S2N2(OF3)4
_symmetry_space_group_name_H-M   'P 1'
_cell_length_a   8.39639096
_cell_length_b   10.17249745
_cell_length_c   10.66530949
_cell_angle_alpha   93.11399926
_cell_angle_beta   112.70630574
_cell_angle_gamma   101.00284371
_symmetry_Int_Tables_number   1
_chemical_formula_structural   FeCuH18C30S2N2(OF3)4
_chemical_formula_sum   'Fe1 Cu1 H18 C30 S2 N2 O4 F12'
_cell_volume   816.61636887
_cell_formula_units_Z   1
loop_
 _symmetry_equiv_pos_site_id
 _symmetry_equiv_pos_as_xyz
  1  'x, y, z'
loop_
 _atom_site_type_symbol
 _atom_site_label
 _atom_site_symmetry_multiplicity
 _atom_site_fract_x
 _atom_site_fract_y
 _atom_site_fract_z
 _atom_site_occupancy
 _atom_site_hle17_ddec_charge
 _atom_site_hle17_ddec_spin_density
 _atom_site_hle17_ddec_sum_bond_order
 _atom_site_hle17_magmom
 _atom_site_hse06_10hf_ddec_charge
 _atom_site_hse06_10hf_ddec_spin_density
 _atom_site_hse06_10hf_ddec_sum_bond_order
 _atom_site_hse06_10hf_magmom
 _atom_site_hse06_ddec_charge
 _atom_site_hse06_ddec_spin_density
 _atom_site_hse06_ddec_sum_bond_order
 _atom_site_hse06_magmom
 _atom_site_pbe_cm5_charge
 _atom_site_pbe_ddec_charge
 _atom_site_pbe_ddec_spin_density
 _atom_site_pbe_ddec_sum_bond_order
 _atom_site_pbe_magmom
Fe  Fe0  1  0.50000083  0.49999818  0.49999975  1  0.130384  0.381753  3.561222  0.284  0.195156  0.000147  4.012682  0.0  0.201894  8.3e-05  3.998201  0.0  0.522702  0.198065  0.00152  4.015827  0.001
Cu  Cu1  1  0.99999774  0.00000017  0.00000056  1  0.820229  0.546189  1.861307  0.476  0.8349  0.795873  2.231248  0.648  0.918166  0.86007  2.173091  0.733  0.754506  0.783979  0.747993  2.271489  0.59
H  H2  1  0.15899672  0.03947999  0.30226672  1  0.083409  0.000532  0.953362  0.001  0.088748  0.000702  1.023294  0.001  0.09125  0.000473  1.020208  0.001  0.115004  0.086898  0.000902  1.025436  0.002
H  H3  1  0.84100199  0.96051941  0.69773391  1  0.083398  0.000534  0.953411  0.001  0.088722  0.000702  1.02336  0.001  0.091224  0.000473  1.020274  0.001  0.115  0.086872  0.000902  1.025501  0.002
H  H4  1  0.11069366  0.92824459  0.48974015  1  0.108004  0.000319  0.979047  0.0  0.114375  0.000397  1.047173  0.0  0.118004  0.000284  1.045536  0.0  0.096865  0.111725  0.000525  1.048692  0.001
H  H5  1  0.88930763  0.07175481  0.51026126  1  0.107982  0.000319  0.97906  0.0  0.114377  0.000398  1.047151  0.0  0.118007  0.000284  1.045514  0.0  0.096859  0.111726  0.000525  1.048675  0.001
H  H6  1  0.68449521  0.62766114  0.17829599  1  0.117261  0.000233  0.959473  0.0  0.127246  0.000416  1.0207  0.0  0.130574  0.000291  1.019899  0.0  0.103347  0.124845  0.00051  1.021556  0.001
H  H7  1  0.31550707  0.37233725  0.82170661  1  0.11728  0.000232  0.959405  0.0  0.127264  0.000416  1.020625  0.0  0.130592  0.000291  1.019824  0.0  0.103344  0.124862  0.00051  1.021481  0.001
H  H8  1  0.75629382  0.74832686  0.00363010  1  0.092847  0.000538  0.934103  0.001  0.101883  0.000696  0.997014  0.001  0.104238  0.000474  0.994051  0.001  0.120003  0.100179  0.00088  0.998999  0.002
H  H9  1  0.24370489  0.25167254  0.99637148  1  0.092798  0.000537  0.934112  0.001  0.101837  0.000695  0.997024  0.001  0.104191  0.000474  0.994062  0.001  0.119999  0.100134  0.00088  0.999009  0.002
H  H10  1  0.47458228  0.75302517  0.41300923  1  0.129272  -6.4e-05  0.937687  0.0  0.136719  1e-06  1.001165  0.0  0.139991  3e-06  0.999463  0.0  0.103592  0.134291  2e-06  1.002744  0.0
H  H11  1  0.52541611  0.24697320  0.58698939  1  0.129371  -6.4e-05  0.937623  0.0  0.136794  2e-06  1.001109  0.0  0.140111  3e-06  0.99935  0.0  0.103614  0.134343  2e-06  1.002714  0.0
H  H12  1  0.18951020  0.54111262  0.29109702  1  0.125371  -3.9e-05  0.93813  0.0  0.13447  -9e-06  0.996614  0.0  0.137617  -9e-06  0.99516  0.0  0.105478  0.132179  -1.1e-05  0.997883  0.0
H  H13  1  0.81049244  0.45888271  0.70890086  1  0.125365  -4.1e-05  0.938116  0.0  0.134475  -9e-06  0.996592  0.0  0.137623  -8e-06  0.995136  0.0  0.10547  0.132184  -1.1e-05  0.99786  0.0
H  H14  1  0.30786873  0.32016805  0.25247069  1  0.132296  -1.7e-05  0.934326  0.0  0.139087  4e-06  0.998188  0.0  0.14229  -4e-06  0.996474  0.0  0.108148  0.136852  2.1e-05  0.999467  0.0
H  H15  1  0.69213620  0.67982629  0.74752971  1  0.132344  -1.8e-05  0.934211  0.0  0.139094  4e-06  0.998144  0.0  0.142299  -4e-06  0.996429  0.0  0.10817  0.136853  2.1e-05  0.999417  0.0
H  H16  1  0.66875168  0.39441265  0.35036952  1  0.131413  -7.9e-05  0.954095  0.0  0.134304  -9e-06  1.025408  0.0  0.138089  -8e-06  1.022685  0.0  0.100815  0.131656  -1e-05  1.02734  0.0
H  H17  1  0.33125547  0.60558474  0.64963451  1  0.13139  -8e-05  0.954078  0.0  0.134304  -9e-06  1.02538  0.0  0.138096  -7e-06  1.022637  0.0  0.1008  0.131656  -1e-05  1.027312  0.0
H  H18  1  0.53063260  0.19081199  0.87609144  1  0.127897  -0.000135  1.002597  0.0  0.129856  -0.000131  1.077719  0.0  0.13438  -0.000119  1.078502  0.0  0.092139  0.126782  -0.000128  1.077179  0.0
H  H19  1  0.46936820  0.80919446  0.12390453  1  0.127928  -0.000139  1.00255  0.0  0.129873  -0.000131  1.077708  0.0  0.1344  -0.000119  1.078481  0.0  0.092162  0.126801  -0.000128  1.07716  0.0
C  C20  1  0.05804809  0.94631337  0.27937572  1  0.133797  -0.007047  3.71332  -0.005  0.104747  -0.001668  3.969381  -0.001  0.115539  -0.00333  3.9869  -0.002  0.039194  0.097896  -0.000461  3.957743  0.0
C  C21  1  0.94195092  0.05368705  0.72062599  1  0.13385  -0.007053  3.713382  -0.005  0.104809  -0.00167  3.96943  -0.001  0.115601  -0.003328  3.98695  -0.002  0.039216  0.097957  -0.000461  3.95779  0.0
C  C22  1  0.03022377  0.88374561  0.38356008  1  -0.177875  0.005515  3.739833  0.007  -0.193052  0.003662  3.983477  0.005  -0.202488  0.003253  4.002891  0.004  -0.09824  -0.187209  0.004015  3.970852  0.005
C  C23  1  0.96977721  0.11625278  0.61644120  1  -0.17789  0.005514  3.739899  0.007  -0.193081  0.003662  3.983545  0.005  -0.202517  0.003252  4.002958  0.004  -0.098234  -0.187239  0.004015  3.970921  0.005
C  C24  1  0.89202034  0.76794248  0.35025247  1  0.093539  -0.008983  3.782415  -0.006  0.111144  -0.003932  4.03195  -0.002  0.120187  -0.004432  4.050843  -0.003  0.008235  0.105124  -0.003485  4.019318  -0.002
C  C25  1  0.10797935  0.23205590  0.64974747  1  0.093583  -0.008985  3.782408  -0.006  0.111174  -0.003932  4.031962  -0.002  0.120218  -0.004432  4.050854  -0.003  0.008239  0.105154  -0.003485  4.019329  -0.002
C  C26  1  0.79232740  0.71750429  0.21070879  1  -0.172098  0.005468  3.724036  0.007  -0.189683  0.003585  3.969863  0.004  -0.198399  0.003193  3.988343  0.004  -0.095235  -0.184429  0.003926  3.957867  0.005
C  C27  1  0.20767230  0.28249410  0.78929303  1  -0.172212  0.00548  3.724068  0.007  -0.18979  0.003585  3.969909  0.004  -0.198506  0.003193  3.988384  0.004  -0.095261  -0.184534  0.003926  3.957914  0.005
C  C28  1  0.83138517  0.78463585  0.11267588  1  0.143292  -0.007201  3.687674  -0.005  0.114829  -0.0019  3.942826  -0.001  0.126335  -0.003523  3.958726  -0.002  0.045273  0.107598  -0.000611  3.932048  0.0
C  C29  1  0.16861353  0.21536355  0.88732570  1  0.143494  -0.007233  3.687558  -0.005  0.115007  -0.001898  3.942716  -0.001  0.126517  -0.003522  3.958611  -0.002  0.045314  0.107773  -0.000611  3.93194  0.0
C  C30  1  0.63369948  0.60166668  0.39997539  1  -0.01701  -0.008783  3.798612  -0.005  -0.00835  0.0  4.088855  0.0  -0.011961  -1.7e-05  4.111236  0.0  -0.083755  -0.006913  2e-06  4.074163  0.0
C  C31  1  0.36630378  0.39833069  0.60002559  1  -0.016975  -0.008781  3.798583  -0.005  -0.008268  1e-06  4.088754  0.0  -0.011882  -1.6e-05  4.111146  0.0  -0.083793  -0.006831  2e-06  4.074058  0.0
C  C32  1  0.47640021  0.65053921  0.38042648  1  -0.140831  -0.008249  3.692999  -0.005  -0.182356  -7.7e-05  3.987333  0.0  -0.186154  -7.7e-05  4.005675  0.0  -0.155027  -0.18028  -9.6e-05  3.975162  0.0
C  C33  1  0.52360276  0.34945717  0.61957717  1  -0.140947  -0.008237  3.692957  -0.005  -0.182449  -7.8e-05  3.987251  0.0  -0.186287  -8e-05  4.005576  0.0  -0.15504  -0.180353  -9.6e-05  3.975087  0.0
C  C34  1  0.32710084  0.53884129  0.31640687  1  -0.079322  -0.00596  3.680761  -0.003  -0.115651  -1.9e-05  3.974872  0.0  -0.118877  -1.7e-05  3.992782  0.0  -0.148986  -0.11417  -2.9e-05  3.962949  0.0
C  C35  1  0.67290211  0.46115507  0.68359303  1  -0.079296  -0.005968  3.68089  -0.003  -0.115641  -1.8e-05  3.974976  0.0  -0.118869  -1.6e-05  3.9929  0.0  -0.148956  -0.114158  -2.9e-05  3.963044  0.0
C  C36  1  0.39034104  0.42131473  0.29604476  1  -0.079505  -0.006301  3.656118  -0.004  -0.118555  2e-06  3.956132  0.0  -0.121915  -5e-06  3.973471  0.0  -0.147246  -0.116846  2e-06  3.944512  0.0
C  C37  1  0.60966260  0.57867960  0.70395432  1  -0.079541  -0.006295  3.656196  -0.004  -0.118539  2e-06  3.95619  0.0  -0.121908  -8e-06  3.973541  0.0  -0.147276  -0.116819  2e-06  3.944554  0.0
C  C38  1  0.57958861  0.45943029  0.34765902  1  -0.139977  -0.007777  3.695686  -0.004  -0.18661  1.3e-05  3.998533  0.0  -0.189079  -8e-06  4.014217  0.0  -0.156847  -0.185308  1.5e-05  3.988131  0.0
C  C39  1  0.42041564  0.54056608  0.65234221  1  -0.139989  -0.007783  3.695772  -0.004  -0.186673  1.2e-05  3.998609  0.0  -0.18914  -7e-06  4.014299  0.0  -0.156833  -0.185371  1.5e-05  3.988205  0.0
C  C40  1  0.78112265  0.36474624  0.07902922  1  0.700921  -0.000139  3.622143  0.0  0.628725  -0.000137  3.959083  0.0  0.656336  -0.000117  3.933392  0.0  0.296828  0.608745  -0.00016  3.978011  0.0
C  C41  1  0.21887727  0.63525720  0.92097103  1  0.70108  -0.000133  3.621829  0.0  0.628816  -0.000138  3.958825  0.0  0.656428  -0.000117  3.933135  0.0  0.296769  0.608795  -0.00016  3.97785  0.0
C  C42  1  0.79649450  0.22253332  0.03006599  1  0.295877  -0.002998  3.838615  -0.002  0.284247  -0.001623  4.106238  -0.001  0.308735  -0.001448  4.107357  -0.001  0.118403  0.267846  -0.001785  4.105638  -0.001
C  C43  1  0.20350065  0.77746710  0.96993643  1  0.295829  -0.002995  3.838743  -0.002  0.284267  -0.001622  4.10628  -0.001  0.308752  -0.001447  4.107404  -0.001  0.11838  0.267872  -0.001785  4.105683  -0.001
C  C44  1  0.64457940  0.14610143  0.91706441  1  -0.358558  0.000393  3.778628  0.002  -0.405261  0.000396  4.054061  0.001  -0.429304  -0.000506  4.076035  0.001  -0.160181  -0.389155  0.001155  4.039102  0.002
C  C45  1  0.35541763  0.85390099  0.08293493  1  -0.358573  0.000384  3.778634  0.002  -0.405275  0.000394  4.05408  0.001  -0.429321  -0.000504  4.076057  0.001  -0.160166  -0.389164  0.001155  4.039116  0.002
C  C46  1  0.63009826  0.01847380  0.85440927  1  0.257981  -0.004851  3.872887  -0.005  0.243594  -0.000723  4.141137  -0.002  0.2673  -0.001011  4.151037  -0.002  0.10096  0.227592  -0.000236  4.134322  -0.002
C  C47  1  0.36989777  0.98152963  0.14558793  1  0.258087  -0.004841  3.872835  -0.005  0.243565  -0.000723  4.14113  -0.002  0.267279  -0.001011  4.151026  -0.002  0.100918  0.227562  -0.000237  4.134321  -0.002
C  C48  1  0.45553539  0.95316814  0.73072797  1  0.710847  0.004141  3.639784  0.005  0.642422  0.00474  3.968511  0.006  0.670612  0.00318  3.941326  0.004  0.301462  0.622064  0.006079  3.988508  0.007
C  C49  1  0.54446511  0.04683730  0.26926880  1  0.710384  0.004141  3.640587  0.005  0.642331  0.00474  3.968843  0.006  0.670506  0.003182  3.941677  0.004  0.301442  0.621975  0.00608  3.988843  0.007
S  S50  1  0.85203144  0.69828719  0.48497661  1  0.048883  -0.001764  2.43064  0.0  0.04141  -0.001555  2.746432  -0.001  0.037839  -0.001667  2.746938  -0.001  0.047394  0.044058  -0.001432  2.745516  -0.001
S  S51  1  0.14796955  0.30171120  0.51502561  1  0.048889  -0.00176  2.430622  0.0  0.041409  -0.001555  2.746397  -0.001  0.037837  -0.001667  2.746903  -0.001  0.047413  0.044056  -0.001432  2.74548  -0.001
N  N52  1  0.96052741  0.89821975  0.14538545  1  -0.314108  0.049617  3.33025  0.074  -0.265725  0.051661  3.617278  0.071  -0.297456  0.04122  3.640321  0.061  -0.358522  -0.246483  0.057739  3.603001  0.075
N  N53  1  0.03947130  0.10177966  0.85461706  1  -0.314267  0.049623  3.330274  0.074  -0.265868  0.05166  3.617297  0.071  -0.2976  0.041219  3.640339  0.061  -0.358581  -0.246622  0.057738  3.603017  0.075
O  O54  1  0.94207215  0.19356911  0.09285875  1  -0.449138  -0.00217  2.011825  -0.001  -0.43323  -0.00136  2.245797  0.0  -0.452921  -0.002004  2.237399  0.0  -0.277285  -0.420488  -0.000778  2.251833  0.001
O  O55  1  0.05792021  0.80642628  0.90714728  1  -0.449133  -0.002177  2.01193  -0.001  -0.43325  -0.001359  2.245881  0.0  -0.45294  -0.002007  2.237481  0.0  -0.27727  -0.420509  -0.000778  2.251923  0.001
O  O56  1  0.73972352  0.94200958  0.88033611  1  -0.488507  0.041491  2.172908  0.067  -0.459567  0.047737  2.438126  0.072  -0.497302  0.035307  2.435781  0.058  -0.294822  -0.434068  0.056941  2.43947  0.082
O  O57  1  0.26027222  0.05799285  0.11966471  1  -0.488477  0.041493  2.172851  0.067  -0.459535  0.04774  2.438112  0.072  -0.497269  0.035308  2.435757  0.058  -0.294811  -0.434035  0.056942  2.439455  0.082
F  F58  1  0.87756477  0.40147168  0.21614536  1  -0.251488  4.5e-05  1.19972  0.0  -0.211787  4.3e-05  1.369806  0.0  -0.221416  3.8e-05  1.35555  0.0  -0.093173  -0.204686  5e-05  1.379645  0.0
F  F59  1  0.12244189  0.59853275  0.78385322  1  -0.251506  4.4e-05  1.199641  0.0  -0.21182  4.3e-05  1.369769  0.0  -0.22145  3.7e-05  1.355513  0.0  -0.093176  -0.204709  5e-05  1.379629  0.0
F  F60  1  0.61045474  0.37259405  0.05310147  1  -0.256951  -3.6e-05  1.165971  0.0  -0.205456  2.9e-05  1.322  0.0  -0.214658  7e-06  1.307533  0.0  -0.096735  -0.198756  7.4e-05  1.332166  0.0
F  F61  1  0.38954708  0.62741142  0.94690133  1  -0.257017  -3.4e-05  1.165903  0.0  -0.205501  2.8e-05  1.321944  0.0  -0.214702  7e-06  1.307478  0.0  -0.096727  -0.198791  7.4e-05  1.332128  0.0
F  F62  1  0.84395341  0.46004390  0.01398189  1  -0.240481  -0.000222  1.159103  0.0  -0.204269  -0.000131  1.325374  0.0  -0.213934  -0.000101  1.310947  0.0  -0.099771  -0.197216  -0.000177  1.335358  0.0
F  F63  1  0.15604047  0.53995240  0.98600870  1  -0.240511  -0.000224  1.159001  0.0  -0.204268  -0.000131  1.325276  0.0  -0.213933  -0.0001  1.31085  0.0  -0.099732  -0.197205  -0.000177  1.335278  0.0
F  F64  1  0.33414568  0.03116160  0.69826604  1  -0.237933  0.000805  1.214494  0.001  -0.200285  0.001215  1.390569  0.002  -0.211779  0.000781  1.377756  0.001  -0.083587  -0.191888  0.001643  1.399688  0.002
F  F65  1  0.66585065  0.96884283  0.30173130  1  -0.237817  0.000807  1.214811  0.001  -0.200249  0.001215  1.390774  0.002  -0.21174  0.000781  1.377965  0.001  -0.083545  -0.191852  0.001643  1.399894  0.002
F  F66  1  0.48680009  0.92736844  0.61609701  1  -0.255843  -4.6e-05  1.150812  0.0  -0.210903  0.00012  1.3039  0.0  -0.219968  3.4e-05  1.287828  0.0  -0.09867  -0.204346  0.000229  1.315473  0.0
F  F67  1  0.51319942  0.07263801  0.38389951  1  -0.255782  -3.9e-05  1.150948  0.0  -0.210903  0.00012  1.303905  0.0  -0.219967  3.3e-05  1.28784  0.0  -0.098712  -0.204345  0.000229  1.315475  0.0
F  F68  1  0.37604569  0.83272702  0.75399925  1  -0.248599  -0.000199  1.185149  0.0  -0.202086  -0.000157  1.343756  0.0  -0.211729  -0.000211  1.327723  0.0  -0.093648  -0.195105  -6.7e-05  1.355143  0.0
F  F69  1  0.62395388  0.16727536  0.24599335  1  -0.248412  -0.000205  1.185338  0.0  -0.202045  -0.000157  1.343881  0.0  -0.211685  -0.00021  1.327851  0.0  -0.093614  -0.195064  -6.6e-05  1.35527  0.0
