# generated using pymatgen
data_NdH28C32N6ClO10
_symmetry_space_group_name_H-M   'P 1'
_cell_length_a   15.89499952
_cell_length_b   17.30760782
_cell_length_c   17.30720652
_cell_angle_alpha   89.99618808
_cell_angle_beta   89.99948797
_cell_angle_gamma   89.99989205
_symmetry_Int_Tables_number   1
_chemical_formula_structural   NdH28C32N6ClO10
_chemical_formula_sum   'Nd4 H112 C128 N24 Cl4 O40'
_cell_volume   4761.28896639
_cell_formula_units_Z   4
loop_
 _symmetry_equiv_pos_site_id
 _symmetry_equiv_pos_as_xyz
  1  'x, y, z'
loop_
 _atom_site_type_symbol
 _atom_site_label
 _atom_site_symmetry_multiplicity
 _atom_site_fract_x
 _atom_site_fract_y
 _atom_site_fract_z
 _atom_site_occupancy
 _atom_site_pbe_bader_charge
 _atom_site_pbe_bader_spin_density
 _atom_site_pbe_cm5_charge
 _atom_site_pbe_ddec_charge
 _atom_site_pbe_ddec_spin_density
 _atom_site_pbe_ddec_sum_bond_order
 _atom_site_pbe_magmom
Nd  Nd0  1  0.24997327  0.19705692  0.80295331  1  2.223376  -0.008431  1.427056  1.981832  -0.012816  2.295361  -0.011
Nd  Nd1  1  0.99995568  0.69707285  0.69710194  1  2.223659  -0.008423  1.427365  1.981409  -0.012803  2.296856  -0.011
Nd  Nd2  1  0.74998064  0.80294431  0.19704071  1  2.223344  -0.00843  1.427166  1.981814  -0.012812  2.295552  -0.011
Nd  Nd3  1  0.49999384  0.30293430  0.30289867  1  2.223673  -0.008426  1.427166  1.981384  -0.012802  2.296677  -0.011
H  H4  1  0.29592760  0.30536780  0.46787580  1  0.196981  0.032362  0.127915  0.115049  0.026507  1.018234  0.025
H  H5  1  0.04594070  0.03208911  0.80535748  1  0.19731  0.032378  0.127796  0.114726  0.026529  1.018684  0.025
H  H6  1  0.79594452  0.69459811  0.53210281  1  0.196654  0.032363  0.127827  0.114874  0.026501  1.018557  0.025
H  H7  1  0.54595091  0.96789284  0.19463070  1  0.19672  0.032391  0.127897  0.114978  0.026524  1.018465  0.025
H  H8  1  0.95405568  0.80540808  0.03205128  1  0.197508  0.032267  0.12781  0.114671  0.026441  1.018786  0.025
H  H9  1  0.70400184  0.46790196  0.30538957  1  0.195967  0.032274  0.127612  0.114658  0.026416  1.018927  0.025
H  H10  1  0.45407062  0.19460667  0.96793064  1  0.197296  0.032248  0.127768  0.114567  0.026421  1.01901  0.025
H  H11  1  0.20402315  0.53213518  0.69461811  1  0.195216  0.032284  0.127731  0.114931  0.026406  1.018298  0.025
H  H12  1  0.37886907  0.40399097  0.51582619  1  0.111941  0.027378  0.107946  0.109024  0.022097  0.995393  0.021
H  H13  1  0.12885464  0.98415378  0.90399304  1  0.111985  0.027375  0.107929  0.109112  0.022094  0.995632  0.021
H  H14  1  0.87886150  0.59600484  0.48414943  1  0.112026  0.027352  0.107909  0.109144  0.022077  0.99565  0.021
H  H15  1  0.62890045  0.01584478  0.09600486  1  0.112201  0.02738  0.107899  0.109134  0.022102  0.995601  0.021
H  H16  1  0.87113558  0.90402732  0.98409800  1  0.112478  0.027331  0.107917  0.10888  0.022071  0.99564  0.021
H  H17  1  0.62108027  0.51585222  0.40406571  1  0.112638  0.027308  0.107793  0.108953  0.022051  0.995608  0.021
H  H18  1  0.37114296  0.09598526  0.01585803  1  0.112301  0.0273  0.107894  0.108951  0.022041  0.995594  0.021
H  H19  1  0.12107747  0.48418275  0.59593861  1  0.111893  0.027331  0.107874  0.108967  0.022056  0.995453  0.021
H  H20  1  0.35142096  0.43831610  0.61057066  1  0.070507  0.005758  0.111497  0.093503  0.00393  0.98475  0.004
H  H21  1  0.10142897  0.88941282  0.93832535  1  0.070504  0.005767  0.111475  0.093489  0.003936  0.984926  0.004
H  H22  1  0.85142884  0.56166820  0.38940460  1  0.070277  0.005755  0.111494  0.093489  0.003927  0.984696  0.004
H  H23  1  0.60144849  0.11058116  0.06167393  1  0.070761  0.00576  0.111488  0.093447  0.003932  0.985086  0.004
H  H24  1  0.89855847  0.93837604  0.88935124  1  0.068944  0.005738  0.111401  0.09361  0.00391  0.984433  0.004
H  H25  1  0.64852700  0.61059494  0.43838341  1  0.070018  0.005751  0.11137  0.093485  0.003925  0.984705  0.004
H  H26  1  0.39854738  0.06162494  0.11060341  1  0.069828  0.005732  0.111394  0.093395  0.003908  0.984532  0.004
H  H27  1  0.14855052  0.38944345  0.56162531  1  0.06982  0.00575  0.111374  0.093558  0.003923  0.984597  0.004
H  H28  1  0.49773621  0.40771630  0.60564192  1  0.072806  0.00564  0.117772  0.108758  0.00405  0.942377  0.003
H  H29  1  0.24773424  0.89437107  0.90772404  1  0.072784  0.005623  0.117751  0.108762  0.004036  0.9427  0.003
H  H30  1  0.99774272  0.59232033  0.39432290  1  0.072882  0.005641  0.117752  0.108772  0.004051  0.942278  0.003
H  H31  1  0.74775977  0.10567119  0.09229542  1  0.072447  0.00562  0.117781  0.10887  0.004032  0.942541  0.003
H  H32  1  0.75228354  0.90763518  0.89431323  1  0.073096  0.005641  0.117716  0.108607  0.004054  0.942203  0.003
H  H33  1  0.50222769  0.60567051  0.40769580  1  0.072639  0.005641  0.1178  0.108847  0.004051  0.942265  0.003
H  H34  1  0.25227622  0.09235218  0.10563165  1  0.073195  0.005636  0.117778  0.10863  0.004049  0.942243  0.003
H  H35  1  0.00224524  0.39435080  0.59226558  1  0.072433  0.005637  0.117799  0.108768  0.004047  0.942204  0.003
H  H36  1  0.44796812  0.33839850  0.66821143  1  0.087891  0.017917  0.108726  0.090688  0.014526  0.989081  0.011
H  H37  1  0.19799510  0.83180382  0.83840838  1  0.088054  0.017918  0.108636  0.090574  0.01453  0.989256  0.011
H  H38  1  0.94795308  0.66165092  0.33178904  1  0.087464  0.017901  0.108723  0.090641  0.014512  0.988998  0.011
H  H39  1  0.69798208  0.16819750  0.16162709  1  0.087916  0.017927  0.108712  0.090714  0.014537  0.989271  0.011
H  H40  1  0.80212411  0.83839888  0.83171424  1  0.086748  0.017916  0.108491  0.090437  0.014517  0.989282  0.011
H  H41  1  0.55206502  0.66822850  0.33840330  1  0.08765  0.017931  0.108733  0.090683  0.014535  0.989171  0.011
H  H42  1  0.30210535  0.16159880  0.16823717  1  0.087357  0.017937  0.108655  0.090583  0.014539  0.989032  0.011
H  H43  1  0.05206126  0.33178059  0.66155421  1  0.087456  0.017926  0.108641  0.090687  0.014531  0.989117  0.011
H  H44  1  0.51945810  0.22727507  0.65017899  1  0.148222  0.023784  0.114304  0.079944  0.019104  1.033358  0.017
H  H45  1  0.26941808  0.84987177  0.72729712  1  0.148636  0.023823  0.114364  0.080085  0.019139  1.0335  0.017
H  H46  1  0.01942376  0.77273812  0.34984870  1  0.14806  0.023769  0.114288  0.079928  0.019089  1.033505  0.017
H  H47  1  0.76939899  0.15012828  0.27272158  1  0.148567  0.02383  0.11433  0.080012  0.019145  1.033674  0.017
H  H48  1  0.73054251  0.72725127  0.84979798  1  0.1481  0.023786  0.114273  0.079911  0.019105  1.033054  0.017
H  H49  1  0.48056636  0.65016448  0.22727881  1  0.147883  0.023806  0.114327  0.079916  0.01912  1.03319  0.017
H  H50  1  0.23054634  0.27273613  0.15018001  1  0.148147  0.023828  0.114245  0.079911  0.019143  1.033028  0.017
H  H51  1  0.98053069  0.34982075  0.77268903  1  0.147706  0.023802  0.114309  0.079827  0.019117  1.033078  0.017
H  H52  1  0.60691921  0.11712510  0.35712403  1  0.077176  7.8e-05  0.111761  0.133723  -0.000814  1.015555  -0.001
H  H53  1  0.35690848  0.14288741  0.61716443  1  0.07609  8.7e-05  0.111822  0.133838  -0.000807  1.015632  -0.001
H  H54  1  0.10687614  0.88288043  0.64289948  1  0.076785  7.8e-05  0.111832  0.13405  -0.000815  1.015423  -0.001
H  H55  1  0.85685229  0.85711941  0.38289168  1  0.077041  8.5e-05  0.111793  0.133914  -0.000808  1.015624  -0.001
H  H56  1  0.64308961  0.61715450  0.14284967  1  0.076604  7.8e-05  0.111799  0.133763  -0.000814  1.015402  -0.001
H  H57  1  0.39314598  0.35711790  0.11715908  1  0.076372  7.9e-05  0.111822  0.133906  -0.000814  1.015261  -0.001
H  H58  1  0.14304485  0.38283363  0.85713424  1  0.076253  8.1e-05  0.111886  0.133824  -0.000812  1.015558  -0.001
H  H59  1  0.89311306  0.64286170  0.88284069  1  0.076582  7.7e-05  0.111846  0.133816  -0.000814  1.015526  -0.001
H  H60  1  0.66914357  0.00755575  0.43068926  1  0.093272  0.001141  0.09935  0.097389  0.000641  1.024849  0.001
H  H61  1  0.41914690  0.06935167  0.50760532  1  0.092382  0.001144  0.099403  0.097375  0.000646  1.024981  0.001
H  H62  1  0.16912175  0.99244389  0.56933085  1  0.093132  0.00114  0.099328  0.097257  0.00064  1.025022  0.001
H  H63  1  0.91908509  0.93066025  0.49244334  1  0.093182  0.001146  0.099409  0.097386  0.000648  1.024991  0.001
H  H64  1  0.58088875  0.50755087  0.06930733  1  0.093429  0.001139  0.099366  0.097439  0.00064  1.024547  0.001
H  H65  1  0.33090611  0.43066845  0.00757248  1  0.093663  0.001137  0.099424  0.09752  0.000638  1.024524  0.001
H  H66  1  0.08084872  0.49243622  0.93067594  1  0.09322  0.00114  0.099343  0.097344  0.000641  1.024505  0.001
H  H67  1  0.83088926  0.56930491  0.99243185  1  0.093722  0.001137  0.099435  0.097469  0.000639  1.024612  0.001
H  H68  1  0.65582486  0.00244861  0.57421871  1  0.060704  0.00109  0.098241  0.092236  0.000891  1.032952  -0.001
H  H69  1  0.40582929  0.92584745  0.50247843  1  0.061651  0.00108  0.098207  0.091988  0.000892  1.032888  -0.001
H  H70  1  0.15580630  0.99753777  0.42580035  1  0.061309  0.001084  0.098268  0.092257  0.00089  1.033138  -0.001
H  H71  1  0.90578364  0.07417431  0.49755070  1  0.061448  0.001083  0.098215  0.091975  0.000892  1.033062  -0.001
H  H72  1  0.59419886  0.50247545  0.92577264  1  0.061313  0.00108  0.09821  0.092265  0.000888  1.032689  -0.001
H  H73  1  0.34418815  0.57420780  0.00249693  1  0.061774  0.001078  0.098144  0.09199  0.000893  1.032955  -0.001
H  H74  1  0.09416271  0.49752548  0.07420705  1  0.061516  0.00108  0.098257  0.092251  0.000887  1.032902  -0.001
H  H75  1  0.84417910  0.42576438  0.99750209  1  0.061633  0.001083  0.098138  0.091914  0.000893  1.032898  -0.001
H  H76  1  0.58789675  0.11086165  0.64478425  1  0.077633  0.001512  0.10886  0.112763  0.000642  0.988354  0.001
H  H77  1  0.33788546  0.85526974  0.61087579  1  0.078433  0.001517  0.108927  0.112828  0.000646  0.988587  0.001
H  H78  1  0.08786023  0.88913756  0.35523999  1  0.077801  0.001512  0.108948  0.112892  0.000641  0.988311  0.001
H  H79  1  0.83784763  0.14473654  0.38913599  1  0.078173  0.001517  0.108959  0.112868  0.000647  0.98862  0.001
H  H80  1  0.66217708  0.61086996  0.85522184  1  0.077352  0.001509  0.108786  0.112793  0.00064  0.988282  0.001
H  H81  1  0.41214100  0.64475808  0.11090290  1  0.077995  0.00151  0.108925  0.112831  0.00064  0.988312  0.001
H  H82  1  0.16214046  0.38913143  0.14476538  1  0.077617  0.001511  0.108886  0.112825  0.000643  0.988221  0.001
H  H83  1  0.91211112  0.35521514  0.88907996  1  0.077605  0.00151  0.108817  0.112631  0.00064  0.988291  0.001
H  H84  1  0.09919391  0.11951093  0.66037891  1  0.065568  0.000826  0.109796  0.123552  -1.6e-05  1.020762  0.0
H  H85  1  0.84914748  0.83960999  0.61958907  1  0.065737  0.000829  0.109913  0.123705  -1.6e-05  1.020817  0.0
H  H86  1  0.59919723  0.88048537  0.33964466  1  0.066205  0.000822  0.109775  0.12354  -1.7e-05  1.020776  0.0
H  H87  1  0.34919020  0.16036969  0.38043128  1  0.065447  0.000827  0.109877  0.123623  -1.6e-05  1.02092  0.0
H  H88  1  0.15080437  0.61959426  0.83957815  1  0.065748  0.00082  0.109816  0.123486  -1.9e-05  1.021233  0.0
H  H89  1  0.90083992  0.66037824  0.11959154  1  0.065575  0.000818  0.109897  0.123547  -2.3e-05  1.02071  0.0
H  H90  1  0.65083748  0.38040427  0.16039761  1  0.065479  0.000822  0.109856  0.123561  -2e-05  1.020803  0.0
H  H91  1  0.40084787  0.33962505  0.88039429  1  0.065786  0.000818  0.109971  0.123706  -2.3e-05  1.020435  0.0
H  H92  1  0.18638407  0.23666596  0.40910186  1  0.100248  0.001008  0.102346  0.11036  0.000228  1.043021  0.001
H  H93  1  0.93638894  0.09086766  0.73664926  1  0.100129  0.001006  0.102414  0.110338  0.000226  1.043324  0.001
H  H94  1  0.68641098  0.76329725  0.59089556  1  0.141903  0.001064  0.102315  0.110235  0.000228  1.042859  0.001
H  H95  1  0.43639983  0.90912054  0.26333859  1  0.142511  0.001062  0.102438  0.110377  0.000226  1.043222  0.001
H  H96  1  0.06363832  0.73668047  0.09085183  1  0.099707  0.001001  0.102373  0.110222  0.000222  1.043096  0.001
H  H97  1  0.81356185  0.40910746  0.23668212  1  0.142003  0.001056  0.102295  0.11026  0.00022  1.042809  0.001
H  H98  1  0.56362794  0.26332513  0.90913101  1  0.099453  0.001  0.102413  0.110242  0.000222  1.042911  0.001
H  H99  1  0.31357986  0.59090811  0.76333505  1  0.142049  0.001057  0.102391  0.110291  0.00022  1.042722  0.001
H  H100  1  0.06935803  0.14108946  0.41311137  1  0.06429  0.00103  0.104504  0.103518  0.000551  0.992192  -0.001
H  H101  1  0.81936456  0.08687270  0.64107928  1  0.064693  0.001028  0.104593  0.103584  0.00055  0.992171  -0.001
H  H102  1  0.56939360  0.85887857  0.58691129  1  0.064901  0.001027  0.104516  0.103517  0.000552  0.992264  -0.001
H  H103  1  0.31938017  0.91311455  0.35891531  1  0.064672  0.001028  0.104554  0.103595  0.00055  0.99204  -0.001
H  H104  1  0.18064631  0.64108266  0.08683481  1  0.064328  0.001039  0.104802  0.103779  0.000549  0.992167  -0.001
H  H105  1  0.93057709  0.41310011  0.14109878  1  0.064871  0.001028  0.104637  0.10373  0.00055  0.992189  -0.001
H  H106  1  0.68064449  0.35891234  0.91313377  1  0.064485  0.001032  0.104617  0.103569  0.000551  0.992194  -0.001
H  H107  1  0.43061117  0.58690081  0.85889663  1  0.064697  0.001029  0.10457  0.103638  0.00055  0.99214  -0.001
H  H108  1  0.02585890  0.08335982  0.53925226  1  0.071837  0.001101  0.100118  0.094159  0.000361  1.027539  0.001
H  H109  1  0.77584460  0.96073256  0.58339348  1  0.072907  0.001099  0.100187  0.094066  0.00036  1.02755  0.001
H  H110  1  0.52588046  0.91663082  0.46078694  1  0.071882  0.001102  0.100128  0.093913  0.000361  1.02766  0.001
H  H111  1  0.27588219  0.03925129  0.41662343  1  0.072562  0.0011  0.100204  0.094103  0.00036  1.02764  0.001
H  H112  1  0.22409983  0.58334599  0.96069855  1  0.070997  0.001095  0.10014  0.094046  0.000357  1.027533  0.001
H  H113  1  0.97407772  0.53921879  0.08332310  1  0.071667  0.001096  0.100123  0.093856  0.000354  1.027876  0.001
H  H114  1  0.72411831  0.41664605  0.03926390  1  0.072086  0.001096  0.10016  0.093959  0.000358  1.027586  0.001
H  H115  1  0.47411590  0.46077050  0.91664827  1  0.071962  0.001097  0.100173  0.094064  0.000356  1.027487  0.001
C  C116  1  0.27351147  0.29229068  0.52710541  1  0.587158  -0.009359  0.089734  0.059001  -0.009018  3.937516  -0.011
C  C117  1  0.02350194  0.97286429  0.79229760  1  0.584853  -0.009354  0.090085  0.059575  -0.009011  3.937959  -0.011
C  C118  1  0.77351573  0.70768278  0.47288379  1  0.587719  -0.009391  0.089911  0.05944  -0.009042  3.937546  -0.011
C  C119  1  0.52352651  0.02711597  0.20769655  1  0.587397  -0.009363  0.0899  0.059397  -0.009009  3.937619  -0.011
C  C120  1  0.97653179  0.79237323  0.97284701  1  0.589202  -0.00947  0.089724  0.059639  -0.009065  3.937527  -0.011
C  C121  1  0.72646363  0.52710755  0.29236288  1  0.58723  -0.009441  0.08991  0.059274  -0.009057  3.938194  -0.011
C  C122  1  0.47653758  0.20763685  0.02713531  1  0.594344  -0.009477  0.089782  0.059344  -0.009045  3.938004  -0.011
C  C123  1  0.22646040  0.47292377  0.70765386  1  0.588074  -0.009452  0.089718  0.059004  -0.009048  3.937461  -0.011
C  C124  1  0.36955455  0.38701490  0.57709491  1  0.327392  0.025617  -0.048201  -0.072275  0.031492  3.950479  0.018
C  C125  1  0.11954872  0.92289112  0.88703224  1  0.32717  0.025624  -0.048143  -0.072543  0.031505  3.950665  0.018
C  C126  1  0.86955193  0.61296937  0.42288483  1  0.327107  0.025622  -0.048266  -0.072667  0.0315  3.950917  0.018
C  C127  1  0.61956781  0.07710803  0.11296054  1  0.326317  0.025647  -0.048029  -0.072253  0.03151  3.950595  0.018
C  C128  1  0.88048034  0.88706571  0.92283272  1  0.326781  0.025571  -0.048063  -0.072521  0.031409  3.950436  0.018
C  C129  1  0.63042159  0.57711313  0.38708400  1  0.325931  0.025609  -0.04801  -0.072296  0.031442  3.950458  0.018
C  C130  1  0.38047389  0.11294339  0.07711804  1  0.32657  0.025555  -0.048079  -0.07213  0.031401  3.950404  0.018
C  C131  1  0.13042378  0.42292010  0.61292602  1  0.327478  0.02557  -0.048112  -0.072463  0.031432  3.950657  0.018
C  C132  1  0.45432826  0.35813287  0.60775674  1  0.311346  0.016227  -0.04961  -0.062198  0.020003  3.962217  0.011
C  C133  1  0.20433656  0.89224768  0.85815996  1  0.311047  0.01627  -0.049605  -0.062089  0.020041  3.961604  0.011
C  C134  1  0.95431267  0.64188072  0.39222981  1  0.31169  0.016236  -0.049522  -0.061932  0.019999  3.961328  0.011
C  C135  1  0.70434525  0.10776635  0.14185234  1  0.311496  0.016271  -0.049647  -0.062339  0.020048  3.96147  0.011
C  C136  1  0.79573437  0.85809226  0.89217917  1  0.312519  0.016239  -0.049198  -0.061284  0.019995  3.960939  0.011
C  C137  1  0.54567052  0.60777640  0.35813990  1  0.312333  0.016217  -0.049679  -0.062237  0.019988  3.961807  0.011
C  C138  1  0.29572253  0.14189849  0.10777171  1  0.31245  0.016243  -0.049352  -0.06172  0.020009  3.961337  0.011
C  C139  1  0.04565928  0.39223964  0.64183789  1  0.312486  0.016216  -0.049655  -0.062418  0.019991  3.961872  0.011
C  C140  1  0.51939171  0.23633793  0.58694029  1  0.597688  -0.0134  0.083226  0.07543  -0.013244  3.965327  -0.012
C  C141  1  0.26935884  0.91310320  0.73635887  1  0.598715  -0.013375  0.083378  0.075648  -0.013221  3.96557  -0.012
C  C142  1  0.01933915  0.76367699  0.41308220  1  0.597741  -0.013417  0.083236  0.075568  -0.013255  3.965162  -0.012
C  C143  1  0.76934436  0.08689743  0.26365867  1  0.598292  -0.013371  0.083183  0.075286  -0.013217  3.96586  -0.012
C  C144  1  0.73068815  0.73632321  0.91304879  1  0.597828  -0.013341  0.083397  0.076046  -0.013204  3.965729  -0.012
C  C145  1  0.48066578  0.58691627  0.23634939  1  0.598433  -0.013377  0.083277  0.075602  -0.013223  3.965584  -0.012
C  C146  1  0.23066808  0.26367575  0.08692574  1  0.598158  -0.013344  0.083414  0.075745  -0.013199  3.965752  -0.012
C  C147  1  0.98061938  0.41307012  0.76361729  1  0.599159  -0.013372  0.083379  0.075597  -0.013216  3.965986  -0.012
C  C148  1  0.55674588  0.17459891  0.54218107  1  0.021375  0.096274  -0.011606  -0.03526  0.098121  3.939419  0.062
C  C149  1  0.30671046  0.95784970  0.67461301  1  0.020953  0.096163  -0.011672  -0.03578  0.098024  3.940601  0.062
C  C150  1  0.05668332  0.82542577  0.45784285  1  0.021699  0.096323  -0.01154  -0.035585  0.098181  3.940045  0.062
C  C151  1  0.80668541  0.04215143  0.32541232  1  0.021279  0.096108  -0.011471  -0.035189  0.097964  3.940302  0.062
C  C152  1  0.69332593  0.67460265  0.95782598  1  0.021008  0.096138  -0.011605  -0.035653  0.097974  3.940591  0.062
C  C153  1  0.44332230  0.54215019  0.17461433  1  0.020911  0.096145  -0.011639  -0.035515  0.098001  3.9406  0.062
C  C154  1  0.19328604  0.32539580  0.04216330  1  0.021083  0.096053  -0.011655  -0.035725  0.097892  3.940494  0.062
C  C155  1  0.94327333  0.45783396  0.82535787  1  0.020692  0.096157  -0.011694  -0.035536  0.098001  3.940364  0.062
C  C156  1  0.56021278  0.17671059  0.45833325  1  0.710599  0.032904  0.125554  0.363242  0.030734  4.038795  0.004
C  C157  1  0.31017473  0.04168547  0.67674202  1  0.710517  0.032864  0.125667  0.363748  0.030684  4.038177  0.004
C  C158  1  0.06015571  0.82330715  0.54169121  1  0.711189  0.032933  0.125426  0.36354  0.030739  4.037817  0.004
C  C159  1  0.81014596  0.95831682  0.32328905  1  0.710973  0.032864  0.125593  0.36345  0.030675  4.038115  0.004
C  C160  1  0.68980284  0.67672874  0.04163879  1  0.710889  0.032847  0.125639  0.363685  0.030702  4.039476  0.004
C  C161  1  0.43982757  0.45832455  0.17672319  1  0.710969  0.032871  0.125606  0.36375  0.030688  4.038844  0.004
C  C162  1  0.18975911  0.32326682  0.95834416  1  0.712521  0.032801  0.125539  0.363802  0.030663  4.0392  0.004
C  C163  1  0.93978347  0.54165728  0.82326117  1  0.711019  0.032854  0.125916  0.363993  0.030696  4.038884  0.004
C  C164  1  0.60288620  0.11454785  0.41984713  1  -0.006079  0.09522  -0.090819  -0.19984  0.098327  3.893277  0.058
C  C165  1  0.35287459  0.08018155  0.61459073  1  -0.0065  0.095054  -0.091023  -0.200159  0.098165  3.893594  0.058
C  C166  1  0.10284876  0.88546462  0.58017640  1  -0.006724  0.095206  -0.090927  -0.200557  0.098327  3.893249  0.058
C  C167  1  0.85282327  0.91982817  0.38545675  1  -0.006681  0.095033  -0.090826  -0.200205  0.098161  3.894028  0.058
C  C168  1  0.64713458  0.61457390  0.08013483  1  -0.005111  0.094975  -0.091003  -0.200092  0.098079  3.893771  0.058
C  C169  1  0.39714908  0.41982971  0.11458464  1  -0.006733  0.094934  -0.091166  -0.200392  0.098043  3.894164  0.058
C  C170  1  0.14709110  0.38541480  0.91984790  1  -0.00716  0.094971  -0.091051  -0.20022  0.098054  3.894069  0.058
C  C171  1  0.89712443  0.58015046  0.88541048  1  -0.006458  0.094979  -0.091121  -0.200178  0.098074  3.89419  0.058
C  C172  1  0.63717860  0.05409152  0.46130052  1  -0.063449  -0.021922  -0.087377  -0.056844  -0.021482  4.034227  -0.018
C  C173  1  0.38717565  0.03874742  0.55413738  1  -0.062376  -0.021873  -0.087337  -0.056831  -0.021438  4.034357  -0.018
C  C174  1  0.13715592  0.94591107  0.53871869  1  -0.063012  -0.021923  -0.087171  -0.056177  -0.021487  4.033823  -0.018
C  C175  1  0.88712366  0.96126513  0.44590808  1  -0.063378  -0.021872  -0.087461  -0.056712  -0.021437  4.034416  -0.018
C  C176  1  0.61284922  0.55410826  0.03870337  1  -0.063343  -0.021863  -0.087323  -0.05672  -0.021423  4.033598  -0.018
C  C177  1  0.36285552  0.46126729  0.05412708  1  -0.063189  -0.021872  -0.087239  -0.056676  -0.021434  4.033669  -0.018
C  C178  1  0.11281465  0.44588397  0.96128368  1  -0.063072  -0.021852  -0.087202  -0.056614  -0.021415  4.03346  -0.018
C  C179  1  0.86283541  0.53870890  0.94587063  1  -0.063231  -0.021871  -0.087318  -0.056903  -0.021432  4.033652  -0.018
C  C180  1  0.63085673  0.05156624  0.54238709  1  -0.061766  0.124224  -0.091271  -0.087536  0.126725  3.998586  0.072
C  C181  1  0.38084254  0.95766075  0.55159921  1  -0.062083  0.123993  -0.091223  -0.087275  0.126479  3.998225  0.072
C  C182  1  0.13083356  0.94843289  0.45763160  1  -0.061996  0.124261  -0.091337  -0.087681  0.126759  3.998539  0.072
C  C183  1  0.88080373  0.04235239  0.44843128  1  -0.062508  0.123954  -0.091249  -0.087221  0.126435  3.998325  0.072
C  C184  1  0.61918199  0.55158341  0.95761024  1  -0.062096  0.124013  -0.091211  -0.087675  0.126508  3.998625  0.072
C  C185  1  0.36917631  0.54236350  0.05160517  1  -0.061782  0.124113  -0.091231  -0.0875  0.126602  3.998275  0.072
C  C186  1  0.11914624  0.44841632  0.04237271  1  -0.062237  0.123917  -0.091418  -0.087743  0.126408  3.998472  0.072
C  C187  1  0.86915508  0.45761442  0.94838728  1  -0.062797  0.124124  -0.091237  -0.087278  0.126618  3.997682  0.072
C  C188  1  0.59183603  0.11187370  0.58178675  1  -0.015202  -0.017997  -0.08196  -0.112145  -0.016778  4.004449  -0.016
C  C189  1  0.34181115  0.91825414  0.61189349  1  -0.015071  -0.017958  -0.082114  -0.112148  -0.016737  4.004977  -0.016
C  C190  1  0.09179449  0.88813937  0.41823573  1  -0.015329  -0.018008  -0.082182  -0.112298  -0.016789  4.004906  -0.016
C  C191  1  0.84177472  0.08175444  0.38812866  1  -0.014932  -0.017943  -0.08227  -0.112548  -0.016719  4.005423  -0.016
C  C192  1  0.65823087  0.61187840  0.91822448  1  -0.015456  -0.017929  -0.082145  -0.112449  -0.016721  4.005277  -0.016
C  C193  1  0.40821530  0.58175801  0.11190171  1  -0.015275  -0.017968  -0.082204  -0.112403  -0.016753  4.005215  -0.016
C  C194  1  0.15819173  0.38811779  0.08176335  1  -0.015359  -0.017929  -0.082163  -0.112312  -0.016713  4.004534  -0.016
C  C195  1  0.90818026  0.41821984  0.88807829  1  -0.014509  -0.017971  -0.082003  -0.112093  -0.016755  4.004618  -0.016
C  C196  1  0.11638321  0.14581390  0.60536273  1  2.6e-05  0.085786  -0.095005  -0.207088  0.087607  3.919708  0.052
C  C197  1  0.86634515  0.89462133  0.64587160  1  0.001111  0.085803  -0.095507  -0.207648  0.087645  3.919448  0.052
C  C198  1  0.61639107  0.85417486  0.39465665  1  -0.002518  0.085882  -0.095038  -0.207079  0.087693  3.919154  0.052
C  C199  1  0.36638573  0.10536064  0.35414226  1  0.000746  0.08581  -0.095334  -0.20757  0.08765  3.920052  0.052
C  C200  1  0.13364396  0.64588146  0.89459201  1  0.00099  0.085714  -0.095116  -0.20698  0.087554  3.919202  0.052
C  C201  1  0.88364388  0.60535591  0.14586805  1  0.002105  0.085921  -0.095388  -0.207085  0.087762  3.919724  0.052
C  C202  1  0.63366571  0.35411883  0.10538043  1  0.001698  0.085758  -0.095397  -0.207437  0.087598  3.919575  0.052
C  C203  1  0.38364882  0.39464914  0.85412544  1  0.001694  0.085904  -0.095503  -0.207562  0.087749  3.919571  0.052
C  C204  1  0.18424600  0.20018587  0.60555824  1  0.72879  0.021596  0.12241  0.350332  0.019703  4.078923  -0.001
C  C205  1  0.93421152  0.89442417  0.70024867  1  0.726062  0.021646  0.122547  0.350374  0.019731  4.07848  -0.001
C  C206  1  0.68425839  0.79980508  0.39444729  1  0.730112  0.021585  0.122466  0.350378  0.019702  4.078432  -0.001
C  C207  1  0.43425136  0.10555999  0.29976520  1  0.727342  0.021632  0.122609  0.350967  0.019719  4.078283  -0.001
C  C208  1  0.06580559  0.70028592  0.89440327  1  0.726758  0.021698  0.122515  0.350051  0.019785  4.078183  -0.001
C  C209  1  0.81581096  0.60556967  0.20027109  1  0.7264  0.021705  0.122604  0.350093  0.019788  4.078837  -0.001
C  C210  1  0.56582808  0.29971737  0.10557897  1  0.726331  0.021699  0.122475  0.350013  0.019792  4.078457  -0.001
C  C211  1  0.31579504  0.39444532  0.79973682  1  0.726449  0.021693  0.122681  0.350385  0.019771  4.078407  -0.001
C  C212  1  0.20865149  0.23373655  0.53204719  1  0.061156  0.105824  -0.011633  -0.039448  0.108236  3.945806  0.069
C  C213  1  0.95864161  0.96793175  0.73376742  1  0.060672  0.10587  -0.011718  -0.039547  0.108279  3.946208  0.069
C  C214  1  0.70866763  0.76624396  0.46795988  1  0.059833  0.105913  -0.011698  -0.039863  0.10832  3.945906  0.069
C  C215  1  0.45866808  0.03205352  0.26623643  1  0.060319  0.105829  -0.011655  -0.039914  0.10824  3.94671  0.069
C  C216  1  0.04140696  0.73383811  0.96791325  1  0.054251  0.10595  -0.011717  -0.039487  0.108271  3.94587  0.069
C  C217  1  0.79135601  0.53206102  0.23382151  1  0.058066  0.105983  -0.01173  -0.039164  0.108355  3.945221  0.069
C  C218  1  0.54141387  0.26616927  0.03207497  1  0.053449  0.105936  -0.011811  -0.039157  0.108242  3.945716  0.069
C  C219  1  0.29135097  0.46795690  0.76619469  1  0.05931  0.105971  -0.011623  -0.039269  0.108363  3.944935  0.069
C  C220  1  0.16736590  0.21082811  0.46402674  1  -0.096743  -0.02411  -0.083644  -0.109474  -0.023104  3.974389  -0.02
C  C221  1  0.91735924  0.03594760  0.71084226  1  -0.096485  -0.024121  -0.083559  -0.109282  -0.023121  3.974297  -0.02
C  C222  1  0.66738385  0.78914380  0.53598182  1  -0.138066  -0.024188  -0.083585  -0.109205  -0.023135  3.973984  -0.02
C  C223  1  0.41738234  0.96404064  0.28915499  1  -0.138855  -0.024169  -0.083629  -0.109196  -0.023115  3.974479  -0.02
C  C224  1  0.08267919  0.71088958  0.03592751  1  -0.096698  -0.024129  -0.083512  -0.108998  -0.023137  3.974394  -0.02
C  C225  1  0.83261193  0.46403964  0.21087941  1  -0.138174  -0.024202  -0.083492  -0.109405  -0.023149  3.974067  -0.02
C  C226  1  0.58267514  0.28911715  0.96405691  1  -0.097085  -0.024118  -0.083546  -0.10923  -0.023127  3.974043  -0.02
C  C227  1  0.33262477  0.53597359  0.78913415  1  -0.137976  -0.024196  -0.083639  -0.109326  -0.023141  3.973699  -0.02
C  C228  1  0.10157859  0.15766709  0.46618800  1  -0.031146  0.118728  -0.090705  -0.088286  0.121343  3.989027  0.069
C  C229  1  0.85157529  0.03379141  0.65768036  1  -0.030711  0.11883  -0.09082  -0.088568  0.121455  3.988757  0.069
C  C230  1  0.60160400  0.84230841  0.53383382  1  -0.030388  0.118799  -0.090804  -0.088337  0.12143  3.988704  0.069
C  C231  1  0.35159662  0.96619636  0.34232033  1  -0.030086  0.118806  -0.090803  -0.088508  0.121444  3.988361  0.069
C  C232  1  0.14844145  0.65770085  0.03376286  1  -0.028922  0.118851  -0.091226  -0.08909  0.121505  3.989123  0.069
C  C233  1  0.89838067  0.46618318  0.15768619  1  -0.029512  0.119081  -0.090769  -0.08845  0.121725  3.988578  0.069
C  C234  1  0.64844230  0.34230345  0.96621466  1  -0.029837  0.118881  -0.090884  -0.088618  0.121518  3.988885  0.069
C  C235  1  0.39840432  0.53382069  0.84231295  1  -0.030247  0.119066  -0.090663  -0.088473  0.121707  3.988424  0.069
C  C236  1  0.07646157  0.12578338  0.53749876  1  -0.084544  -0.019115  -0.084806  -0.056231  -0.018585  4.045959  -0.016
C  C237  1  0.82643829  0.96248005  0.62581832  1  -0.084707  -0.019117  -0.084686  -0.055634  -0.018594  4.045226  -0.016
C  C238  1  0.57648320  0.87420140  0.46253077  1  -0.084254  -0.019129  -0.084711  -0.055832  -0.018607  4.045218  -0.016
C  C239  1  0.32647189  0.03750487  0.37419471  1  -0.084595  -0.019113  -0.084757  -0.055887  -0.018594  4.045672  -0.016
C  C240  1  0.17354677  0.62581458  0.96244921  1  -0.083601  -0.019074  -0.084622  -0.055721  -0.018564  4.044878  -0.016
C  C241  1  0.92351130  0.53748292  0.12578891  1  -0.084331  -0.019143  -0.084581  -0.055705  -0.018622  4.045682  -0.016
C  C242  1  0.67356096  0.37418795  0.03751943  1  -0.084266  -0.019083  -0.084572  -0.055418  -0.018566  4.045371  -0.016
C  C243  1  0.42353227  0.46251281  0.87420078  1  -0.084344  -0.019145  -0.084642  -0.055741  -0.018624  4.0453  -0.016
N  N244  1  0.05936620  0.20466853  0.79279102  1  0.835888  -0.000609  0.087825  0.718668  -0.000302  4.425195  -0.001
N  N245  1  0.80939948  0.70719606  0.70474834  1  0.833039  -0.000605  0.088094  0.719291  -0.000302  4.425173  -0.001
N  N246  1  0.55939927  0.79531801  0.20724732  1  0.834056  -0.000609  0.087666  0.7185  -0.000303  4.425902  -0.001
N  N247  1  0.30941823  0.29284494  0.29525038  1  0.833165  -0.000607  0.08784  0.718722  -0.000302  4.42617  -0.001
N  N248  1  0.19054572  0.70484784  0.70711357  1  0.830556  -0.000609  0.087383  0.717939  -0.000306  4.427188  -0.001
N  N249  1  0.94056508  0.79296851  0.20474225  1  0.834129  -0.000609  0.087688  0.7177  -0.000305  4.426707  -0.001
N  N250  1  0.69058213  0.29517083  0.29289133  1  0.832587  -0.000609  0.087937  0.718391  -0.000305  4.426964  -0.001
N  N251  1  0.44058293  0.20700062  0.79527389  1  0.83536  -0.00061  0.08768  0.717594  -0.000305  4.426744  -0.001
N  N252  1  0.48776486  0.29829950  0.55901069  1  -1.081787  0.262935  -0.259077  -0.115989  0.265602  3.255773  0.204
N  N253  1  0.23774353  0.94102877  0.79832243  1  -1.082227  0.263295  -0.259076  -0.115896  0.265982  3.255081  0.204
N  N254  1  0.98771344  0.70170941  0.44100852  1  -1.081553  0.262905  -0.259035  -0.116051  0.265593  3.255014  0.204
N  N255  1  0.73774608  0.05897711  0.20168670  1  -1.081835  0.263318  -0.258956  -0.115699  0.266006  3.255204  0.204
N  N256  1  0.76238912  0.79824069  0.94094249  1  -1.082121  0.262432  -0.259473  -0.116822  0.265159  3.257171  0.204
N  N257  1  0.51228992  0.55901605  0.29830820  1  -1.082739  0.262848  -0.25913  -0.115955  0.265537  3.256446  0.204
N  N258  1  0.26236441  0.20175706  0.05902426  1  -1.08282  0.262803  -0.2594  -0.116354  0.265517  3.257067  0.204
N  N259  1  0.01224718  0.44098098  0.70166929  1  -1.083421  0.262715  -0.259144  -0.115675  0.265384  3.256921  0.204
N  N260  1  0.30448127  0.33010161  0.58387980  1  -1.070759  0.369452  -0.228412  -0.066917  0.374567  3.260901  0.288
N  N261  1  0.05448262  0.91609432  0.83011424  1  -1.068284  0.369889  -0.228528  -0.066785  0.37501  3.261354  0.289
N  N262  1  0.80446792  0.66987411  0.41609643  1  -1.070723  0.369524  -0.228507  -0.066929  0.374645  3.260994  0.288
N  N263  1  0.55450493  0.08388934  0.16988311  1  -1.070406  0.369872  -0.228551  -0.066914  0.374988  3.261121  0.289
N  N264  1  0.94560217  0.83020187  0.91605335  1  -1.067174  0.369099  -0.22853  -0.067332  0.374266  3.261669  0.288
N  N265  1  0.69552472  0.58389002  0.33018524  1  -1.068904  0.368806  -0.228469  -0.067157  0.373913  3.261459  0.288
N  N266  1  0.44559994  0.16980943  0.08392287  1  -1.07091  0.368868  -0.22851  -0.067182  0.374014  3.261562  0.288
N  N267  1  0.19550939  0.41614482  0.66983580  1  -1.07053  0.368677  -0.228512  -0.067198  0.373754  3.26165  0.288
Cl  Cl268  1  0.24995709  0.08000682  0.91993968  1  -0.541719  0.275879  -0.270959  -0.520266  0.272213  0.878422  0.216
Cl  Cl269  1  0.99988968  0.58005942  0.58005344  1  -0.541926  0.276439  -0.270633  -0.519975  0.272764  0.878327  0.216
Cl  Cl270  1  0.74997102  0.92000077  0.08006877  1  -0.541745  0.275787  -0.271015  -0.520321  0.272122  0.87828  0.216
Cl  Cl271  1  0.49996421  0.41998876  0.41990153  1  -0.541931  0.27635  -0.270626  -0.51997  0.272675  0.878492  0.216
O  O272  1  0.10442939  0.26555863  0.78827046  1  -0.557728  0.011535  -0.209859  -0.4866  0.011752  2.064635  0.01
O  O273  1  0.85449386  0.71172033  0.76562380  1  -0.557759  0.01149  -0.210293  -0.48704  0.011708  2.065346  0.01
O  O274  1  0.60447450  0.73443304  0.21175711  1  -0.557522  0.011526  -0.209976  -0.486776  0.011744  2.065209  0.01
O  O275  1  0.35450440  0.28828650  0.23437513  1  -0.557477  0.011509  -0.210157  -0.486796  0.011727  2.065671  0.01
O  O276  1  0.14543711  0.76571692  0.71163990  1  -0.556522  0.011537  -0.209584  -0.486109  0.011755  2.065314  0.01
O  O277  1  0.89547325  0.78853552  0.26562993  1  -0.557823  0.011509  -0.210024  -0.48607  0.011721  2.065413  0.01
O  O278  1  0.64548124  0.23429721  0.28839600  1  -0.557433  0.011539  -0.209888  -0.486394  0.011758  2.066059  0.01
O  O279  1  0.39549042  0.21148221  0.73439119  1  -0.558858  0.011519  -0.210057  -0.486199  0.011731  2.065336  0.01
O  O280  1  0.22303524  0.21793261  0.66785178  1  -1.077932  0.225487  -0.343808  -0.517858  0.226167  2.356636  0.198
O  O281  1  0.97299917  0.83213880  0.71801602  1  -1.07744  0.225464  -0.343636  -0.517688  0.226152  2.357268  0.198
O  O282  1  0.72304952  0.78207098  0.33215286  1  -1.077735  0.225616  -0.34357  -0.517639  0.226298  2.356695  0.198
O  O283  1  0.47303591  0.16785049  0.28199927  1  -1.077613  0.225464  -0.343677  -0.518021  0.226154  2.356874  0.198
O  O284  1  0.02700310  0.71803803  0.83211665  1  -1.078217  0.225171  -0.343953  -0.517868  0.225859  2.356888  0.197
O  O285  1  0.77707347  0.66788622  0.21802305  1  -1.077902  0.225258  -0.343755  -0.518072  0.22594  2.356743  0.197
O  O286  1  0.52703824  0.28196013  0.16787400  1  -1.077709  0.225246  -0.343827  -0.517938  0.225927  2.356921  0.197
O  O287  1  0.27704464  0.33213288  0.78199905  1  -1.077767  0.225253  -0.343772  -0.518109  0.22593  2.35646  0.197
O  O288  1  0.09971162  0.14037628  0.80067121  1  -0.585977  0.017836  -0.231332  -0.523796  0.018166  2.048166  0.016
O  O289  1  0.84971373  0.69933688  0.64043765  1  -0.584088  0.017766  -0.231438  -0.523757  0.018101  2.048112  0.016
O  O290  1  0.59973332  0.85961482  0.19938471  1  -0.585483  0.017824  -0.23128  -0.523744  0.018151  2.048356  0.016
O  O291  1  0.34973939  0.30077743  0.35954976  1  -0.584829  0.017796  -0.231344  -0.523683  0.018139  2.048454  0.016
O  O292  1  0.15024007  0.64054521  0.69914405  1  -0.584166  0.017727  -0.231403  -0.523614  0.018074  2.048948  0.016
O  O293  1  0.90024452  0.80090361  0.14043888  1  -0.58587  0.017737  -0.231423  -0.523625  0.01808  2.048432  0.016
O  O294  1  0.65027124  0.35947123  0.30082074  1  -0.584084  0.01772  -0.231542  -0.523603  0.018065  2.049056  0.016
O  O295  1  0.40026366  0.19904479  0.85957412  1  -0.58544  0.017761  -0.231357  -0.52349  0.018106  2.048443  0.016
O  O296  1  0.98140273  0.20674612  0.78925972  1  -0.506448  0.004077  -0.165794  -0.394251  0.003901  1.891054  0.003
O  O297  1  0.73143469  0.71069799  0.70686501  1  -0.505147  0.004111  -0.165674  -0.394473  0.003936  1.891574  0.003
O  O298  1  0.48143700  0.79322697  0.21077168  1  -0.50542  0.00408  -0.165633  -0.394028  0.003905  1.891518  0.003
O  O299  1  0.23145536  0.28930733  0.29314996  1  -0.505058  0.00411  -0.165607  -0.394244  0.003935  1.891154  0.003
O  O300  1  0.26850607  0.70696291  0.71071977  1  -0.503872  0.004127  -0.165699  -0.394267  0.003953  1.891827  0.003
O  O301  1  0.01852163  0.78929860  0.20684645  1  -0.50457  0.00411  -0.165642  -0.394037  0.003934  1.89142  0.003
O  O302  1  0.76854252  0.29305794  0.28928969  1  -0.505023  0.004122  -0.16587  -0.394438  0.003948  1.891078  0.003
O  O303  1  0.51854456  0.21064179  0.79317085  1  -0.505257  0.00411  -0.16562  -0.393988  0.003935  1.891289  0.003
O  O304  1  0.52549821  0.23196099  0.42065072  1  -1.081238  0.239091  -0.344574  -0.529557  0.23829  2.320647  0.207
O  O305  1  0.27543394  0.07933589  0.73200170  1  -1.081517  0.239165  -0.344847  -0.52973  0.238347  2.320422  0.207
O  O306  1  0.02544152  0.76805739  0.57937750  1  -1.081988  0.238986  -0.344662  -0.529714  0.238178  2.320171  0.207
O  O307  1  0.77541962  0.92066068  0.26801983  1  -1.081998  0.239259  -0.344793  -0.529663  0.238442  2.320063  0.207
O  O308  1  0.72445816  0.73200777  0.07931707  1  -1.081873  0.238678  -0.345099  -0.530241  0.237894  2.320756  0.207
O  O309  1  0.47453259  0.42065255  0.23198741  1  -1.08224  0.238502  -0.345077  -0.530097  0.2377  2.320547  0.207
O  O310  1  0.22442874  0.26798427  0.92067485  1  -1.082119  0.238753  -0.345029  -0.530283  0.237986  2.32053  0.207
O  O311  1  0.97448392  0.57933385  0.76799956  1  -1.081793  0.238574  -0.345316  -0.530415  0.237783  2.320777  0.207
