# generated using pymatgen
data_Al2H18C21(N2O5)2
_symmetry_space_group_name_H-M   'P 1'
_cell_length_a   6.66201058
_cell_length_b   11.26067686
_cell_length_c   11.02835514
_cell_angle_alpha   75.76325623
_cell_angle_beta   73.70549884
_cell_angle_gamma   70.33828898
_symmetry_Int_Tables_number   1
_chemical_formula_structural   Al2H18C21(N2O5)2
_chemical_formula_sum   'Al2 H18 C21 N4 O10'
_cell_volume   737.21891354
_cell_formula_units_Z   1
loop_
 _symmetry_equiv_pos_site_id
 _symmetry_equiv_pos_as_xyz
  1  'x, y, z'
loop_
 _atom_site_type_symbol
 _atom_site_label
 _atom_site_symmetry_multiplicity
 _atom_site_fract_x
 _atom_site_fract_y
 _atom_site_fract_z
 _atom_site_occupancy
 _atom_site_pbe_bader_charge
 _atom_site_pbe_bader_spin_density
 _atom_site_pbe_cm5_charge
 _atom_site_pbe_ddec_charge
 _atom_site_pbe_ddec_spin_density
 _atom_site_pbe_ddec_sum_bond_order
 _atom_site_pbe_magmom
Al  Al0  1  0.49134264  0.50514341  0.50479785  1  2.501594  0  0.38809  1.637953  0  2.595586  0
Al  Al1  1  0.99381487  0.50540966  0.49929116  1  2.50171  0  0.393914  1.630298  0  2.584206  0
H  H2  1  0.30417569  0.34340213  0.55217730  1  0.634052  0  0.342582  0.412678  0  0.891765  0
H  H3  1  0.68008138  0.66713545  0.44076071  1  0.591311  0  0.336909  0.403933  0  0.90932  0
H  H4  1  0.09959952  0.58569309  0.08956233  1  0.105471  0  0.108042  0.114381  0  0.995927  0
H  H5  1  0.75601830  0.44758025  0.14750034  1  0.080752  0  0.111312  0.123163  0  0.994893  0
H  H6  1  0.24774758  0.57033000  0.85606377  1  0.088252  0  0.111383  0.114594  0  1.008286  0
H  H7  1  0.25211983  0.24736395  0.32048037  1  0.067512  0  0.101074  0.120772  0  1.032018  0
H  H8  1  0.45112410  0.77915032  0.33941150  1  0.03636  0  0.103629  0.114455  0  1.056361  0
H  H9  1  0.04575907  0.47072495  0.83621505  1  0.100169  0  0.102322  0.152921  0  1.003947  0
H  H10  1  0.01101264  0.31913618  0.86342706  1  0.043591  0  0.095698  0.137269  0  0.981813  0
H  H11  1  0.05367170  0.37371606  0.99066217  1  0.031583  0  0.089413  0.124767  0  1.010985  0
H  H12  1  0.71615956  0.78936659  0.60677490  1  0.458746  0  0.299667  0.300261  0  0.97878  0
H  H13  1  0.52926545  0.93339344  0.61640544  1  0.446045  0  0.304401  0.296248  0  0.94974  0
H  H14  1  0.56355031  0.21579426  0.64579995  1  0.451041  0  0.306539  0.297196  0  0.972872  0
H  H15  1  0.54809713  0.06550407  0.71266814  1  0.433429  0  0.301808  0.287519  0  0.960104  0
H  H16  1  0.58344629  0.24344043  0.16306590  1  0.456366  0  0.290141  0.280651  0  0.987546  0
H  H17  1  0.72320257  0.11182804  0.09583829  1  0.431789  0  0.295745  0.279529  0  0.967864  0
H  H18  1  0.79530636  0.78934730  0.21023632  1  0.427195  0  0.301378  0.298492  0  0.946087  0
H  H19  1  0.88010680  0.91812762  0.19116360  1  0.418762  0  0.300204  0.289722  0  0.955715  0
C  C20  1  0.87590838  0.27947505  0.48620905  1  1.520347  0  0.269374  0.673314  0  4.049484  0
C  C21  1  0.65120455  0.48638495  0.73353614  1  1.569692  0  0.263648  0.637621  0  4.098233  0
C  C22  1  0.11565369  0.73291238  0.50788562  1  1.530679  0  0.268642  0.674789  0  4.050915  0
C  C23  1  0.33995170  0.52666538  0.27032796  1  1.571901  0  0.262916  0.629645  0  4.115279  0
C  C24  1  0.58129056  0.49494773  0.87292881  1  -0.116873  0  -0.012039  -0.102431  0  3.913863  0
C  C25  1  0.42098918  0.51800972  0.13136216  1  -0.00771  0  -0.014468  -0.033332  0  4.009421  0
C  C26  1  0.73135069  0.45844324  0.95372545  1  -0.031441  0  0.005051  0.16666  0  3.933335  0
C  C27  1  0.27454637  0.55209962  0.05068537  1  -0.051715  0  -0.086557  -0.111079  0  3.999604  0
C  C28  1  0.64594576  0.47330392  0.08224266  1  -0.034061  0  -0.085193  -0.170695  0  3.929561  0
C  C29  1  0.35649090  0.54228739  0.92201048  1  0.057419  0  -0.080003  -0.083843  0  3.997951  0
C  C30  1  0.94123643  0.14063791  0.48462099  1  0.054141  0  -0.033569  -0.219861  0  3.953645  0
C  C31  1  0.14956865  0.07718285  0.41197864  1  0.027942  0  -0.020164  0.058741  0  4.056755  0
C  C32  1  0.79085345  0.07311112  0.55467107  1  0.405061  0  0.095211  0.192414  0  4.037049  0
C  C33  1  0.29652590  0.14379435  0.32948841  1  -0.005916  0  -0.121331  -0.266097  0  3.985886  0
C  C34  1  0.49499149  0.08214113  0.25781137  1  0.367177  0  0.079093  0.202053  0  4.100135  0
C  C35  1  0.05177173  0.87392655  0.49233917  1  0.027482  0  -0.036641  -0.223446  0  3.962402  0
C  C36  1  0.84254178  0.93908986  0.55288027  1  0.359859  0  0.094229  0.192292  0  4.051181  0
C  C37  1  0.20689424  0.94152828  0.41780254  1  0.021622  0  -0.023566  0.056332  0  4.059626  0
C  C38  1  0.40930029  0.88071898  0.34209026  1  -0.016128  0  -0.127238  -0.289353  0  4.020191  0
C  C39  1  0.55497168  0.94653258  0.26626814  1  0.345362  0  0.07548  0.199457  0  4.102406  0
C  C40  1  0.97329485  0.40261568  0.90948551  1  -0.076406  0  -0.240684  -0.418044  0  3.963313  0
N  N41  1  0.68385128  0.87948026  0.62374038  1  -1.196368  0  -0.603969  -0.611379  0  3.29578  0
N  N42  1  0.58906388  0.12594825  0.63089012  1  -1.216115  0  -0.597155  -0.600901  0  3.324914  0
N  N43  1  0.64316237  0.14650815  0.17883987  1  -1.249604  0  -0.601527  -0.602772  0  3.309549  0
N  N44  1  0.75392233  0.88659147  0.19035598  1  -1.196984  0  -0.607555  -0.622738  0  3.275171  0
O  O45  1  0.67534322  0.33950466  0.48484691  1  -1.276766  0  -0.23983  -0.608446  0  2.382465  0
O  O46  1  0.84318541  0.49204421  0.67655154  1  -1.25936  0  -0.230617  -0.581417  0  2.377251  0
O  O47  1  0.97757968  0.67840203  0.50310825  1  -1.265254  0  -0.238855  -0.609059  0  2.355129  0
O  O48  1  0.47407056  0.53619094  0.32741352  1  -1.258371  0  -0.237363  -0.590571  0  2.369489  0
O  O49  1  0.30643953  0.67115707  0.52674602  1  -1.275728  0  -0.236967  -0.597914  0  2.371185  0
O  O50  1  0.14391167  0.52358953  0.32066708  1  -1.25853  0  -0.241284  -0.596354  0  2.339501  0
O  O51  1  0.01330913  0.33337310  0.49134437  1  -1.265536  0  -0.234437  -0.595645  0  2.349139  0
O  O52  1  0.51116310  0.47510812  0.68146450  1  -1.259801  0  -0.24242  -0.602351  0  2.346065  0
O  O53  1  0.25703329  0.43503047  0.55316717  1  -1.44152  0  -0.450591  -0.977362  0  2.173371  0
O  O54  1  0.72739989  0.57443179  0.44955863  1  -1.404226  0  -0.453873  -0.98503  0  2.207463  0
