# generated using pymatgen
data_H12PbC17N3O5F
_symmetry_space_group_name_H-M   'P 1'
_cell_length_a   6.54909796
_cell_length_b   8.35685987
_cell_length_c   16.07432669
_cell_angle_alpha   84.72984207
_cell_angle_beta   84.59199858
_cell_angle_gamma   83.21421841
_symmetry_Int_Tables_number   1
_chemical_formula_structural   H12PbC17N3O5F
_chemical_formula_sum   'H24 Pb2 C34 N6 O10 F2'
_cell_volume   866.79119833
_cell_formula_units_Z   2
loop_
 _symmetry_equiv_pos_site_id
 _symmetry_equiv_pos_as_xyz
  1  'x, y, z'
loop_
 _atom_site_type_symbol
 _atom_site_label
 _atom_site_symmetry_multiplicity
 _atom_site_fract_x
 _atom_site_fract_y
 _atom_site_fract_z
 _atom_site_occupancy
 _atom_site_hle17_bader_spin_density
 _atom_site_hle17_ddec_charge
 _atom_site_hle17_ddec_spin_density
 _atom_site_hle17_ddec_sum_bond_order
 _atom_site_hle17_magmom
 _atom_site_hse06_10hf_bader_spin_density
 _atom_site_hse06_10hf_ddec_charge
 _atom_site_hse06_10hf_ddec_spin_density
 _atom_site_hse06_10hf_ddec_sum_bond_order
 _atom_site_hse06_10hf_magmom
 _atom_site_hse06_bader_spin_density
 _atom_site_hse06_ddec_charge
 _atom_site_hse06_ddec_spin_density
 _atom_site_hse06_ddec_sum_bond_order
 _atom_site_hse06_magmom
 _atom_site_pbe_bader_spin_density
 _atom_site_pbe_cm5_charge
 _atom_site_pbe_ddec_charge
 _atom_site_pbe_ddec_spin_density
 _atom_site_pbe_ddec_sum_bond_order
 _atom_site_pbe_magmom
H  H0  1  0.32618247  0.29884744  0.05592453  1  0  0.076405  0  0.975787  0  0  0.082216  0  1.049587  0  0  0.084554  0  1.047263  0  0  0.114322  0.080598  0  1.051092  0
H  H1  1  0.67376140  0.70108896  0.94410129  1  0  0.07639  0  0.975801  0  0  0.082169  0  1.04967  0  0  0.084504  0  1.047341  0  0  0.114296  0.080547  0  1.05117  0
H  H2  1  0.18516713  0.03514475  0.05503800  1  0  0.114837  0  0.928507  0  0  0.127126  0  0.981107  0  0  0.13058  0  0.97996  0  0  0.110551  0.124622  0  0.98215  0
H  H3  1  0.81478504  0.96477595  0.94499636  1  0  0.114894  0  0.928899  0  0  0.12712  0  0.981482  0  0  0.130584  0  0.980322  0  0  0.110523  0.124611  0  0.982536  0
H  H4  1  0.35335835  0.79238268  0.13887399  1  0  0.092136  0  0.980083  0  0  0.099924  0  1.046719  0  0  0.102426  0  1.045018  0  0  0.106179  0.098163  0  1.047796  0
H  H5  1  0.64669628  0.20754016  0.86113517  1  0  0.092046  0  0.97991  0  0  0.099657  0  1.04671  0  0  0.10216  0  1.045007  0  0  0.106197  0.097868  0  1.04784  0
H  H6  1  0.66128225  0.82374097  0.21316829  1  0  0.110736  0  1.013386  0  0  0.118643  0  1.076508  0  0  0.121811  0  1.075879  0  0  0.107455  0.116413  0  1.076987  0
H  H7  1  0.33878588  0.17625069  0.78682020  1  0  0.110888  0  1.01307  0  0  0.118822  0  1.076154  0  0  0.121994  0  1.075534  0  0  0.107458  0.11658  0  1.076656  0
H  H8  1  0.90050345  0.86009365  0.27393192  1  0  0.125871  0  0.950083  0  0  0.137315  0  1.006267  0  0  0.140971  0  1.004477  0  0  0.114687  0.134623  0  1.007799  0
H  H9  1  0.09951273  0.13990786  0.72608235  1  0  0.125838  0  0.949874  0  0  0.137409  0  1.005953  0  0  0.141089  0  1.004122  0  0  0.114665  0.13471  0  1.007498  0
H  H10  1  0.20051303  0.92292243  0.34396802  1  0  0.092992  0  0.961909  0  0  0.104408  0  1.020928  0  0  0.105609  0  1.022129  0  0  0.105236  0.103477  0  1.020159  0
H  H11  1  0.79943829  0.07710468  0.65607487  1  0  0.092931  0  0.961974  0  0  0.10444  0  1.020884  0  0  0.105636  0  1.022086  0  0  0.105274  0.103509  0  1.020116  0
H  H12  1  0.30467213  0.20725374  0.32324942  1  0  0.117474  0  0.967856  0  0  0.120945  0  1.035145  0  0  0.125265  0  1.032477  0  0  0.104663  0.11789  0  1.037098  0
H  H13  1  0.69536529  0.79272704  0.67672273  1  0  0.117387  0  0.967894  0  0  0.120982  0  1.035084  0  0  0.125305  0  1.032416  0  0  0.104575  0.117918  0  1.037029  0
H  H14  1  0.09491647  0.41543115  0.23752595  1  0  0.097893  0  0.945933  0  0  0.103621  0  1.014977  0  0  0.10696  0  1.011133  0  0  0.121823  0.101144  0  1.01781  0
H  H15  1  0.90505285  0.58457649  0.76248672  1  0  0.097908  0  0.945752  0  0  0.103574  0  1.014876  0  0  0.106918  0  1.011019  0  0  0.121832  0.101085  0  1.017744  0
H  H16  1  0.70796291  0.72893784  0.41468303  1  0  0.128509  0  0.948164  0  0  0.135735  0  1.013801  0  0  0.139797  0  1.010818  0  0  0.11002  0.132769  0  1.016098  0
H  H17  1  0.29203789  0.27110832  0.58529856  1  0  0.128568  0  0.948048  0  0  0.135918  0  1.013582  0  0  0.139981  0  1.010599  0  0  0.110011  0.132953  0  1.01588  0
H  H18  1  0.17471485  0.80811521  0.59055047  1  0  0.115984  0  0.967933  0  0  0.123275  0  1.032106  0  0  0.125994  0  1.031995  0  0  0.102412  0.121355  0  1.032236  0
H  H19  1  0.82529817  0.19196481  0.40943895  1  0  0.116117  0  0.968157  0  0  0.123425  0  1.032248  0  0  0.126148  0  1.032135  0  0  0.102454  0.121502  0  1.032377  0
H  H20  1  0.97385666  0.65816975  0.50473892  1  0  0.090108  0  0.964136  0  0  0.099752  0  1.025633  0  0  0.102291  0  1.024915  0  0  0.101107  0.097896  0  1.026283  0
H  H21  1  0.02614068  0.34191271  0.49524974  1  0  0.089748  0  0.964418  0  0  0.099567  0  1.025752  0  0  0.102103  0  1.025035  0  0  0.101107  0.097717  0  1.026391  0
H  H22  1  0.14288424  0.54384218  0.37334906  1  0  0.109156  0  0.946897  0  0  0.11787  0  1.011014  0  0  0.121533  0  1.008508  0  0  0.106  0.1152  0  1.012952  0
H  H23  1  0.85710230  0.45621856  0.62664356  1  0  0.109026  0  0.947066  0  0  0.117789  0  1.01112  0  0  0.121456  0  1.008609  0  0  0.106001  0.11512  0  1.01306  0
Pb  Pb24  1  0.68379869  0.48076017  0.13316860  1  0  1.193933  0  1.502095  0  0  0.990773  0  1.910468  0  0  1.048856  0  1.870872  0  0  0.605751  0.946189  0  1.942507  0
Pb  Pb25  1  0.31619128  0.51919788  0.86685066  1  0  1.19414  0  1.501771  0  0  0.990907  0  1.910005  0  0  1.04896  0  1.870496  0  0  0.605864  0.946263  0  1.942136  0
C  C26  1  0.39663434  0.19032210  0.08960939  1  0  0.134024  0  3.70119  0  0  0.102063  0  3.954452  0  0  0.109217  0  3.973125  0  0  0.052431  0.097535  0  3.94143  0
C  C27  1  0.60335405  0.80962500  0.91038806  1  0  0.134025  0  3.701545  0  0  0.101965  0  3.954777  0  0  0.10913  0  3.97345  0  0  0.052381  0.097446  0  3.941727  0
C  C28  1  0.31871764  0.04239294  0.08947524  1  0  -0.09939  0  3.702897  0  0  -0.114291  0  3.954433  0  0  -0.120848  0  3.976076  0  0  -0.07851  -0.110214  0  3.940046  0
C  C29  1  0.68127579  0.95752882  0.91054005  1  0  -0.099733  0  3.703229  0  0  -0.114503  0  3.954706  0  0  -0.121071  0  3.976328  0  0  -0.078509  -0.110425  0  3.940311  0
C  C30  1  0.41358392  0.90912782  0.13527713  1  0  -0.012465  0  3.736707  0  0  -0.026989  0  3.982386  0  0  -0.024926  0  4.003688  0  0  -0.066933  -0.027924  0  3.967688  0
C  C31  1  0.58647066  0.09078403  0.86469896  1  0  -0.012077  0  3.736484  0  0  -0.026512  0  3.98224  0  0  -0.024429  0  4.003521  0  0  -0.066932  -0.027466  0  3.967572  0
C  C32  1  0.58449433  0.92702508  0.17763570  1  0  -0.152264  0  3.70286  0  0  -0.169062  0  3.943831  0  0  -0.177076  0  3.966305  0  0  -0.080415  -0.163798  0  3.928658  0
C  C33  1  0.41553871  0.07292069  0.82234766  1  0  -0.152753  0  3.703147  0  0  -0.169537  0  3.944099  0  0  -0.177574  0  3.966591  0  0  -0.080528  -0.164265  0  3.928922  0
C  C34  1  0.65475376  0.07928753  0.17498935  1  0  0.185378  0  3.748908  0  0  0.179699  0  3.988343  0  0  0.187215  0  4.008071  0  0  0.127909  0.174658  0  3.974789  0
C  C35  1  0.34526128  0.92067765  0.82500558  1  0  0.185495  0  3.748944  0  0  0.17967  0  3.988421  0  0  0.187188  0  4.008152  0  0  0.127845  0.174636  0  3.974865  0
C  C36  1  0.83492149  0.10649397  0.21929966  1  0  0.178716  0  3.745448  0  0  0.172442  0  3.987136  0  0  0.179804  0  4.007434  0  0  0.126918  0.167529  0  3.97317  0
C  C37  1  0.16507931  0.89349663  0.78069645  1  0  0.178814  0  3.745571  0  0  0.172513  0  3.987309  0  0  0.179877  0  4.007601  0  0  0.126854  0.167572  0  3.973382  0
C  C38  1  0.94483216  0.98259500  0.26739938  1  0  -0.137563  0  3.664101  0  0  -0.155227  0  3.906511  0  0  -0.162353  0  3.926275  0  0  -0.073037  -0.150638  0  3.893413  0
C  C39  1  0.05514173  0.01740175  0.73261551  1  0  -0.137544  0  3.663981  0  0  -0.155364  0  3.906457  0  0  -0.162487  0  3.926205  0  0  -0.072944  -0.150768  0  3.893373  0
C  C40  1  0.11424725  0.01779623  0.30612204  1  0  -0.002197  0  3.718232  0  0  -0.01697  0  3.962111  0  0  -0.013319  0  3.981143  0  0  -0.063963  -0.019127  0  3.949236  0
C  C41  1  0.88579307  0.98218579  0.69385865  1  0  -0.002176  0  3.718283  0  0  -0.017018  0  3.962234  0  0  -0.013362  0  3.981272  0  0  -0.064007  -0.019174  0  3.949346  0
C  C42  1  0.17223560  0.17408721  0.29555586  1  0  -0.109196  0  3.705856  0  0  -0.124725  0  3.962497  0  0  -0.131439  0  3.982272  0  0  -0.079344  -0.120524  0  3.949392  0
C  C43  1  0.82774559  0.82590107  0.70445853  1  0  -0.108993  0  3.705667  0  0  -0.124694  0  3.962328  0  0  -0.131404  0  3.982078  0  0  -0.07927  -0.120478  0  3.949217  0
C  C44  1  0.05563086  0.29143237  0.24742901  1  0  0.137163  0  3.685193  0  0  0.103291  0  3.939734  0  0  0.110703  0  3.957762  0  0  0.057637  0.098566  0  3.927304  0
C  C45  1  0.94440676  0.70855815  0.75256382  1  0  0.137168  0  3.685498  0  0  0.103342  0  3.940011  0  0  0.110754  0  3.95804  0  0  0.057599  0.098608  0  3.927585  0
C  C46  1  0.54121769  0.56281758  0.30741612  1  0  0.615665  0  3.938814  0  0  0.568686  0  4.225309  0  0  0.60267  0  4.220313  0  0  0.197814  0.545807  0  4.227287  0
C  C47  1  0.45880693  0.43721168  0.69258715  1  0  0.615649  0  3.938785  0  0  0.568646  0  4.225319  0  0  0.602635  0  4.22031  0  0  0.197759  0.545764  0  4.227294  0
C  C48  1  0.43613604  0.62704630  0.38679132  1  0  -0.034253  0  3.766077  0  0  -0.009029  0  4.00012  0  0  -0.015824  0  4.023836  0  0  -0.016988  -0.004718  0  3.984198  0
C  C49  1  0.56386410  0.37300474  0.61320312  1  0  -0.033886  0  3.765767  0  0  -0.008632  0  3.999799  0  0  -0.015422  0  4.023507  0  0  -0.016824  -0.004322  0  3.983881  0
C  C50  1  0.54789117  0.71221327  0.43461357  1  0  -0.197182  0  3.739179  0  0  -0.232927  0  3.993779  0  0  -0.235537  0  4.012002  0  0  -0.096162  -0.230955  0  3.981655  0
C  C51  1  0.45210763  0.28784741  0.56537050  1  0  -0.197582  0  3.738948  0  0  -0.233417  0  3.993715  0  0  -0.236034  0  4.011941  0  0  -0.096253  -0.231444  0  3.981592  0
C  C52  1  0.44977264  0.77430556  0.50670819  1  0  0.303426  0  3.809472  0  0  0.292787  0  4.091807  0  0  0.302484  0  4.102015  0  0  0.092979  0.285769  0  4.085142  0
C  C53  1  0.55024147  0.22574422  0.49327706  1  0  0.303872  0  3.809152  0  0  0.29296  0  4.09186  0  0  0.302659  0  4.102072  0  0  0.09298  0.28594  0  4.085196  0
C  C54  1  0.24508519  0.75696093  0.53342051  1  0  -0.171152  0  3.742687  0  0  -0.197191  0  3.994687  0  0  -0.199735  0  4.012531  0  0  -0.097972  -0.195286  0  3.982635  0
C  C55  1  0.75491908  0.24310459  0.46656622  1  0  -0.171466  0  3.74292  0  0  -0.19743  0  3.995069  0  0  -0.199955  0  4.012868  0  0  -0.097851  -0.195541  0  3.983056  0
C  C56  1  0.13471504  0.67289281  0.48486503  1  0  -0.050768  0  3.774372  0  0  -0.060526  0  4.028092  0  0  -0.062636  0  4.049458  0  0  -0.088369  -0.059083  0  4.013572  0
C  C57  1  0.86528864  0.32719929  0.51511733  1  0  -0.050308  0  3.774004  0  0  -0.060222  0  4.027679  0  0  -0.062329  0  4.049053  0  0  -0.088489  -0.058783  0  4.013159  0
C  C58  1  0.22888968  0.60785051  0.41197891  1  0  -0.094776  0  3.731084  0  0  -0.126494  0  3.988614  0  0  -0.126983  0  4.008063  0  0  -0.091589  -0.126025  0  3.975493  0
C  C59  1  0.77110303  0.39222107  0.58800673  1  0  -0.094917  0  3.730826  0  0  -0.126644  0  3.988379  0  0  -0.127141  0  4.007835  0  0  -0.091695  -0.126173  0  3.975256  0
N  N60  1  0.55894534  0.20816863  0.13157931  1  0  -0.348023  0  3.222789  0  0  -0.271695  0  3.46576  0  0  -0.291843  0  3.486892  0  0  -0.291253  -0.257535  0  3.450917  0
N  N61  1  0.44102464  0.79177854  0.86842943  1  0  -0.347933  0  3.222452  0  0  -0.27133  0  3.465122  0  0  -0.291489  0  3.48627  0  0  -0.291074  -0.257153  0  3.450239  0
N  N62  1  0.89117132  0.25809307  0.21112200  1  0  -0.351416  0  3.238577  0  0  -0.271647  0  3.480291  0  0  -0.292607  0  3.50261  0  0  -0.291958  -0.256955  0  3.464591  0
N  N63  1  0.10880410  0.74190370  0.78889781  1  0  -0.35162  0  3.238957  0  0  -0.271764  0  3.480535  0  0  -0.292719  0  3.502842  0  0  -0.291929  -0.257058  0  3.464831  0
N  N64  1  0.13012866  0.64064003  0.05266280  1  0  0.691381  0  4.158847  0  0  0.718358  0  4.454041  0  0  0.747891  0  4.459351  0  0  0.102629  0.700336  0  4.449167  0
N  N65  1  0.86980074  0.35935678  0.94734260  1  0  0.691133  0  4.158847  0  0  0.718709  0  4.453341  0  0  0.748235  0  4.458633  0  0  0.103022  0.698785  0  4.44881  0
O  O66  1  0.44028804  0.47978441  0.26571363  1  0  -0.627539  0  1.931382  0  0  -0.564338  0  2.16331  0  0  -0.59343  0  2.156736  0  0  -0.305784  -0.543463  0  2.16687  0
O  O67  1  0.55975108  0.52025083  0.73427386  1  0  -0.627429  0  1.931364  0  0  -0.564283  0  2.163348  0  0  -0.59337  0  2.156775  0  0  -0.305662  -0.543409  0  2.166912  0
O  O68  1  0.72276640  0.59767440  0.28373250  1  0  -0.637232  0  1.934671  0  0  -0.577387  0  2.157407  0  0  -0.604298  0  2.150512  0  0  -0.316865  -0.558057  0  2.161102  0
O  O69  1  0.27727779  0.40229079  0.71627997  1  0  -0.637484  0  1.934788  0  0  -0.577584  0  2.157442  0  0  -0.604514  0  2.150569  0  0  -0.317048  -0.558251  0  2.161154  0
O  O70  1  0.32068597  0.58622645  0.04235853  1  0  -0.523633  0  1.838664  0  0  -0.495842  0  2.075251  0  0  -0.516867  0  2.070918  0  0  -0.177502  -0.481182  0  2.077786  0
O  O71  1  0.67923939  0.41373293  0.95766128  1  0  -0.523698  0  1.838954  0  0  -0.495967  0  2.075055  0  0  -0.517066  0  2.070881  0  0  -0.177726  -0.480491  0  2.077557  0
O  O72  1  0.02975733  0.67854088  0.98848344  1  0  -0.488092  0  1.772556  0  0  -0.47749  0  2.000833  0  0  -0.495331  0  1.996581  0  0  -0.180875  -0.465198  0  2.003245  0
O  O73  1  0.97021626  0.32146912  0.01151340  1  0  -0.487967  0  1.772337  0  0  -0.477623  0  2.000432  0  0  -0.495459  0  1.996177  0  0  -0.181049  -0.464562  0  2.002924  0
O  O74  1  0.04379223  0.65515269  0.12552251  1  0  -0.460106  0  1.760459  0  0  -0.445738  0  1.979089  0  0  -0.460529  0  1.972246  0  0  -0.17257  -0.435769  0  1.983492  0
O  O75  1  0.95615815  0.34484772  0.87448750  1  0  -0.459914  0  1.760396  0  0  -0.445707  0  1.978741  0  0  -0.460487  0  1.971902  0  0  -0.172592  -0.434931  0  1.983161  0
F  F76  1  0.55978708  0.85645072  0.55372541  1  0  -0.214473  0  1.203735  0  0  -0.16133  0  1.367487  0  0  -0.170999  0  1.358293  0  0  -0.098366  -0.154238  0  1.373764  0
F  F77  1  0.44025571  0.14355792  0.44626510  1  0  -0.214623  0  1.203697  0  0  -0.161383  0  1.367526  0  0  -0.171052  0  1.358333  0  0  -0.098383  -0.154292  0  1.373806  0
