# generated using pymatgen
data_MnH16C12(IO2)4
_symmetry_space_group_name_H-M   'P 1'
_cell_length_a   8.48497915
_cell_length_b   13.01756499
_cell_length_c   21.91452562
_cell_angle_alpha   91.16694594
_cell_angle_beta   89.99650631
_cell_angle_gamma   89.99512436
_symmetry_Int_Tables_number   1
_chemical_formula_structural   MnH16C12(IO2)4
_chemical_formula_sum   'Mn4 H64 C48 I16 O32'
_cell_volume   2420.03988012
_cell_formula_units_Z   4
loop_
 _symmetry_equiv_pos_site_id
 _symmetry_equiv_pos_as_xyz
  1  'x, y, z'
loop_
 _atom_site_type_symbol
 _atom_site_label
 _atom_site_symmetry_multiplicity
 _atom_site_fract_x
 _atom_site_fract_y
 _atom_site_fract_z
 _atom_site_occupancy
 _atom_site_pbe_bader_charge
 _atom_site_pbe_bader_spin_density
 _atom_site_pbe_cm5_charge
 _atom_site_pbe_ddec_charge
 _atom_site_pbe_ddec_spin_density
 _atom_site_pbe_ddec_sum_bond_order
 _atom_site_pbe_magmom
Mn  Mn0  1  0.49999657  0.99999767  0.50000030  1  1.519616  -4.555367  0.596408  0.997872  -4.680521  2.244357  -4.49
Mn  Mn1  1  0.99998124  0.50000033  0.00000224  1  1.519879  -4.55385  0.596855  0.998567  -4.679036  2.244866  -4.489
Mn  Mn2  1  0.50002126  0.99999897  0.00000312  1  1.519094  -4.553183  0.59889  1.005687  -4.678061  2.251001  -4.488
Mn  Mn3  1  0.00000359  0.49998823  0.50000106  1  1.519709  4.551355  0.599138  1.00595  4.681162  2.252316  4.487
H  H4  1  0.85796960  0.91363808  0.46160357  1  0.044954  -0.000419  0.089723  0.087276  5.2e-05  1.029492  0.0
H  H5  1  0.35789319  0.58638266  0.03841301  1  0.044354  -0.000589  0.089696  0.086998  -6e-06  1.029499  0.0
H  H6  1  0.14202708  0.08635992  0.53839603  1  0.044964  -0.000419  0.089719  0.087291  5.2e-05  1.029477  0.0
H  H7  1  0.64205634  0.41363609  0.96158714  1  0.045055  -0.000589  0.089744  0.087201  -6e-06  1.029512  0.0
H  H8  1  0.94886553  0.02376456  0.42859717  1  0.05967  -0.002183  0.08001  0.07661  -0.001178  1.059917  -0.001
H  H9  1  0.44878557  0.47623453  0.07141428  1  0.060029  -0.002421  0.079892  0.076111  -0.00135  1.060172  -0.001
H  H10  1  0.05112997  0.97623037  0.57140242  1  0.059502  -0.002184  0.079992  0.076563  -0.001179  1.059984  -0.001
H  H11  1  0.55116985  0.52378972  0.92859137  1  0.059402  -0.002421  0.080037  0.076562  -0.001349  1.059712  -0.001
H  H12  1  0.77344039  0.97054864  0.39585871  1  0.090892  -0.000275  0.095841  0.10076  0.000123  1.005213  0.0
H  H13  1  0.27330001  0.52944959  0.10414478  1  0.086739  -0.000327  0.095786  0.100511  9.4e-05  1.005204  0.0
H  H14  1  0.22655511  0.02944941  0.60414318  1  0.090906  -0.000276  0.095837  0.100741  0.000122  1.005088  0.0
H  H15  1  0.72664599  0.47057301  0.89585584  1  0.086943  -0.000326  0.095853  0.100649  9.4e-05  1.00517  0.0
H  H16  1  0.53301649  0.80844019  0.58180306  1  0.078018  -0.000457  0.092826  0.101157  -6.5e-05  1.02907  0.0
H  H17  1  0.03306756  0.69154880  0.91819788  1  0.077692  -0.000572  0.093025  0.10149  -0.000157  1.029315  0.0
H  H18  1  0.46694836  0.19154095  0.41819830  1  0.077709  -0.000456  0.092997  0.101465  -6.5e-05  1.029257  0.0
H  H19  1  0.96691733  0.30845774  0.08180541  1  0.077523  -0.000572  0.092953  0.1014  -0.000158  1.029184  0.0
H  H20  1  0.59946685  0.69784673  0.53933202  1  0.077464  -0.001239  0.089922  0.090194  -0.000931  1.050311  -0.001
H  H21  1  0.09946019  0.80212781  0.96066770  1  0.060894  -0.002259  0.090003  0.090416  -0.000944  1.05024  -0.001
H  H22  1  0.40050979  0.30213656  0.46066250  1  0.060952  -0.001258  0.089949  0.090253  -0.000932  1.050462  -0.001
H  H23  1  0.90052941  0.19787342  0.03933877  1  0.061181  -0.002259  0.089971  0.090234  -0.000944  1.05035  -0.001
H  H24  1  0.39956774  0.74337220  0.53069791  1  0.019891  -9.4e-05  0.088055  0.087602  0.000113  1.031706  0.0
H  H25  1  0.89956585  0.75661900  0.96927540  1  0.020351  -0.000601  0.08807  0.08771  0.000116  1.032056  0.0
H  H26  1  0.60040537  0.25660719  0.46929386  1  0.020209  -9.3e-05  0.088064  0.087671  0.000113  1.031805  0.0
H  H27  1  0.10041786  0.24338893  0.03072151  1  0.020235  -0.000601  0.088054  0.087642  0.000116  1.031999  0.0
H  H28  1  0.77515309  0.94722879  0.09363663  1  0.05831  -0.000445  0.098605  0.106687  -1.2e-05  1.00161  0.0
H  H29  1  0.27513004  0.55274129  0.40634890  1  0.058195  0.000406  0.098738  0.106805  -1.1e-05  1.001714  0.0
H  H30  1  0.22487894  0.05276672  0.90635474  1  0.058011  -0.000444  0.098655  0.106804  -1.1e-05  1.001633  0.0
H  H31  1  0.72488549  0.44724595  0.59365020  1  0.058273  0.000406  0.098715  0.106851  -1.1e-05  1.001629  0.0
H  H32  1  0.94747817  0.01729529  0.07254823  1  0.051881  -0.002298  0.077238  0.071395  -0.001251  1.064857  -0.001
H  H33  1  0.44742102  0.48262323  0.42742961  1  0.052114  0.002134  0.077296  0.071514  0.001141  1.064896  0.001
H  H34  1  0.05256447  0.98269408  0.92744358  1  0.052084  -0.002297  0.077249  0.071407  -0.001251  1.064857  -0.001
H  H35  1  0.55258626  0.51736328  0.57257132  1  0.051779  0.002134  0.077237  0.071436  0.001142  1.0649  0.001
H  H36  1  0.87615325  0.91372008  0.02467981  1  0.046082  -0.000565  0.087981  0.082805  4.5e-05  1.03132  0.0
H  H37  1  0.37615513  0.58623269  0.47529589  1  0.045911  0.000485  0.088103  0.083058  -4.1e-05  1.031065  0.0
H  H38  1  0.12388468  0.08626628  0.97531427  1  0.046443  -0.000565  0.087905  0.082748  4.5e-05  1.031203  0.0
H  H39  1  0.62386511  0.41376291  0.52469960  1  0.046389  0.000484  0.08802  0.082918  -4.1e-05  1.031146  0.0
H  H40  1  0.38907978  0.76084141  0.95608289  1  0.027591  -0.000431  0.086999  0.089987  0.000144  1.02802  0.0
H  H41  1  0.88905552  0.73916805  0.54392543  1  0.027561  0.00022  0.08702  0.08988  -8.7e-05  1.028185  0.0
H  H42  1  0.61094400  0.23917484  0.04390858  1  0.027301  -0.000432  0.087051  0.089915  0.000144  1.028154  0.0
H  H43  1  0.11093997  0.26081702  0.45608005  1  0.027618  0.00022  0.086994  0.090035  -8.7e-05  1.027989  0.0
H  H44  1  0.48086999  0.74819571  0.02908501  1  0.09716  -0.000343  0.095135  0.103754  -5.8e-05  1.029603  0.0
H  H45  1  0.98074945  0.75179605  0.47090017  1  0.097064  0.000273  0.09506  0.103772  7.1e-05  1.029524  0.0
H  H46  1  0.51914790  0.25182133  0.97090737  1  0.097381  -0.000343  0.095145  0.103705  -5.7e-05  1.029737  0.0
H  H47  1  0.01924133  0.24818444  0.52910666  1  0.096944  0.000272  0.09508  0.10386  7.1e-05  1.029475  0.0
H  H48  1  0.56797787  0.68674788  0.96352942  1  0.065201  -0.002283  0.092474  0.09466  -0.000982  1.04432  -0.001
H  H49  1  0.06796140  0.81323595  0.53643049  1  0.064229  0.001344  0.09255  0.094774  0.000956  1.04401  0.001
H  H50  1  0.43204002  0.31326228  0.03646430  1  0.06437  -0.002284  0.092425  0.094554  -0.000982  1.044345  -0.001
H  H51  1  0.93203174  0.18674521  0.46357224  1  0.063837  0.001345  0.09256  0.094875  0.000956  1.044048  0.001
H  H52  1  0.78165687  0.06521081  0.51774711  1  0.653258  -0.000792  0.29528  0.332211  -0.001215  0.998898  -0.001
H  H53  1  0.28165999  0.43483759  0.98224383  1  0.653113  -0.000804  0.295477  0.332384  -0.001224  0.999067  -0.001
H  H54  1  0.21833980  0.93478264  0.48225521  1  0.653291  -0.000792  0.295315  0.332268  -0.001214  0.998851  -0.001
H  H55  1  0.71831076  0.56518196  0.01775769  1  0.652884  -0.000805  0.295515  0.332383  -0.001223  0.99903  -0.001
H  H56  1  0.55954324  0.80329323  0.45126064  1  0.606519  -0.001926  0.295157  0.318389  -0.001205  0.97974  -0.002
H  H57  1  0.05948956  0.69669362  0.04873706  1  0.606325  -0.001975  0.295048  0.318187  -0.001252  0.979859  -0.002
H  H58  1  0.44043693  0.19670016  0.54873894  1  0.606499  -0.001927  0.295141  0.318349  -0.001206  0.979726  -0.002
H  H59  1  0.94049297  0.30330984  0.95126622  1  0.606548  -0.001974  0.295143  0.318323  -0.001252  0.979744  -0.002
H  H60  1  0.78310301  0.06973785  0.98365977  1  0.630491  -0.000926  0.295209  0.331377  -0.001155  0.998876  -0.001
H  H61  1  0.28306478  0.43023513  0.51632899  1  0.630447  0.000931  0.295265  0.331451  0.001181  0.998815  0.001
H  H62  1  0.21693728  0.93024749  0.01632335  1  0.630511  -0.000927  0.295228  0.33143  -0.001155  0.998815  -0.001
H  H63  1  0.71695664  0.56976837  0.48367612  1  0.630518  0.000931  0.295212  0.331429  0.001181  0.998883  0.001
H  H64  1  0.63180022  0.84916872  0.92970694  1  0.580014  -0.001407  0.284611  0.295317  -0.000764  1.020866  -0.001
H  H65  1  0.13177872  0.65079368  0.57024174  1  0.580879  0.001397  0.284639  0.295511  0.000764  1.021121  0.001
H  H66  1  0.36822356  0.15083753  0.07028358  1  0.580363  -0.001405  0.284636  0.29535  -0.000763  1.020829  -0.001
H  H67  1  0.86822031  0.34919446  0.42976330  1  0.580998  0.001396  0.284639  0.295471  0.000764  1.021272  0.001
C  C68  1  0.67946254  0.04845087  0.61812786  1  1.577205  -0.00994  0.198286  0.566831  -0.009746  4.273086  -0.008
C  C69  1  0.17945901  0.45156936  0.88186317  1  1.577247  -0.009894  0.198717  0.567947  -0.00972  4.272072  -0.008
C  C70  1  0.32052235  0.95153865  0.38187034  1  1.576931  -0.009945  0.198439  0.567136  -0.009747  4.272869  -0.008
C  C71  1  0.82050585  0.54844175  0.11813877  1  1.577426  -0.009893  0.198502  0.567405  -0.00972  4.273032  -0.008
C  C72  1  0.67620636  0.05412091  0.68716194  1  0.104438  -0.004957  -0.028754  -0.069094  -0.003518  3.977304  -0.003
C  C73  1  0.17615890  0.44590187  0.81283146  1  0.103925  0.00112  -0.028815  -0.06967  0.001302  3.977871  0.001
C  C74  1  0.32378325  0.94588860  0.31283680  1  0.104332  -0.00496  -0.028726  -0.069278  -0.003521  3.977648  -0.003
C  C75  1  0.82383660  0.55409911  0.18716405  1  0.10391  0.001122  -0.028883  -0.069622  0.001305  3.978004  0.001
C  C76  1  0.60518826  0.13819814  0.71750721  1  -0.179374  -0.002447  -0.059753  -0.012656  -0.001866  3.89081  -0.001
C  C77  1  0.10517901  0.36181806  0.78249838  1  -0.179075  -0.0038  -0.059759  -0.012273  -0.002869  3.891199  -0.003
C  C78  1  0.39479781  0.86180755  0.28249288  1  -0.179302  -0.002447  -0.059783  -0.01267  -0.001867  3.890792  -0.001
C  C79  1  0.89482710  0.63818535  0.21750307  1  -0.178908  -0.003802  -0.059704  -0.012274  -0.002871  3.890815  -0.003
C  C80  1  0.60452878  0.14441353  0.78154508  1  -0.224753  -0.002521  -0.061895  -0.018614  -0.001924  3.906142  -0.001
C  C81  1  0.10452911  0.35558679  0.71846959  1  -0.224434  0.003247  -0.061842  -0.018736  0.002457  3.906549  0.002
C  C82  1  0.39545729  0.85559906  0.21845413  1  -0.224489  -0.002524  -0.062049  -0.018776  -0.001926  3.90591  -0.001
C  C83  1  0.89548524  0.64441450  0.28153961  1  -0.224622  0.003249  -0.061979  -0.018762  0.002459  3.906296  0.002
C  C84  1  0.67355687  0.06545270  0.81532021  1  0.050006  -0.005056  -0.029598  -0.073136  -0.003589  3.980362  -0.003
C  C85  1  0.17354025  0.43452497  0.68467671  1  0.049439  -0.001502  -0.029785  -0.073729  -0.001599  3.980807  -0.002
C  C86  1  0.32642920  0.93455979  0.18467444  1  0.049768  -0.005055  -0.029427  -0.073064  -0.003589  3.980523  -0.003
C  C87  1  0.82648942  0.56546479  0.31533244  1  0.049687  -0.001504  -0.029839  -0.073908  -0.001602  3.980866  -0.002
C  C88  1  0.73959096  0.98007983  0.78482859  1  -0.105204  -0.003127  -0.055242  -0.00132  -0.002412  3.883939  -0.002
C  C89  1  0.23951002  0.51991840  0.71516781  1  -0.10464  0.003764  -0.055158  -0.001  0.002825  3.884166  0.003
C  C90  1  0.26042693  0.01993212  0.21517655  1  -0.105001  -0.003128  -0.055241  -0.001197  -0.002414  3.883661  -0.002
C  C91  1  0.76053616  0.48006439  0.28483903  1  -0.105052  0.003768  -0.055038  -0.000868  0.002828  3.88358  0.003
C  C92  1  0.74279370  0.97464295  0.72091081  1  -0.231943  -0.003187  -0.055851  -0.001695  -0.002413  3.895811  -0.002
C  C93  1  0.24273982  0.52536398  0.77907003  1  -0.231664  -0.004031  -0.055864  -0.001439  -0.003052  3.896459  -0.003
C  C94  1  0.25721122  0.02537125  0.27909206  1  -0.231878  -0.003187  -0.055817  -0.00158  -0.002413  3.896147  -0.002
C  C95  1  0.75728396  0.47463471  0.22092592  1  -0.231553  -0.004034  -0.05599  -0.001757  -0.003055  3.896049  -0.003
C  C96  1  0.67334138  0.07071351  0.88443741  1  1.590518  -0.010836  0.199321  0.571487  -0.010435  4.264418  -0.009
C  C97  1  0.17334090  0.42927721  0.61555820  1  1.590169  0.010633  0.19943  0.571627  0.010276  4.264488  0.009
C  C98  1  0.32664587  0.92929690  0.11556727  1  1.590289  -0.010843  0.19934  0.571533  -0.010439  4.264458  -0.009
C  C99  1  0.82667228  0.57071857  0.38444504  1  1.589682  0.010636  0.199556  0.571931  0.010275  4.264296  0.009
C  C100  1  0.83591700  0.98658563  0.43878652  1  0.351876  -0.00388  -0.157295  -0.126638  -0.003601  3.917633  -0.003
C  C101  1  0.33581722  0.51340819  0.06120813  1  0.356075  -0.004098  -0.156897  -0.125331  -0.003808  3.91791  -0.003
C  C102  1  0.16407968  0.01341083  0.56121307  1  0.35198  -0.00388  -0.157258  -0.126553  -0.0036  3.917477  -0.003
C  C103  1  0.66413349  0.48661135  0.93879294  1  0.356044  -0.004096  -0.1571  -0.126239  -0.003811  3.91806  -0.003
C  C104  1  0.52302973  0.76584073  0.53832047  1  0.364994  -0.00332  -0.158984  -0.139678  -0.002987  3.900572  -0.002
C  C105  1  0.02302246  0.73415463  0.96166614  1  0.380872  -0.004415  -0.15917  -0.140162  -0.003861  3.900993  -0.003
C  C106  1  0.47694338  0.23414487  0.46167406  1  0.381193  -0.003304  -0.159118  -0.140148  -0.002989  3.900963  -0.002
C  C107  1  0.97696007  0.26585036  0.03833715  1  0.381128  -0.004413  -0.159055  -0.139786  -0.00386  3.900647  -0.003
C  C108  1  0.84164568  0.97784620  0.05517935  1  0.383191  -0.004301  -0.155035  -0.117896  -0.003876  3.904897  -0.003
C  C109  1  0.34162659  0.52212006  0.44479952  1  0.383291  0.00417  -0.155221  -0.118275  0.003739  3.904652  0.003
C  C110  1  0.15839107  0.02214703  0.94481293  1  0.383021  -0.0043  -0.154989  -0.117942  -0.003876  3.904758  -0.003
C  C111  1  0.65839366  0.47787635  0.55519779  1  0.383136  0.004167  -0.155064  -0.118098  0.003737  3.904662  0.003
C  C112  1  0.50239035  0.75436640  0.98000699  1  0.349732  -0.004603  -0.154037  -0.125269  -0.003909  3.862978  -0.003
C  C113  1  0.00234058  0.74562071  0.51997187  1  0.350613  0.003703  -0.154074  -0.125252  0.003333  3.862694  0.002
C  C114  1  0.49762754  0.24564602  0.01998491  1  0.350093  -0.004603  -0.154023  -0.125071  -0.003907  3.863212  -0.003
C  C115  1  0.99764667  0.25436516  0.48003499  1  0.350941  0.003704  -0.154215  -0.125916  0.003334  3.863047  0.002
I  I116  1  0.49813785  0.25418457  0.66522141  1  0.178427  -0.002424  0.131769  0.025214  -0.002272  1.882978  -0.001
I  I117  1  0.99814060  0.24583021  0.83479651  1  0.178424  -0.002403  0.131703  0.025011  -0.002063  1.88263  -0.001
I  I118  1  0.50189418  0.74582871  0.33477461  1  0.178565  -0.002423  0.13177  0.025252  -0.002272  1.88285  -0.001
I  I119  1  0.00186786  0.75416406  0.16520810  1  0.178441  -0.002401  0.131741  0.025109  -0.002061  1.882914  -0.001
I  I120  1  0.49769163  0.26738304  0.83017505  1  0.204863  -0.002073  0.122001  0.0332  -0.001649  1.866226  -0.001
I  I121  1  0.99771351  0.23260473  0.66983638  1  0.204535  0.000633  0.121874  0.033103  0.000286  1.865796  0.0
I  I122  1  0.50231447  0.73263337  0.16982372  1  0.204959  -0.002072  0.121987  0.033158  -0.001648  1.866306  -0.001
I  I123  1  0.00226785  0.76739567  0.33016780  1  0.204601  0.000634  0.121923  0.033158  0.000287  1.866149  0.0
I  I124  1  0.82754223  0.85720673  0.83662411  1  0.121929  -0.004033  0.137243  0.02009  -0.00373  1.730765  -0.002
I  I125  1  0.32742012  0.64278142  0.66334409  1  0.121681  0.002107  0.137053  0.019768  0.001941  1.730636  0.001
I  I126  1  0.17250983  0.14282761  0.16338614  1  0.121823  -0.004031  0.137147  0.01998  -0.003729  1.730492  -0.002
I  I127  1  0.67262606  0.35720275  0.33665545  1  0.121928  0.002108  0.137089  0.019827  0.001941  1.730888  0.001
I  I128  1  0.84496858  0.84890939  0.67337678  1  0.137201  -0.002707  0.105933  0.001134  -0.002551  1.639354  -0.001
I  I129  1  0.34495790  0.65109771  0.82658879  1  0.13637  -0.001161  0.105758  0.000898  -0.000682  1.638729  0.0
I  I130  1  0.15508230  0.15111407  0.32662795  1  0.137001  -0.002705  0.106014  0.001217  -0.00255  1.63948  -0.001
I  I131  1  0.65503052  0.34890190  0.17341401  1  0.136346  -0.001161  0.105726  0.000945  -0.000681  1.63873  0.0
O  O132  1  0.55928428  0.00666141  0.59305816  1  -1.194992  -0.055879  -0.314688  -0.557551  -0.038352  2.325855  -0.02
O  O133  1  0.05923008  0.49330062  0.90695335  1  -1.194819  -0.055162  -0.31478  -0.558058  -0.037797  2.326184  -0.019
O  O134  1  0.44069826  0.99333205  0.40694462  1  -1.194624  -0.055885  -0.314712  -0.557606  -0.038355  2.325883  -0.02
O  O135  1  0.94072063  0.50669515  0.09304944  1  -1.194625  -0.055178  -0.314731  -0.557783  -0.037802  2.326086  -0.019
O  O136  1  0.79858096  0.08475292  0.59140962  1  -1.159981  -0.007144  -0.298535  -0.509395  -0.004736  2.222223  -0.005
O  O137  1  0.29863227  0.41533830  0.90858018  1  -1.159937  -0.007093  -0.298799  -0.50991  -0.004642  2.221547  -0.005
O  O138  1  0.20140865  0.91523900  0.40859316  1  -1.16023  -0.007146  -0.29872  -0.50967  -0.004737  2.222072  -0.005
O  O139  1  0.70135026  0.58468828  0.09142639  1  -1.160286  -0.007093  -0.298575  -0.509557  -0.004642  2.22211  -0.005
O  O140  1  0.54800715  0.03811456  0.90954311  1  -1.191534  -0.057013  -0.316158  -0.561358  -0.039335  2.333067  -0.02
O  O141  1  0.04801452  0.46191607  0.59045117  1  -1.191258  0.056126  -0.316166  -0.561337  0.038709  2.333132  0.02
O  O142  1  0.45197774  0.96190112  0.09045703  1  -1.19136  -0.057017  -0.316142  -0.561373  -0.039346  2.33296  -0.02
O  O143  1  0.95198805  0.53806052  0.40955291  1  -1.191082  0.056118  -0.316244  -0.561548  0.038715  2.33287  0.02
O  O144  1  0.79580647  0.10354523  0.91149084  1  -1.170703  -0.007698  -0.305507  -0.518289  -0.005027  2.208868  -0.005
O  O145  1  0.29581100  0.39641635  0.58850029  1  -1.170696  0.006834  -0.305452  -0.51828  0.004497  2.208956  0.005
O  O146  1  0.20419256  0.89645042  0.08850692  1  -1.17057  -0.007706  -0.305513  -0.518343  -0.005033  2.208788  -0.005
O  O147  1  0.70421632  0.60358704  0.41150025  1  -1.170498  0.006835  -0.305476  -0.518268  0.004497  2.208739  0.005
O  O148  1  0.73667794  0.05305514  0.47540641  1  -1.205716  -0.059469  -0.40321  -0.451595  -0.042326  2.452116  -0.029
O  O149  1  0.23667159  0.44698643  0.02457297  1  -1.205276  -0.059578  -0.403545  -0.451903  -0.042341  2.453282  -0.029
O  O150  1  0.26331991  0.94694135  0.52459455  1  -1.205788  -0.059479  -0.403272  -0.451711  -0.042332  2.4522  -0.029
O  O151  1  0.76329562  0.55302543  0.97542806  1  -1.205267  -0.059585  -0.403568  -0.451782  -0.042339  2.453734  -0.029
O  O152  1  0.57536478  0.83507984  0.49187940  1  -1.152134  -0.054008  -0.388706  -0.423666  -0.039582  2.449057  -0.026
O  O153  1  0.07531690  0.66489383  0.00811786  1  -1.151262  -0.054211  -0.388743  -0.423656  -0.039654  2.448523  -0.026
O  O154  1  0.42460950  0.16490513  0.50812152  1  -1.15179  -0.054018  -0.38881  -0.423573  -0.039585  2.448568  -0.026
O  O155  1  0.92464678  0.33510579  0.99188540  1  -1.151764  -0.054225  -0.388797  -0.423725  -0.039652  2.448298  -0.026
O  O156  1  0.73948287  0.04849512  0.02441967  1  -1.17279  -0.059535  -0.40247  -0.455106  -0.042875  2.462087  -0.029
O  O157  1  0.23942825  0.45150052  0.47557359  1  -1.17286  0.059296  -0.40257  -0.455177  0.042789  2.461871  0.029
O  O158  1  0.26056448  0.95149568  0.97556712  1  -1.173097  -0.059529  -0.402516  -0.455196  -0.042868  2.461825  -0.029
O  O159  1  0.76058257  0.54849603  0.52442965  1  -1.172935  0.059274  -0.402517  -0.455157  0.042783  2.461977  0.029
O  O160  1  0.59655958  0.84569446  0.97236719  1  -1.131936  -0.053626  -0.391569  -0.42696  -0.039473  2.470906  -0.026
O  O161  1  0.09650535  0.65427859  0.52759288  1  -1.132579  0.053517  -0.391513  -0.427003  0.039452  2.47146  0.026
O  O162  1  0.40347246  0.15431488  0.02762424  1  -1.131712  -0.053608  -0.39165  -0.427012  -0.039473  2.470897  -0.026
O  O163  1  0.90348426  0.34570417  0.47241213  1  -1.132477  0.053495  -0.391399  -0.426654  0.039453  2.471784  0.026
