# generated using pymatgen
data_SmH12C13N3O9F4
_symmetry_space_group_name_H-M   'P 1'
_cell_length_a   10.76930310
_cell_length_b   10.87531451
_cell_length_c   11.56015469
_cell_angle_alpha   102.09118902
_cell_angle_beta   105.34404987
_cell_angle_gamma   100.63278797
_symmetry_Int_Tables_number   1
_chemical_formula_structural   SmH12C13N3O9F4
_chemical_formula_sum   'Sm2 H24 C26 N6 O18 F8'
_cell_volume   1234.67003757
_cell_formula_units_Z   2
loop_
 _symmetry_equiv_pos_site_id
 _symmetry_equiv_pos_as_xyz
  1  'x, y, z'
loop_
 _atom_site_type_symbol
 _atom_site_label
 _atom_site_symmetry_multiplicity
 _atom_site_fract_x
 _atom_site_fract_y
 _atom_site_fract_z
 _atom_site_occupancy
 _atom_site_hle17_bader_spin_density
 _atom_site_hle17_ddec_charge
 _atom_site_hle17_ddec_spin_density
 _atom_site_hle17_ddec_sum_bond_order
 _atom_site_hle17_magmom
 _atom_site_hse06_10hf_bader_spin_density
 _atom_site_hse06_10hf_ddec_charge
 _atom_site_hse06_10hf_ddec_spin_density
 _atom_site_hse06_10hf_ddec_sum_bond_order
 _atom_site_hse06_10hf_magmom
 _atom_site_hse06_bader_spin_density
 _atom_site_hse06_ddec_charge
 _atom_site_hse06_ddec_spin_density
 _atom_site_hse06_ddec_sum_bond_order
 _atom_site_hse06_magmom
 _atom_site_pbe_bader_spin_density
 _atom_site_pbe_cm5_charge
 _atom_site_pbe_ddec_charge
 _atom_site_pbe_ddec_spin_density
 _atom_site_pbe_ddec_sum_bond_order
 _atom_site_pbe_magmom
Sm  Sm0  1  0.12096005  0.38000961  0.50418623  1  0  2.300505  0  1.634884  0  0  2.204016  0  1.979606  0  0  2.249577  0  1.938056  0  0  1.492843  2.100603  0  2.140028  0
Sm  Sm1  1  0.87904226  0.61998870  0.49581251  1  0  2.30054  0  1.634822  0  0  2.204064  0  1.979534  0  0  2.249634  0  1.937981  0  0  1.492821  2.100643  0  2.139966  0
H  H2  1  0.55453983  0.60188638  0.47547990  1  0  0.345231  0  0.910919  0  0  0.322953  0  0.977888  0  0  0.332153  0  0.970586  0  0  0.306749  0.316488  0  0.982906  0
H  H3  1  0.44545710  0.39811001  0.52450938  1  0  0.345174  0  0.910911  0  0  0.322892  0  0.977895  0  0  0.332093  0  0.970593  0  0  0.306721  0.316428  0  0.982911  0
H  H4  1  0.50426662  0.72758273  0.41761277  1  0  0.34891  0  0.880995  0  0  0.332339  0  0.939078  0  0  0.340324  0  0.93278  0  0  0.312603  0.326591  0  0.943797  0
H  H5  1  0.49573671  0.27241947  0.58238525  1  0  0.348662  0  0.881173  0  0  0.332111  0  0.939239  0  0  0.340098  0  0.932944  0  0  0.312501  0.326362  0  0.943958  0
H  H6  1  0.01887304  0.95116178  0.59263778  1  0  0.356377  0  0.903506  0  0  0.334453  0  0.968832  0  0  0.344175  0  0.960432  0  0  0.310467  0.327584  0  0.974679  0
H  H7  1  0.98113591  0.04884330  0.40736562  1  0  0.356312  0  0.90365  0  0  0.334434  0  0.968893  0  0  0.344153  0  0.960504  0  0  0.310477  0.327566  0  0.974737  0
H  H8  1  0.09615237  0.01274816  0.75350689  1  0  0.340798  0  0.85748  0  0  0.329334  0  0.907001  0  0  0.335904  0  0.902553  0  0  0.325479  0.324297  0  0.911034  0
H  H9  1  0.90384560  0.98725896  0.24649860  1  0  0.340831  0  0.857395  0  0  0.329379  0  0.906909  0  0  0.335949  0  0.902458  0  0  0.325517  0.324342  0  0.910942  0
H  H10  1  0.22648370  0.32883819  0.24629249  1  0  0.038913  0  0.925711  0  0  0.046356  0  0.994668  0  0  0.047841  0  0.989454  0  0  0.129446  0.045089  0  0.998283  0
H  H11  1  0.77350607  0.67117092  0.75370277  1  0  0.038733  0  0.925953  0  0  0.046386  0  0.994693  0  0  0.04786  0  0.989483  0  0  0.12947  0.045114  0  0.998305  0
H  H12  1  0.13133526  0.22961831  0.74347510  1  0  0.028557  0  0.929778  0  0  0.037508  0  0.997448  0  0  0.038202  0  0.993303  0  0  0.126032  0.036891  0  1.000275  0
H  H13  1  0.86866694  0.77038682  0.25652410  1  0  0.028534  0  0.929648  0  0  0.037474  0  0.997329  0  0  0.03817  0  0.993182  0  0  0.126003  0.036855  0  1.000157  0
H  H14  1  0.28794896  0.65886882  0.43282429  1  0  0.035448  0  0.903019  0  0  0.048152  0  0.962006  0  0  0.049378  0  0.957978  0  0  0.130824  0.046972  0  0.965201  0
H  H15  1  0.71204919  0.34112853  0.56716634  1  0  0.035395  0  0.903051  0  0  0.048093  0  0.962061  0  0  0.049316  0  0.958037  0  0  0.130811  0.046914  0  0.965259  0
H  H16  1  0.29542922  0.07449812  0.23580022  1  0  0.351432  0  0.84122  0  0  0.346018  0  0.879737  0  0  0.35227  0  0.876198  0  0  0.33796  0.341481  0  0.882585  0
H  H17  1  0.70455492  0.92551106  0.76421273  1  0  0.35147  0  0.841147  0  0  0.34606  0  0.879647  0  0  0.352314  0  0.876105  0  0  0.338008  0.341523  0  0.882497  0
H  H18  1  0.31292874  0.17850453  0.14059896  1  0  0.34153  0  0.881552  0  0  0.322924  0  0.946355  0  0  0.329594  0  0.941283  0  0  0.316525  0.318144  0  0.950107  0
H  H19  1  0.68706811  0.82149480  0.85940646  1  0  0.341614  0  0.881418  0  0  0.322939  0  0.946308  0  0  0.32963  0  0.941205  0  0  0.316543  0.318158  0  0.95006  0
H  H20  1  0.64806159  0.33178006  0.27858419  1  0  0.142135  0  0.960653  0  0  0.153749  0  1.031018  0  0  0.157052  0  1.029056  0  0  0.098874  0.15186  0  1.031409  0
H  H21  1  0.35195765  0.66823858  0.72141400  1  0  0.141995  0  0.960732  0  0  0.153645  0  1.03107  0  0  0.156952  0  1.029109  0  0  0.098801  0.151756  0  1.031464  0
H  H22  1  0.64215814  0.16822326  0.28662390  1  0  0.13905  0  0.921091  0  0  0.160029  0  0.975431  0  0  0.162423  0  0.974705  0  0  0.102516  0.158287  0  0.976251  0
H  H23  1  0.35783953  0.83178676  0.71336652  1  0  0.139103  0  0.921105  0  0  0.160075  0  0.97543  0  0  0.162469  0  0.974704  0  0  0.102514  0.158333  0  0.97625  0
H  H24  1  0.69014000  0.22023137  0.16575580  1  0  0.140217  0  0.930303  0  0  0.15936  0  0.98634  0  0  0.16193  0  0.985058  0  0  0.099214  0.157433  0  0.987686  0
H  H25  1  0.30987576  0.77978144  0.83424126  1  0  0.140252  0  0.930243  0  0  0.15938  0  0.986292  0  0  0.161949  0  0.985011  0  0  0.099252  0.157452  0  0.987636  0
C  C26  1  0.88723219  0.45345208  0.02912094  1  0  0.192003  0  3.800885  0  0  0.159612  0  4.099928  0  0  0.169021  0  4.108218  0  0  0.087665  0.152636  0  4.095777  0
C  C27  1  0.11276810  0.54652774  0.97087972  1  0  0.191801  0  3.800677  0  0  0.159379  0  4.099701  0  0  0.168784  0  4.107988  0  0  0.087605  0.152409  0  4.095549  0
C  C28  1  0.01340795  0.51277743  0.25977019  1  0  0.746146  0  3.865892  0  0  0.701456  0  4.166018  0  0  0.736532  0  4.152588  0  0  0.233778  0.677151  0  4.170841  0
C  C29  1  0.98658700  0.48720436  0.74021659  1  0  0.746355  0  3.865933  0  0  0.701608  0  4.166106  0  0  0.736691  0  4.152669  0  0  0.233843  0.677314  0  4.170913  0
C  C30  1  0.00711513  0.50771423  0.12610246  1  0  -0.202535  0  3.749999  0  0  -0.20986  0  4.017861  0  0  -0.214449  0  4.031518  0  0  -0.028022  -0.207656  0  4.010725  0
C  C31  1  0.99289250  0.49226456  0.87388764  1  0  -0.202556  0  3.749631  0  0  -0.209818  0  4.017491  0  0  -0.214406  0  4.031149  0  0  -0.02805  -0.207627  0  4.010357  0
C  C32  1  0.44175438  0.41758242  0.87524947  1  0  -0.19343  0  3.744259  0  0  -0.201024  0  4.015891  0  0  -0.204738  0  4.029265  0  0  -0.025353  -0.199063  0  4.008004  0
C  C33  1  0.55823602  0.58241404  0.12476593  1  0  -0.193532  0  3.744688  0  0  -0.201105  0  4.016196  0  0  -0.204824  0  4.02957  0  0  -0.025294  -0.199143  0  4.00831  0
C  C34  1  0.11963341  0.55404020  0.09428939  1  0  0.186029  0  3.805618  0  0  0.153073  0  4.107452  0  0  0.162359  0  4.115072  0  0  0.08507  0.146207  0  4.103712  0
C  C35  1  0.88036802  0.44593669  0.90571096  1  0  0.186074  0  3.804688  0  0  0.153082  0  4.106532  0  0  0.162365  0  4.114158  0  0  0.08524  0.146224  0  4.102794  0
C  C36  1  0.41660576  0.37943329  0.97615748  1  0  0.190909  0  3.785749  0  0  0.156693  0  4.089403  0  0  0.165907  0  4.096493  0  0  0.086624  0.150028  0  4.085515  0
C  C37  1  0.58338449  0.62056611  0.02386365  1  0  0.190966  0  3.785653  0  0  0.156826  0  4.089198  0  0  0.166043  0  4.096285  0  0  0.086659  0.150159  0  4.085308  0
C  C38  1  0.83896262  0.28997437  0.34523880  1  0  0.784568  0  3.809668  0  0  0.751105  0  4.102214  0  0  0.784231  0  4.092944  0  0  0.214471  0.728941  0  4.100333  0
C  C39  1  0.16104718  0.71002681  0.65475971  1  0  0.784533  0  3.809743  0  0  0.751015  0  4.102372  0  0  0.784142  0  4.093105  0  0  0.214393  0.72885  0  4.10049  0
C  C40  1  0.23547554  0.24149639  0.27876992  1  0  0.573588  0  3.807438  0  0  0.500486  0  4.118592  0  0  0.530245  0  4.113943  0  0  0.191927  0.480628  0  4.117582  0
C  C41  1  0.76451021  0.75851179  0.72123543  1  0  0.573801  0  3.806999  0  0  0.500572  0  4.11816  0  0  0.530345  0  4.113513  0  0  0.192074  0.480723  0  4.117142  0
C  C42  1  0.52677893  0.54038988  0.90276386  1  0  0.195556  0  3.785802  0  0  0.156921  0  4.090979  0  0  0.166459  0  4.098584  0  0  0.086574  0.149969  0  4.086956  0
C  C43  1  0.47321574  0.45960461  0.09724959  1  0  0.195568  0  3.785982  0  0  0.156977  0  4.091134  0  0  0.166514  0  4.098742  0  0  0.086528  0.150025  0  4.08711  0
C  C44  1  0.38257770  0.33142253  0.74140278  1  0  0.71144  0  3.921795  0  0  0.662929  0  4.231987  0  0  0.696145  0  4.222207  0  0  0.21293  0.639997  0  4.236494  0
C  C45  1  0.61742012  0.66858752  0.25860931  1  0  0.711582  0  3.921674  0  0  0.66303  0  4.231992  0  0  0.696247  0  4.222212  0  0  0.212965  0.640095  0  4.236497  0
C  C46  1  0.08304964  0.14969275  0.65754181  1  0  0.578896  0  3.807512  0  0  0.507501  0  4.108085  0  0  0.536158  0  4.106903  0  0  0.197504  0.488216  0  4.105272  0
C  C47  1  0.91695840  0.85031623  0.34245869  1  0  0.578813  0  3.807824  0  0  0.507474  0  4.10838  0  0  0.536128  0  4.1072  0  0  0.197476  0.488189  0  4.105563  0
C  C48  1  0.36346942  0.60564070  0.46048060  1  0  0.573322  0  3.801783  0  0  0.50005  0  4.106708  0  0  0.528683  0  4.105142  0  0  0.193465  0.480546  0  4.10531  0
C  C49  1  0.63652848  0.39435568  0.53951065  1  0  0.573546  0  3.801763  0  0  0.500237  0  4.106755  0  0  0.528871  0  4.105194  0  0  0.193442  0.480725  0  4.105364  0
C  C50  1  0.69559501  0.25169609  0.26393064  1  0  -0.453796  0  3.647143  0  0  -0.529068  0  3.878925  0  0  -0.535932  0  3.880577  0  0  -0.239929  -0.524591  0  3.877931  0
C  C51  1  0.30441690  0.74831675  0.73606464  1  0  -0.453731  0  3.647186  0  0  -0.528998  0  3.87897  0  0  -0.535868  0  3.880621  0  0  -0.239882  -0.524521  0  3.877976  0
N  N52  1  0.48427988  0.65456623  0.45848992  1  0  -0.626946  0  3.140313  0  0  -0.583072  0  3.377249  0  0  -0.606871  0  3.374411  0  0  -0.55445  -0.567227  0  3.379967  0
N  N53  1  0.51572071  0.34543306  0.54150168  1  0  -0.626671  0  3.140488  0  0  -0.582791  0  3.377439  0  0  -0.606592  0  3.374606  0  0  -0.554299  -0.566944  0  3.380153  0
N  N54  1  0.05981895  0.03058590  0.67017505  1  0  -0.612476  0  3.14058  0  0  -0.571125  0  3.373925  0  0  -0.593456  0  3.369676  0  0  -0.547862  -0.556384  0  3.378064  0
N  N55  1  0.94018147  0.96941242  0.32982756  1  0  -0.612484  0  3.140906  0  0  -0.571196  0  3.374241  0  0  -0.593523  0  3.36999  0  0  -0.547956  -0.556458  0  3.378385  0
N  N56  1  0.28101815  0.15600225  0.21048498  1  0  -0.646222  0  3.110888  0  0  -0.605576  0  3.335929  0  0  -0.62814  0  3.331949  0  0  -0.555932  -0.590558  0  3.338996  0
N  N57  1  0.71897133  0.84400200  0.78951530  1  0  -0.646242  0  3.111  0  0  -0.60555  0  3.336185  0  0  -0.628136  0  3.332152  0  0  -0.555957  -0.590536  0  3.339254  0
O  O58  1  0.88103019  0.39368583  0.43857356  1  0  -0.869098  0  2.138774  0  0  -0.823456  0  2.395561  0  0  -0.849324  0  2.384222  0  0  -0.455344  -0.788522  0  2.402937  0
O  O59  1  0.11897529  0.60631343  0.56143046  1  0  -0.868998  0  2.138834  0  0  -0.823373  0  2.395702  0  0  -0.849235  0  2.38436  0  0  -0.45524  -0.788436  0  2.403069  0
O  O60  1  0.05049856  0.17423594  0.55328522  1  0  -0.646323  0  2.085943  0  0  -0.591024  0  2.326495  0  0  -0.615326  0  2.31838  0  0  -0.360964  -0.565533  0  2.332997  0
O  O61  1  0.94951552  0.82576326  0.44671393  1  0  -0.646155  0  2.086038  0  0  -0.590902  0  2.326604  0  0  -0.615209  0  2.31849  0  0  -0.360839  -0.56541  0  2.333104  0
O  O62  1  0.08694623  0.44879842  0.31170228  1  0  -0.708595  0  2.067394  0  0  -0.674714  0  2.320445  0  0  -0.699776  0  2.31068  0  0  -0.368022  -0.648969  0  2.328341  0
O  O63  1  0.91305564  0.55120184  0.68829673  1  0  -0.708631  0  2.067152  0  0  -0.67478  0  2.320249  0  0  -0.699843  0  2.310478  0  0  -0.368072  -0.649032  0  2.328136  0
O  O64  1  0.33340573  0.50366084  0.49353378  1  0  -0.654771  0  2.128749  0  0  -0.598356  0  2.381188  0  0  -0.623282  0  2.374919  0  0  -0.360476  -0.57328  0  2.386486  0
O  O65  1  0.66659482  0.49633844  0.50645262  1  0  -0.654891  0  2.128565  0  0  -0.598461  0  2.381035  0  0  -0.623384  0  2.374753  0  0  -0.360432  -0.573379  0  2.38633  0
O  O66  1  0.30366745  0.37709934  0.66862751  1  0  -0.747689  0  2.051291  0  0  -0.71236  0  2.320428  0  0  -0.737508  0  2.308108  0  0  -0.414922  -0.684043  0  2.331022  0
O  O67  1  0.69633621  0.62291455  0.33138415  1  0  -0.747768  0  2.051391  0  0  -0.712405  0  2.320525  0  0  -0.737556  0  2.308206  0  0  -0.414884  -0.684087  0  2.331115  0
O  O68  1  0.91771201  0.22200582  0.32488846  1  0  -0.675873  0  1.930782  0  0  -0.637325  0  2.153238  0  0  -0.66068  0  2.144881  0  0  -0.351583  -0.615212  0  2.159535  0
O  O69  1  0.08228884  0.77799055  0.67511387  1  0  -0.675966  0  1.930677  0  0  -0.637374  0  2.153136  0  0  -0.66073  0  2.144785  0  0  -0.351627  -0.615259  0  2.159431  0
O  O70  1  0.20381947  0.22502147  0.37168216  1  0  -0.60816  0  2.020539  0  0  -0.566843  0  2.270148  0  0  -0.587838  0  2.259743  0  0  -0.34624  -0.543585  0  2.278507  0
O  O71  1  0.79617339  0.77498858  0.62830711  1  0  -0.608298  0  2.019624  0  0  -0.567  0  2.269287  0  0  -0.588013  0  2.2589  0  0  -0.346394  -0.543741  0  2.277641  0
O  O72  1  0.94368748  0.57851870  0.30433246  1  0  -0.699291  0  2.036205  0  0  -0.666491  0  2.284399  0  0  -0.690461  0  2.27391  0  0  -0.364283  -0.641033  0  2.292404  0
O  O73  1  0.05630173  0.42146313  0.69565554  1  0  -0.699332  0  2.036613  0  0  -0.666495  0  2.284796  0  0  -0.69047  0  2.27431  0  0  -0.364242  -0.641043  0  2.292797  0
O  O74  1  0.41828780  0.22913239  0.71525556  1  0  -0.604942  0  1.828299  0  0  -0.577628  0  2.027668  0  0  -0.597969  0  2.017497  0  0  -0.3396  -0.563211  0  2.034545  0
O  O75  1  0.58171051  0.77087959  0.28475184  1  0  -0.605067  0  1.828207  0  0  -0.57775  0  2.027619  0  0  -0.598087  0  2.017446  0  0  -0.339743  -0.563334  0  2.034498  0
F  F76  1  0.33201326  0.26103640  0.95763892  1  0  -0.19051  0  1.176385  0  0  -0.143979  0  1.33573  0  0  -0.151054  0  1.324454  0  0  -0.104927  -0.139013  0  1.343776  0
F  F77  1  0.66797744  0.73897565  0.04237704  1  0  -0.190527  0  1.175989  0  0  -0.144015  0  1.335286  0  0  -0.151088  0  1.324012  0  0  -0.105002  -0.13905  0  1.343333  0
F  F78  1  0.55817876  0.58440486  0.80915228  1  0  -0.184723  0  1.234635  0  0  -0.126525  0  1.396469  0  0  -0.134906  0  1.386446  0  0  -0.087644  -0.120656  0  1.403561  0
F  F79  1  0.44183318  0.41558950  0.19086184  1  0  -0.184737  0  1.234697  0  0  -0.126551  0  1.39652  0  0  -0.134933  0  1.386497  0  0  -0.08768  -0.120683  0  1.403613  0
F  F80  1  0.77504259  0.40369007  0.05386853  1  0  -0.156049  0  1.223462  0  0  -0.110724  0  1.388687  0  0  -0.119753  0  1.380311  0  0  -0.083716  -0.104591  0  1.394887  0
F  F81  1  0.22496046  0.59630043  0.94612019  1  0  -0.156114  0  1.223162  0  0  -0.110779  0  1.38838  0  0  -0.119809  0  1.380001  0  0  -0.083765  -0.104646  0  1.394579  0
F  F82  1  0.23880179  0.61006525  0.18475794  1  0  -0.159953  0  1.220337  0  0  -0.117741  0  1.387896  0  0  -0.124969  0  1.37695  0  0  -0.09019  -0.112784  0  1.395783  0
F  F83  1  0.76118038  0.38990493  0.81521655  1  0  -0.160136  0  1.219726  0  0  -0.117915  0  1.387268  0  0  -0.125145  0  1.376323  0  0  -0.090392  -0.112959  0  1.395156  0
