# generated using pymatgen
data_ZnH16C16N6O5
_symmetry_space_group_name_H-M   'P 1'
_cell_length_a   9.67716132
_cell_length_b   10.28768757
_cell_length_c   11.01700537
_cell_angle_alpha   82.43456187
_cell_angle_beta   74.06078675
_cell_angle_gamma   62.57747375
_symmetry_Int_Tables_number   1
_chemical_formula_structural   ZnH16C16N6O5
_chemical_formula_sum   'Zn2 H32 C32 N12 O10'
_cell_volume   936.11436263
_cell_formula_units_Z   2
loop_
 _symmetry_equiv_pos_site_id
 _symmetry_equiv_pos_as_xyz
  1  'x, y, z'
loop_
 _atom_site_type_symbol
 _atom_site_label
 _atom_site_symmetry_multiplicity
 _atom_site_fract_x
 _atom_site_fract_y
 _atom_site_fract_z
 _atom_site_occupancy
 _atom_site_hle17_bader_spin_density
 _atom_site_hle17_ddec_charge
 _atom_site_hle17_ddec_spin_density
 _atom_site_hle17_ddec_sum_bond_order
 _atom_site_hle17_magmom
 _atom_site_hse06_10hf_bader_spin_density
 _atom_site_hse06_10hf_ddec_charge
 _atom_site_hse06_10hf_ddec_spin_density
 _atom_site_hse06_10hf_ddec_sum_bond_order
 _atom_site_hse06_10hf_magmom
 _atom_site_hse06_bader_spin_density
 _atom_site_hse06_ddec_charge
 _atom_site_hse06_ddec_spin_density
 _atom_site_hse06_ddec_sum_bond_order
 _atom_site_hse06_magmom
 _atom_site_pbe_bader_spin_density
 _atom_site_pbe_cm5_charge
 _atom_site_pbe_ddec_charge
 _atom_site_pbe_ddec_spin_density
 _atom_site_pbe_ddec_sum_bond_order
 _atom_site_pbe_magmom
Zn  Zn0  1  0.28044572  0.34776908  0.34630835  1  0  1.000308  0  1.881975  0  0  0.811956  0  2.355975  0  0  0.858791  0  2.302059  0  0  0.69108  0.776393  0  2.395102  0
Zn  Zn1  1  0.71955433  0.65223440  0.65369313  1  0  1.000345  0  1.882004  0  0  0.811979  0  2.356018  0  0  0.858809  0  2.3021  0  0  0.6911  0.776425  0  2.39515  0
H  H2  1  0.91131717  0.79874107  0.33736056  1  0  0.121852  0  0.957766  0  0  0.128606  0  1.024167  0  0  0.132111  0  1.022587  0  0  0.107027  0.12541  0  1.026613  0
H  H3  1  0.08868105  0.20126363  0.66263673  1  0  0.121854  0  0.957816  0  0  0.12861  0  1.0242  0  0  0.132107  0  1.022631  0  0  0.107052  0.125416  0  1.026644  0
H  H4  1  0.89664220  0.22112972  0.35580723  1  0  0.106669  0  0.960207  0  0  0.115282  0  1.026636  0  0  0.119082  0  1.023876  0  0  0.104137  0.112417  0  1.028877  0
H  H5  1  0.10335385  0.77887063  0.64419298  1  0  0.106672  0  0.960242  0  0  0.11529  0  1.026668  0  0  0.119089  0  1.023909  0  0  0.104161  0.112423  0  1.02891  0
H  H6  1  0.34015156  0.82790695  0.34026226  1  0  0.111656  0  0.968564  0  0  0.11414  0  1.044295  0  0  0.118542  0  1.040606  0  0  0.101651  0.110437  0  1.047948  0
H  H7  1  0.65984229  0.17209784  0.65973528  1  0  0.111789  0  0.968528  0  0  0.114249  0  1.044268  0  0  0.118648  0  1.04058  0  0  0.101686  0.110544  0  1.047923  0
H  H8  1  0.09798357  0.55809471  0.58320914  1  0  0.119739  0  0.954311  0  0  0.127023  0  1.020255  0  0  0.129999  0  1.016833  0  0  0.143874  0.12437  0  1.023467  0
H  H9  1  0.90201587  0.44190552  0.41679290  1  0  0.119721  0  0.954323  0  0  0.126989  0  1.020285  0  0  0.129964  0  1.016864  0  0  0.143864  0.124337  0  1.023496  0
H  H10  1  0.45427533  0.11936738  0.57578117  1  0  0.120121  0  0.94959  0  0  0.126254  0  1.013386  0  0  0.129393  0  1.009765  0  0  0.138705  0.123657  0  1.016226  0
H  H11  1  0.54572486  0.88063605  0.42422301  1  0  0.120065  0  0.949592  0  0  0.126263  0  1.013339  0  0  0.129406  0  1.009712  0  0  0.138707  0.123668  0  1.016177  0
H  H12  1  0.22700117  0.51778816  0.86373731  1  0  0.078635  0  0.912777  0  0  0.095209  0  0.97414  0  0  0.095521  0  0.974314  0  0  0.113238  0.095069  0  0.97373  0
H  H13  1  0.77299845  0.48221638  0.13626598  1  0  0.078633  0  0.912764  0  0  0.095203  0  0.974112  0  0  0.095515  0  0.974286  0  0  0.113225  0.095066  0  0.973699  0
H  H14  1  0.05147518  0.61387856  0.80343541  1  0  0.085622  0  0.943187  0  0  0.100029  0  1.009901  0  0  0.101045  0  1.009458  0  0  0.114521  0.099046  0  1.010635  0
H  H15  1  0.94852543  0.38612381  0.19656696  1  0  0.085658  0  0.943177  0  0  0.100066  0  1.009874  0  0  0.101074  0  1.00944  0  0  0.114557  0.099083  0  1.010609  0
H  H16  1  0.12194810  0.33881142  0.97108827  1  0  0.070375  0  0.932101  0  0  0.088898  0  0.990653  0  0  0.089729  0  0.990871  0  0  0.093023  0.088127  0  0.990807  0
H  H17  1  0.87805190  0.66119209  0.02891232  1  0  0.070444  0  0.932141  0  0  0.088942  0  0.990688  0  0  0.089775  0  0.990905  0  0  0.093049  0.088173  0  0.990841  0
H  H18  1  0.94859026  0.43546780  0.91085602  1  0  0.084635  0  0.919456  0  0  0.103323  0  0.975663  0  0  0.104435  0  0.97595  0  0  0.0984  0.102455  0  0.975592  0
H  H19  1  0.05141463  0.56453452  0.08914430  1  0  0.084708  0  0.919433  0  0  0.103397  0  0.975612  0  0  0.104509  0  0.975898  0  0  0.09846  0.102529  0  0.975538  0
H  H20  1  0.50122585  0.47309917  0.13690056  1  0  0.107111  0  0.945206  0  0  0.113995  0  1.007985  0  0  0.11612  0  1.005953  0  0  0.136435  0.112374  0  1.009491  0
H  H21  1  0.49877617  0.52689779  0.86310027  1  0  0.107105  0  0.945208  0  0  0.113992  0  1.007976  0  0  0.116117  0  1.005947  0  0  0.136434  0.112372  0  1.009482  0
H  H22  1  0.54566241  0.04476802  0.19089941  1  0  0.12544  0  0.934983  0  0  0.131992  0  1.001639  0  0  0.135095  0  0.997593  0  0  0.14816  0.129885  0  1.004199  0
H  H23  1  0.45434135  0.95522776  0.80910382  1  0  0.125483  0  0.935018  0  0  0.132088  0  1.001596  0  0  0.135193  0  0.997548  0  0  0.148194  0.129982  0  1.004155  0
H  H24  1  0.81272295  0.06253007  0.87365793  1  0  0.081447  0  0.981596  0  0  0.09406  0  1.050699  0  0  0.093319  0  1.053687  0  0  0.111392  0.094774  0  1.048088  0
H  H25  1  0.18728072  0.93746794  0.12634233  1  0  0.081409  0  0.981656  0  0  0.094024  0  1.05077  0  0  0.09328  0  1.053761  0  0  0.111389  0.094737  0  1.048161  0
H  H26  1  0.75357012  0.93932008  0.97652825  1  0  0.07848  0  0.907416  0  0  0.096329  0  0.966043  0  0  0.096815  0  0.965541  0  0  0.115768  0.096032  0  0.966192  0
H  H27  1  0.24642847  0.06067482  0.02347103  1  0  0.078459  0  0.907402  0  0  0.096339  0  0.966014  0  0  0.096822  0  0.965514  0  0  0.115785  0.096042  0  0.966163  0
H  H28  1  0.94654043  0.90476298  0.10334431  1  0  0.074242  0  0.950069  0  0  0.091698  0  1.012661  0  0  0.091872  0  1.014208  0  0  0.092324  0.091487  0  1.011661  0
H  H29  1  0.05346037  0.09522967  0.89665646  1  0  0.074259  0  0.950177  0  0  0.091708  0  1.012748  0  0  0.091886  0  1.014295  0  0  0.09232  0.091495  0  1.011748  0
H  H30  1  0.04014238  0.85369260  0.94434138  1  0  0.076339  0  0.939248  0  0  0.092705  0  1.002789  0  0  0.093007  0  1.004081  0  0  0.094  0.092068  0  1.002521  0
H  H31  1  0.95985842  0.14630005  0.05565939  1  0  0.076399  0  0.939155  0  0  0.092739  0  1.002697  0  0  0.09304  0  1.003991  0  0  0.093998  0.092104  0  1.00243  0
H  H32  1  0.67727967  0.18378349  0.36831278  1  0  0.384532  0  0.813103  0  0  0.373747  0  0.861853  0  0  0.381068  0  0.854596  0  0  0.33784  0.369234  0  0.865701  0
H  H33  1  0.32271769  0.81621893  0.63169046  1  0  0.38456  0  0.813084  0  0  0.373775  0  0.861826  0  0  0.381094  0  0.854575  0  0  0.337857  0.369262  0  0.865674  0
C  C34  1  0.22824806  0.63327064  0.33235905  1  0  0.621471  0  3.938132  0  0  0.576947  0  4.228247  0  0  0.609454  0  4.222303  0  0  0.190506  0.554553  0  4.231742  0
C  C35  1  0.77175807  0.36672636  0.66763614  1  0  0.621275  0  3.938006  0  0  0.576774  0  4.228129  0  0  0.609283  0  4.222188  0  0  0.190364  0.554382  0  4.231621  0
C  C36  1  0.13505266  0.79736217  0.33717512  1  0  -0.042774  0  3.771458  0  0  -0.019244  0  4.008978  0  0  -0.025422  0  4.030282  0  0  -0.020582  -0.015381  0  3.995279  0
C  C37  1  0.86494975  0.20263815  0.66282066  1  0  -0.042701  0  3.771232  0  0  -0.01924  0  4.008831  0  0  -0.02542  0  4.030129  0  0  -0.020574  -0.015378  0  3.995133  0
C  C38  1  0.97150815  0.86503857  0.33944143  1  0  -0.170852  0  3.667288  0  0  -0.204475  0  3.919861  0  0  -0.205482  0  3.935977  0  0  -0.094081  -0.203302  0  3.909505  0
C  C39  1  0.02849412  0.13496181  0.66055166  1  0  -0.170891  0  3.667341  0  0  -0.204486  0  3.919905  0  0  -0.205488  0  3.936028  0  0  -0.094122  -0.203315  0  3.909552  0
C  C40  1  0.88558440  0.01745705  0.34747822  1  0  0.320289  0  3.839641  0  0  0.315444  0  4.107822  0  0  0.324601  0  4.123594  0  0  0.077722  0.308815  0  4.096098  0
C  C41  1  0.11441170  0.98254547  0.65252172  1  0  0.320291  0  3.839558  0  0  0.315468  0  4.107705  0  0  0.324623  0  4.123475  0  0  0.077696  0.308836  0  4.095983  0
C  C42  1  0.96350394  0.10217470  0.34951975  1  0  -0.212058  0  3.74096  0  0  -0.244466  0  3.993414  0  0  -0.246837  0  4.012087  0  0  -0.10143  -0.241897  0  3.980164  0
C  C43  1  0.03649302  0.89782572  0.65047658  1  0  -0.212033  0  3.740819  0  0  -0.244433  0  3.993304  0  0  -0.246803  0  4.011978  0  0  -0.101427  -0.24188  0  3.980042  0
C  C44  1  0.12697350  0.03437142  0.34732883  1  0  -0.042973  0  3.802214  0  0  -0.015683  0  4.033037  0  0  -0.022507  0  4.056417  0  0  -0.020503  -0.011317  0  4.017437  0
C  C45  1  0.87302251  0.96562896  0.65267048  1  0  -0.042916  0  3.802211  0  0  -0.015737  0  4.033175  0  0  -0.022563  0  4.056553  0  0  -0.020545  -0.011323  0  4.017506  0
C  C46  1  0.21282124  0.88158448  0.34233163  1  0  -0.109884  0  3.719363  0  0  -0.150325  0  3.974182  0  0  -0.149079  0  3.991418  0  0  -0.093187  -0.151087  0  3.963238  0
C  C47  1  0.78717542  0.11841692  0.65766920  1  0  -0.11009  0  3.719185  0  0  -0.150466  0  3.97409  0  0  -0.149216  0  3.991324  0  0  -0.09322  -0.15124  0  3.963129  0
C  C48  1  0.21021029  0.12539957  0.34931979  1  0  0.626805  0  3.925027  0  0  0.578867  0  4.213046  0  0  0.611821  0  4.207468  0  0  0.196079  0.556046  0  4.216754  0
C  C49  1  0.78978507  0.87460415  0.65067566  1  0  0.626829  0  3.925051  0  0  0.57895  0  4.213026  0  0  0.611904  0  4.207448  0  0  0.196197  0.556118  0  4.216732  0
C  C50  1  0.18587133  0.45173106  0.60706467  1  0  0.191657  0  3.609146  0  0  0.112579  0  3.866649  0  0  0.127194  0  3.877929  0  0  0.169854  0.102902  0  3.860136  0
C  C51  1  0.81412970  0.54826806  0.39293708  1  0  0.191658  0  3.609069  0  0  0.112564  0  3.866558  0  0  0.127184  0  3.877835  0  0  0.169848  0.102887  0  3.860045  0
C  C52  1  0.36396995  0.22865929  0.60713307  1  0  0.206453  0  3.67449  0  0  0.152231  0  3.966421  0  0  0.164053  0  3.977809  0  0  0.15019  0.14377  0  3.960496  0
C  C53  1  0.63603565  0.77134625  0.39286850  1  0  0.206536  0  3.674393  0  0  0.152224  0  3.966322  0  0  0.164043  0  3.977714  0  0  0.150153  0.143764  0  3.960397  0
C  C54  1  0.13295651  0.50650319  0.83478154  1  0  -0.006811  0  3.622703  0  0  -0.084668  0  3.885632  0  0  -0.081081  0  3.897072  0  0  -0.04458  -0.086625  0  3.877503  0
C  C55  1  0.86704773  0.49350029  0.16521610  1  0  -0.006848  0  3.622668  0  0  -0.084681  0  3.885485  0  0  -0.081083  0  3.896923  0  0  -0.044601  -0.086638  0  3.877357  0
C  C56  1  0.03953630  0.44823400  0.94350301  1  0  -0.119176  0  3.671301  0  0  -0.159479  0  3.935965  0  0  -0.16114  0  3.950034  0  0  -0.15756  -0.158197  0  3.926158  0
C  C57  1  0.96046780  0.55176735  0.05649310  1  0  -0.119377  0  3.671401  0  0  -0.159643  0  3.936043  0  0  -0.161304  0  3.950105  0  0  -0.157614  -0.158363  0  3.926239  0
C  C58  1  0.54396222  0.35731901  0.12224918  1  0  0.191637  0  3.714484  0  0  0.137891  0  4.002417  0  0  0.149428  0  4.015083  0  0  0.14422  0.130489  0  3.993231  0
C  C59  1  0.45603708  0.64268129  0.87775017  1  0  0.191605  0  3.71462  0  0  0.137855  0  4.002548  0  0  0.149391  0  4.015217  0  0  0.144195  0.130454  0  3.993361  0
C  C60  1  0.56245985  0.14048381  0.15217522  1  0  0.182435  0  3.633484  0  0  0.099028  0  3.896309  0  0  0.114625  0  3.906429  0  0  0.168344  0.088991  0  3.889044  0
C  C61  1  0.43754113  0.85951094  0.84782797  1  0  0.182383  0  3.633684  0  0  0.098937  0  3.896479  0  0  0.114531  0  3.906602  0  0  0.168328  0.088903  0  3.889213  0
C  C62  1  0.80037592  0.01966469  0.97038271  1  0  -0.012871  0  3.62398  0  0  -0.090516  0  3.883701  0  0  -0.086371  0  3.895208  0  0  -0.048157  -0.092978  0  3.875135  0
C  C63  1  0.19962544  0.98032904  0.02961778  1  0  -0.01278  0  3.623995  0  0  -0.090483  0  3.883734  0  0  -0.086336  0  3.895245  0  0  -0.048183  -0.092948  0  3.875175  0
C  C64  1  0.96104820  0.94869981  0.00658091  1  0  -0.123536  0  3.675886  0  0  -0.16648  0  3.943854  0  0  -0.168064  0  3.958247  0  0  -0.164115  -0.165231  0  3.933948  0
C  C65  1  0.03895147  0.05129507  0.99341808  1  0  -0.123665  0  3.675923  0  0  -0.166557  0  3.943864  0  0  -0.168147  0  3.958261  0  0  -0.164086  -0.165307  0  3.933958  0
N  N66  1  0.28278543  0.33683742  0.53061470  1  0  -0.416596  0  3.263822  0  0  -0.334953  0  3.571504  0  0  -0.357753  0  3.581031  0  0  -0.350604  -0.318938  0  3.564994  0
N  N67  1  0.71721296  0.66316281  0.46938853  1  0  -0.416652  0  3.263699  0  0  -0.334949  0  3.571336  0  0  -0.357749  0  3.580862  0  0  -0.350638  -0.318936  0  3.564829  0
N  N68  1  0.32237201  0.27160065  0.72573444  1  0  -0.281116  0  2.813994  0  0  -0.284931  0  3.078848  0  0  -0.293131  0  3.090374  0  0  -0.229692  -0.27977  0  3.072549  0
N  N69  1  0.67762818  0.72840277  0.27426974  1  0  -0.281061  0  2.813857  0  0  -0.28488  0  3.078736  0  0  -0.293075  0  3.090265  0  0  -0.229635  -0.279719  0  3.072435  0
N  N70  1  0.20921629  0.41357300  0.72334986  1  0  0.048741  0  3.552334  0  0  0.172053  0  3.73822  0  0  0.162829  0  3.759984  0  0  -0.129493  0.177507  0  3.724642  0
N  N71  1  0.79078592  0.58643264  0.27664988  1  0  0.048689  0  3.552272  0  0  0.172019  0  3.738103  0  0  0.162781  0  3.759885  0  0  -0.129518  0.177473  0  3.724526  0
N  N72  1  0.47595445  0.27594485  0.19990615  1  0  -0.414225  0  3.286646  0  0  -0.332284  0  3.59576  0  0  -0.354156  0  3.603191  0  0  -0.351784  -0.316963  0  3.589428  0
N  N73  1  0.52404921  0.72404878  0.80009646  1  0  -0.414256  0  3.286811  0  0  -0.332312  0  3.595932  0  0  -0.354182  0  3.603362  0  0  -0.351783  -0.316995  0  3.589607  0
N  N74  1  0.66647972  0.27977728  0.02995815  1  0  -0.270704  0  2.829553  0  0  -0.272373  0  3.091723  0  0  -0.280394  0  3.105154  0  0  -0.224149  -0.26695  0  3.083  0
N  N75  1  0.33352390  0.72021637  0.97004356  1  0  -0.270633  0  2.829664  0  0  -0.272309  0  3.091832  0  0  -0.280333  0  3.105263  0  0  -0.224155  -0.266885  0  3.083108  0
N  N76  1  0.67592229  0.14214142  0.05071766  1  0  0.046002  0  3.545896  0  0  0.172219  0  3.72756  0  0  0.161365  0  3.751328  0  0  -0.130538  0.178102  0  3.713953  0
N  N77  1  0.32408142  0.85785219  0.94928585  1  0  0.04597  0  3.546008  0  0  0.172198  0  3.727688  0  0  0.161355  0  3.751439  0  0  -0.130526  0.178081  0  3.714078  0
O  O78  1  0.72505124  0.07906613  0.35244103  1  0  -0.498777  0  2.105104  0  0  -0.453618  0  2.313418  0  0  -0.47078  0  2.307151  0  0  -0.343738  -0.44095  0  2.315064  0
O  O79  1  0.27494675  0.92093429  0.64755411  1  0  -0.498833  0  2.105156  0  0  -0.453671  0  2.313461  0  0  -0.470832  0  2.307193  0  0  -0.34374  -0.441001  0  2.315108  0
O  O80  1  0.14885678  0.56235338  0.32444882  1  0  -0.658094  0  2.00706  0  0  -0.589881  0  2.275781  0  0  -0.617978  0  2.26221  0  0  -0.345729  -0.568562  0  2.285428  0
O  O81  1  0.85114380  0.43764595  0.67554394  1  0  -0.657929  0  2.007062  0  0  -0.589729  0  2.275797  0  0  -0.61782  0  2.262215  0  0  -0.345643  -0.568412  0  2.285449  0
O  O82  1  0.37193139  0.57322278  0.33835467  1  0  -0.617959  0  1.882284  0  0  -0.57853  0  2.094562  0  0  -0.599246  0  2.085832  0  0  -0.341534  -0.563611  0  2.09961  0
O  O83  1  0.62806932  0.42677869  0.66163961  1  0  -0.617929  0  1.882047  0  0  -0.578492  0  2.094303  0  0  -0.599208  0  2.085572  0  0  -0.341492  -0.563574  0  2.099349  0
O  O84  1  0.13334641  0.26520663  0.32851448  1  0  -0.658096  0  2.028697  0  0  -0.585441  0  2.290518  0  0  -0.613535  0  2.277096  0  0  -0.336698  -0.564641  0  2.301046  0
O  O85  1  0.86664951  0.73479598  0.67148187  1  0  -0.658174  0  2.028727  0  0  -0.585532  0  2.290554  0  0  -0.613625  0  2.277126  0  0  -0.336749  -0.564728  0  2.301078  0
O  O86  1  0.34805719  0.06769641  0.36881636  1  0  -0.606133  0  1.955417  0  0  -0.55511  0  2.185107  0  0  -0.578315  0  2.176615  0  0  -0.310334  -0.537974  0  2.189111  0
O  O87  1  0.65194257  0.93230062  0.63118325  1  0  -0.60609  0  1.95548  0  0  -0.555084  0  2.185162  0  0  -0.578283  0  2.176664  0  0  -0.310366  -0.537952  0  2.189173  0
