# generated using pymatgen
data_Tb2H27C39(NO5)3
_symmetry_space_group_name_H-M   'P 1'
_cell_length_a   12.77030723
_cell_length_b   13.57433611
_cell_length_c   14.03893538
_cell_angle_alpha   66.43241380
_cell_angle_beta   66.93924941
_cell_angle_gamma   77.31268785
_symmetry_Int_Tables_number   1
_chemical_formula_structural   Tb2H27C39(NO5)3
_chemical_formula_sum   'Tb4 H54 C78 N6 O30'
_cell_volume   2046.64922015
_cell_formula_units_Z   2
loop_
 _symmetry_equiv_pos_site_id
 _symmetry_equiv_pos_as_xyz
  1  'x, y, z'
loop_
 _atom_site_type_symbol
 _atom_site_label
 _atom_site_symmetry_multiplicity
 _atom_site_fract_x
 _atom_site_fract_y
 _atom_site_fract_z
 _atom_site_occupancy
 _atom_site_pbe_bader_charge
 _atom_site_pbe_bader_spin_density
 _atom_site_pbe_cm5_charge
 _atom_site_pbe_ddec_charge
 _atom_site_pbe_ddec_spin_density
 _atom_site_pbe_ddec_sum_bond_order
 _atom_site_pbe_magmom
Tb  Tb0  1  0.42481864  0.88498931  0.01043943  1  2.193861  0  1.534442  2.129571  0  2.193969  0
Tb  Tb1  1  0.57518145  0.11500937  0.98955969  1  2.193665  0  1.534408  2.129549  0  2.194097  0
Tb  Tb2  1  0.42753668  0.82153864  0.66371258  1  2.194164  0  1.515531  2.123003  0  2.141447  0
Tb  Tb3  1  0.57246426  0.17846004  0.33628694  1  2.194174  0  1.515532  2.123027  0  2.14136  0
H  H4  1  0.33634892  0.66219249  0.11011391  1  0.631229  0  0.284028  0.346514  0  1.016665  0
H  H5  1  0.66365129  0.33780458  0.88989006  1  0.630979  0  0.284028  0.346504  0  1.016684  0
H  H6  1  0.40225165  0.67618104  0.18209778  1  0.601485  0  0.323254  0.408089  0  0.885972  0
H  H7  1  0.59775111  0.32381604  0.81790386  1  0.60154  0  0.323213  0.408058  0  0.886033  0
H  H8  1  0.47174876  0.99970011  0.72913498  1  0.637196  0  0.306879  0.411379  0  0.91719  0
H  H9  1  0.52824779  0.00030017  0.27086691  1  0.637207  0  0.306884  0.411389  0  0.917174  0
H  H10  1  0.54552593  0.01660409  0.59894839  1  0.641189  0  0.311668  0.408409  0  0.913114  0
H  H11  1  0.45447147  0.98339619  0.40105319  1  0.641171  0  0.311659  0.408395  0  0.91313  0
H  H12  1  0.44954992  0.67525905  0.53299181  1  0.64179  0  0.343526  0.435121  0  0.83966  0
H  H13  1  0.55044853  0.32473881  0.46700962  1  0.641826  0  0.343531  0.435127  0  0.839664  0
H  H14  1  0.55619182  0.74388685  0.48156170  1  0.632671  0  0.31161  0.393522  0  0.938926  0
H  H15  1  0.44380643  0.25611344  0.51843887  1  0.632642  0  0.311635  0.393587  0  0.938847  0
H  H16  1  0.67777285  0.68325257  0.99339481  1  0.105416  0  0.116789  0.116918  0  1.000724  0
H  H17  1  0.32222736  0.31674449  0.00660631  1  0.105404  0  0.116754  0.11685  0  1.000588  0
H  H18  1  0.78116577  0.34971006  0.02628043  1  0.106094  0  0.117672  0.084017  0  1.011688  0
H  H19  1  0.21882769  0.65028619  0.97372768  1  0.106151  0  0.117663  0.083949  0  1.011726  0
H  H20  1  0.58492464  0.52713016  0.82831467  1  0.089339  0  0.123136  0.099991  0  0.983625  0
H  H21  1  0.41507636  0.47286772  0.17168586  1  0.089314  0  0.123085  0.099874  0  0.983683  0
H  H22  1  0.88930781  0.65207469  0.96295753  1  0.09251  0  0.095721  0.092713  0  1.057638  0
H  H23  1  0.11068788  0.34792560  0.03704537  1  0.092525  0  0.095697  0.092733  0  1.05758  0
H  H24  1  0.00729910  0.65664264  0.06483350  1  0.075988  0  0.096753  0.087315  0  1.041173  0
H  H25  1  0.99269738  0.34335845  0.93516880  1  0.07604  0  0.096737  0.087313  0  1.041168  0
H  H26  1  0.99572110  0.51348885  0.24813384  1  0.045548  0  0.101234  0.097243  0  0.992557  0
H  H27  1  0.00427983  0.48650983  0.75186711  1  0.045565  0  0.101236  0.09725  0  0.992501  0
H  H28  1  0.85957199  0.37055721  0.32839651  1  0.094246  0  0.107342  0.107855  0  0.997303  0
H  H29  1  0.14042900  0.62944066  0.67160615  1  0.094317  0  0.107354  0.107863  0  0.997269  0
H  H30  1  0.34354635  0.08212284  0.26023572  1  0.108652  0  0.109942  0.113206  0  1.023079  0
H  H31  1  0.65645458  0.91787584  0.73976381  1  0.108667  0  0.109948  0.113228  0  1.023051  0
H  H32  1  0.22998304  0.19651501  0.37102969  1  0.083005  0  0.103358  0.10569  0  1.019363  0
H  H33  1  0.77001528  0.80348447  0.62897045  1  0.082955  0  0.103335  0.105651  0  1.019415  0
H  H34  1  0.03492214  0.27341191  0.36531465  1  0.040551  0  0.101548  0.098729  0  1.000443  0
H  H35  1  0.96507474  0.72658434  0.63468583  1  0.040771  0  0.101528  0.09864  0  1.000502  0
H  H36  1  0.96030205  0.24083574  0.24357242  1  0.114232  0  0.099436  0.102615  0  1.058735  0
H  H37  1  0.03969732  0.75916132  0.75642543  1  0.114189  0  0.099459  0.102647  0  1.058736  0
H  H38  1  0.21614460  0.13892658  0.96786711  1  0.05025  0  0.111231  0.074671  0  1.017469  0
H  H39  1  0.78385681  0.86107692  0.03212681  1  0.05024  0  0.111223  0.074625  0  1.017472  0
H  H40  1  0.93182478  0.12431593  0.90255656  1  0.1081  0  0.118064  0.096914  0  0.99607  0
H  H41  1  0.06818056  0.87568114  0.09743705  1  0.107824  0  0.118072  0.096937  0  0.996043  0
H  H42  1  0.88416298  0.13141320  0.22013634  1  0.13295  0  0.11465  0.119519  0  1.033289  0
H  H43  1  0.11583791  0.86858627  0.77985577  1  0.132847  0  0.114639  0.119507  0  1.033259  0
H  H44  1  0.85106840  0.02318564  0.44438162  1  0.087858  0  0.110886  0.116819  0  0.984136  0
H  H45  1  0.14893214  0.97681788  0.55561760  1  0.08813  0  0.110856  0.116772  0  0.983985  0
H  H46  1  0.05809209  0.96281389  0.38706411  1  0.048671  0  0.102286  0.102499  0  1.007249  0
H  H47  1  0.94191008  0.03719044  0.61293635  1  0.048729  0  0.102262  0.102489  0  1.007287  0
H  H48  1  0.12422637  0.80999388  0.31651267  1  0.090016  0  0.108413  0.117023  0  0.992507  0
H  H49  1  0.87577351  0.19000722  0.68349057  1  0.089974  0  0.108395  0.117013  0  0.992547  0
H  H50  1  0.98373374  0.72039124  0.30211427  1  0.063953  0  0.103012  0.102199  0  1.00222  0
H  H51  1  0.01626601  0.27961147  0.69788839  1  0.063844  0  0.102977  0.102173  0  1.002228  0
H  H52  1  0.79552562  0.60164098  0.44477681  1  0.050648  0  0.112775  0.084685  0  0.973786  0
H  H53  1  0.20447478  0.39836415  0.55522468  1  0.050774  0  0.112764  0.084646  0  0.97384  0
H  H54  1  0.57386335  0.63593550  0.28096474  1  0.06504  0  0.112005  0.084119  0  0.983117  0
H  H55  1  0.42613797  0.36406883  0.71903531  1  0.065026  0  0.111966  0.08407  0  0.983125  0
H  H56  1  0.70520988  0.91994287  0.24495069  1  0.12813  0  0.119051  0.123429  0  1.008939  0
H  H57  1  0.29478784  0.08006386  0.75505112  1  0.128239  0  0.119046  0.123436  0  1.008934  0
C  C58  1  0.55962199  0.71798300  0.85499488  1  1.621603  0  0.245043  0.67271  0  4.156772  0
C  C59  1  0.44038064  0.28201569  0.14500760  1  1.621939  0  0.245122  0.672897  0  4.156882  0
C  C60  1  0.62539164  0.61744157  0.90390921  1  -0.03272  0  -0.008882  -0.078987  0  3.980109  0
C  C61  1  0.37460589  0.38255710  0.09609224  1  -0.03231  0  -0.008875  -0.079057  0  3.980121  0
C  C62  1  0.68086024  0.61204969  0.97429682  1  -0.055968  0  -0.056478  -0.095315  0  3.88954  0
C  C63  1  0.31914069  0.38794899  0.02570556  1  -0.056142  0  -0.056471  -0.09523  0  3.88943  0
C  C64  1  0.73940218  0.51561956  0.01987844  1  0.067275  0  0.005743  0.042876  0  3.973966  0
C  C65  1  0.26059647  0.48437589  0.98012458  1  0.067556  0  0.005744  0.04286  0  3.973964  0
C  C66  1  0.73716804  0.42702027  0.99298128  1  0.480729  0  0.063125  0.073264  0  3.882883  0
C  C67  1  0.26282798  0.57297599  0.00702449  1  0.480277  0  0.063221  0.073464  0  3.882853  0
C  C68  1  0.62910646  0.52512003  0.88185341  1  0.511281  0  0.053651  0.063464  0  3.934466  0
C  C69  1  0.37089029  0.47487783  0.11814934  1  0.510815  0  0.053707  0.063595  0  3.93451  0
C  C70  1  0.80561471  0.51127958  0.08796186  1  -0.005183  0  -0.000583  0.050898  0  3.954425  0
C  C71  1  0.19438367  0.48871910  0.91203858  1  -0.005218  0  -0.000558  0.050928  0  3.95449  0
C  C72  1  0.88154403  0.59162505  0.04435340  1  -0.04395  0  -0.09018  -0.127853  0  3.97303  0
C  C73  1  0.11845507  0.40837524  0.95564615  1  -0.043836  0  -0.090189  -0.127899  0  3.973079  0
C  C74  1  0.94933681  0.59307267  0.10095324  1  -0.058714  0  -0.086793  -0.062378  0  4.009211  0
C  C75  1  0.05066072  0.40692600  0.89904892  1  -0.059003  0  -0.086764  -0.062342  0  4.009306  0
C  C76  1  0.94290667  0.51311615  0.20318116  1  -0.000121  0  -0.092244  -0.086049  0  4.016082  0
C  C77  1  0.05709256  0.48688253  0.79682111  1  -0.00011  0  -0.092246  -0.086085  0  4.016072  0
C  C78  1  0.86811118  0.43276615  0.24765183  1  -0.077524  0  -0.080095  -0.085638  0  3.988481  0
C  C79  1  0.13188896  0.56723172  0.75235042  1  -0.077506  0  -0.080113  -0.085607  0  3.98836  0
C  C80  1  0.79921305  0.43058735  0.19165798  1  -0.025805  0  -0.014617  -0.066546  0  3.916718  0
C  C81  1  0.20078886  0.56940972  0.80834325  1  -0.025716  0  -0.014598  -0.066599  0  3.916689  0
C  C82  1  0.71758190  0.34412066  0.24886040  1  1.540874  0  0.183314  0.560616  0  4.262505  0
C  C83  1  0.28241910  0.65587721  0.75114012  1  1.540833  0  0.183309  0.560692  0  4.262554  0
C  C84  1  0.29089704  0.02441238  0.12755371  1  1.55323  0  0.217144  0.624075  0  4.186937  0
C  C85  1  0.70910246  0.97558306  0.87244544  1  1.553038  0  0.217162  0.624194  0  4.186717  0
C  C86  1  0.21791868  0.09856855  0.18680868  1  -0.055331  0  -0.011007  -0.072131  0  3.926  0
C  C87  1  0.78208155  0.90142852  0.81318959  1  -0.055163  0  -0.011013  -0.072161  0  3.925934  0
C  C88  1  0.25950008  0.11744719  0.25619052  1  -0.033471  0  -0.085941  -0.095189  0  3.951546  0
C  C89  1  0.74050354  0.88254988  0.74380796  1  -0.033405  0  -0.085973  -0.095259  0  3.951666  0
C  C90  1  0.19497662  0.18078853  0.31965924  1  -0.016896  0  -0.08782  -0.074426  0  4.000987  0
C  C91  1  0.80502366  0.81920773  0.68034003  1  -0.016992  0  -0.087786  -0.074356  0  4.00094  0
C  C92  1  0.08669948  0.22445572  0.31529429  1  -0.050171  0  -0.090496  -0.077578  0  4.022475  0
C  C93  1  0.91329917  0.77553972  0.68470587  1  -0.050023  0  -0.09052  -0.077507  0  4.022296  0
C  C94  1  0.04464208  0.20569436  0.24695451  1  -0.06343  0  -0.089216  -0.133613  0  3.977067  0
C  C95  1  0.95536161  0.79430190  0.75304498  1  -0.063818  0  -0.089203  -0.133631  0  3.976893  0
C  C96  1  0.10879372  0.14317490  0.18095047  1  -0.031531  0  -0.001268  0.042496  0  3.983947  0
C  C97  1  0.89120801  0.85682458  0.81904633  1  -0.031576  0  -0.001203  0.042625  0  3.983831  0
C  C98  1  0.05908728  0.13217699  0.10696925  1  -0.000883  0  -0.003532  0.022813  0  3.984176  0
C  C99  1  0.94091360  0.86782249  0.89302785  1  -0.000733  0  -0.003532  0.022685  0  3.984226  0
C  C100  1  0.12392828  0.13264270  0.99945587  1  0.532402  0  0.05377  0.060541  0  3.934682  0
C  C101  1  0.87607496  0.86735921  0.00053803  1  0.532311  0  0.053823  0.060651  0  3.934636  0
C  C102  1  0.96673998  0.12769084  0.96076947  1  0.510771  0  0.051501  0.073147  0  3.951263  0
C  C103  1  0.03326169  0.87230945  0.03922561  1  0.511074  0  0.051439  0.073003  0  3.951258  0
C  C104  1  0.89342048  0.12959318  0.06507092  1  -0.063605  0  -0.018397  -0.103366  0  3.986513  0
C  C105  1  0.10658282  0.87040792  0.93492327  1  -0.063862  0  -0.018373  -0.103324  0  3.986457  0
C  C106  1  0.94072780  0.13068336  0.13878086  1  -0.021904  0  -0.059137  -0.088652  0  3.886796  0
C  C107  1  0.05927478  0.86931613  0.86121421  1  -0.021885  0  -0.05915  -0.088622  0  3.886738  0
C  C108  1  0.76678963  0.13185959  0.09679279  1  1.601143  0  0.242568  0.670196  0  4.157215  0
C  C109  1  0.23321032  0.86814070  0.90320788  1  1.601202  0  0.242624  0.670242  0  4.157136  0
C  C110  1  0.67734095  0.93249875  0.46446678  1  1.564209  0  0.240659  0.650754  0  4.143866  0
C  C111  1  0.32266051  0.06750396  0.53553100  1  1.56417  0  0.240664  0.650835  0  4.143817  0
C  C112  1  0.80078282  0.90294834  0.41082944  1  -0.041731  0  -0.01296  -0.097835  0  3.924336  0
C  C113  1  0.19921503  0.09705678  0.58917224  1  -0.042171  0  -0.012964  -0.098024  0  3.924436  0
C  C114  1  0.88137879  0.95600803  0.41405980  1  -0.054366  0  -0.075742  -0.084992  0  3.972517  0
C  C115  1  0.11862089  0.04399549  0.58594185  1  -0.05455  0  -0.075714  -0.084847  0  3.972419  0
C  C116  1  0.99684753  0.92152773  0.38268202  1  0.010575  0  -0.08895  -0.080641  0  3.997502  0
C  C117  1  0.00315058  0.07847417  0.61732011  1  0.010558  0  -0.088943  -0.080668  0  3.997624  0
C  C118  1  0.03361396  0.83481562  0.34491144  1  -0.04483  0  -0.079378  -0.058897  0  3.98345  0
C  C119  1  0.96638330  0.16518628  0.65509313  1  -0.045011  0  -0.079352  -0.058827  0  3.983442  0
C  C120  1  0.95455622  0.78389703  0.33776900  1  -0.069308  0  -0.087824  -0.134178  0  3.984049  0
C  C121  1  0.04544268  0.21610568  0.66223324  1  -0.069126  0  -0.087821  -0.13419  0  3.984042  0
C  C122  1  0.83792204  0.81658603  0.37021492  1  0.038468  0  0.000245  0.060183  0  3.966808  0
C  C123  1  0.16207902  0.18342152  0.62978540  1  0.039001  0  0.000288  0.060234  0  3.966898  0
C  C124  1  0.76004554  0.76762904  0.34935750  1  0.067353  0  0.000583  0.026844  0  4.01132  0
C  C125  1  0.23995473  0.23237770  0.65064056  1  0.067643  0  0.000564  0.026675  0  4.011475  0
C  C126  1  0.74933712  0.65622720  0.38996482  1  0.469009  0  0.04262  0.032129  0  3.964627  0
C  C127  1  0.25066341  0.34377632  0.61003440  1  0.468148  0  0.042648  0.032254  0  3.96458  0
C  C128  1  0.62568695  0.67471138  0.30010413  1  0.555523  0  0.044905  0.075545  0  3.969538  0
C  C129  1  0.37431450  0.32529133  0.69989579  1  0.555362  0  0.044941  0.075574  0  3.969562  0
C  C130  1  0.62875409  0.78731485  0.25582494  1  -0.071801  0  -0.020731  -0.100558  0  3.966135  0
C  C131  1  0.37124546  0.21269027  0.74417543  1  -0.072377  0  -0.020799  -0.100514  0  3.966241  0
C  C132  1  0.69813866  0.83329952  0.28037545  1  -0.054082  0  -0.056427  -0.083694  0  3.908805  0
C  C133  1  0.30186010  0.16670480  0.71962551  1  -0.053308  0  -0.056354  -0.083544  0  3.908812  0
C  C134  1  0.56088136  0.85833268  0.18382457  1  1.576644  0  0.235255  0.645791  0  4.145902  0
C  C135  1  0.43911604  0.14166761  0.81617488  1  1.576476  0  0.235285  0.645665  0  4.145761  0
N  N136  1  0.68324240  0.43137092  0.92627923  1  -1.237177  0  -0.303773  -0.229731  0  3.42949  0
N  N137  1  0.31675271  0.56862613  0.07372584  1  -1.237076  0  -0.303881  -0.229891  0  3.429686  0
N  N138  1  0.08015619  0.12960094  0.92825931  1  -1.196403  0  -0.32013  -0.262948  0  3.364812  0
N  N139  1  0.91984627  0.87040016  0.07173518  1  -1.196129  0  -0.320131  -0.262894  0  3.364801  0
N  N140  1  0.68347626  0.61001221  0.36688916  1  -1.186953  0  -0.337204  -0.287908  0  3.349596  0
N  N141  1  0.31652428  0.38999131  0.63311148  1  -1.186586  0  -0.337239  -0.287985  0  3.349433  0
O  O142  1  0.52082271  0.78355083  0.90708969  1  -1.20834  0  -0.429946  -0.714689  0  2.398867  0
O  O143  1  0.47917902  0.21644865  0.09290710  1  -1.20836  0  -0.42997  -0.714765  0  2.398682  0
O  O144  1  0.54700734  0.73112038  0.76574536  1  -1.181358  0  -0.390291  -0.651951  0  2.306778  0
O  O145  1  0.45299525  0.26887910  0.23424900  1  -1.181442  0  -0.390297  -0.651997  0  2.307201  0
O  O146  1  0.74406995  0.25310525  0.31407869  1  -1.177953  0  -0.375399  -0.626873  0  2.184998  0
O  O147  1  0.25593020  0.74689262  0.68592214  1  -1.177898  0  -0.375371  -0.626882  0  2.185044  0
O  O148  1  0.62175617  0.36240164  0.23316430  1  -1.177055  0  -0.397334  -0.660329  0  2.22812  0
O  O149  1  0.37824469  0.63759785  0.76683707  1  -1.177064  0  -0.397371  -0.660394  0  2.228121  0
O  O150  1  0.25579145  0.93702560  0.14464079  1  -1.159271  0  -0.349716  -0.588521  0  2.206802  0
O  O151  1  0.74420760  0.06297549  0.85535776  1  -1.158995  0  -0.349703  -0.588558  0  2.206681  0
O  O152  1  0.39247585  0.04976812  0.05918351  1  -1.217923  0  -0.449703  -0.784918  0  2.462866  0
O  O153  1  0.60752463  0.95022572  0.94081805  1  -1.217862  0  -0.449716  -0.784977  0  2.46282  0
O  O154  1  0.72910122  0.12775626  0.02758391  1  -1.182396  0  -0.402992  -0.650069  0  2.316078  0
O  O155  1  0.27090092  0.87223838  0.97241177  1  -1.182418  0  -0.402911  -0.649989  0  2.316291  0
O  O156  1  0.70465316  0.13930573  0.19032200  1  -1.218258  0  -0.420364  -0.693123  0  2.344613  0
O  O157  1  0.29535271  0.86069537  0.80966772  1  -1.218289  0  -0.420535  -0.693229  0  2.344257  0
O  O158  1  0.61014913  0.85723373  0.52110613  1  -1.185332  0  -0.376689  -0.652599  0  2.310465  0
O  O159  1  0.38984809  0.14276896  0.47888889  1  -1.185337  0  -0.376669  -0.652579  0  2.310643  0
O  O160  1  0.64669550  0.03110579  0.45736176  1  -1.211071  0  -0.397341  -0.688036  0  2.297199  0
O  O161  1  0.35330445  0.96889450  0.54264035  1  -1.211084  0  -0.397352  -0.688096  0  2.297222  0
O  O162  1  0.56355647  0.96039488  0.15605205  1  -1.21907  0  -0.371147  -0.6679  0  2.316956  0
O  O163  1  0.43644230  0.03960944  0.84394677  1  -1.21909  0  -0.371144  -0.667832  0  2.317073  0
O  O164  1  0.50591851  0.81497308  0.15446784  1  -1.181886  0  -0.376051  -0.650405  0  2.256747  0
O  O165  1  0.49408314  0.18502722  0.84553365  1  -1.181866  0  -0.37607  -0.650392  0  2.256461  0
O  O166  1  0.35510933  0.71473637  0.13640004  1  -1.233508  0  -0.643814  -0.839859  0  2.107929  0
O  O167  1  0.64489435  0.28525990  0.86360087  1  -1.233338  0  -0.64379  -0.839846  0  2.107992  0
O  O168  1  0.49226874  0.97177205  0.66840082  1  -1.26772  0  -0.642637  -0.872797  0  2.139581  0
O  O169  1  0.50772957  0.02822743  0.33160075  1  -1.267701  0  -0.642637  -0.872779  0  2.139588  0
O  O170  1  0.47374899  0.74375018  0.52046518  1  -1.240801  0  -0.61312  -0.820947  0  2.07335  0
O  O171  1  0.52624939  0.25624850  0.47953597  1  -1.240831  0  -0.613148  -0.821005  0  2.07332  0
