# generated using pymatgen
data_Zn2H27C21(NO3)3
_symmetry_space_group_name_H-M   'P 1'
_cell_length_a   9.86163782
_cell_length_b   10.92942765
_cell_length_c   11.23031358
_cell_angle_alpha   88.28215154
_cell_angle_beta   80.97933900
_cell_angle_gamma   74.88822268
_symmetry_Int_Tables_number   1
_chemical_formula_structural   Zn2H27C21(NO3)3
_chemical_formula_sum   'Zn2 H27 C21 N3 O9'
_cell_volume   1154.04021929
_cell_formula_units_Z   1
loop_
 _symmetry_equiv_pos_site_id
 _symmetry_equiv_pos_as_xyz
  1  'x, y, z'
loop_
 _atom_site_type_symbol
 _atom_site_label
 _atom_site_symmetry_multiplicity
 _atom_site_fract_x
 _atom_site_fract_y
 _atom_site_fract_z
 _atom_site_occupancy
 _atom_site_pbe_bader_charge
 _atom_site_pbe_bader_spin_density
 _atom_site_pbe_cm5_charge
 _atom_site_pbe_ddec_charge
 _atom_site_pbe_ddec_spin_density
 _atom_site_pbe_ddec_sum_bond_order
 _atom_site_pbe_magmom
Zn  Zn0  1  0.36608255  0.52436421  0.49461630  1  1.275868  0  0.665319  0.786659  0  2.450766  0
Zn  Zn1  1  0.65287758  0.45462815  0.50634683  1  1.286968  0  0.662796  0.854595  0  2.441359  0
H  H2  1  0.32255415  0.95699470  0.39209186  1  0.004416  0  0.085212  0.080074  0  0.992875  0
H  H3  1  0.66787498  0.03246237  0.61249057  1  0.021342  0  0.087078  0.085855  0  0.979938  0
H  H4  1  0.45943563  0.88680266  0.68353024  1  0.025224  0  0.090637  0.089734  0  0.977526  0
H  H5  1  0.40304024  0.10828275  0.69997578  1  0.03878  0  0.091747  0.088616  0  0.980106  0
H  H6  1  0.62566276  0.44365023  0.88858791  1  0.072596  0  0.106006  0.125157  0  0.998638  0
H  H7  1  0.39018057  0.53397662  0.11237043  1  0.141606  0  0.105413  0.106715  0  0.996215  0
H  H8  1  0.71151706  0.40707727  0.09516959  1  0.070462  0  0.101915  0.122359  0  0.992712  0
H  H9  1  0.13413402  0.40671002  0.53109621  1  0.145448  0  0.127689  0.116062  0  1.02084  0
H  H10  1  0.86495775  0.60502603  0.45710271  1  0.134657  0  0.130744  0.091111  0  0.98692  0
H  H11  1  0.48769957  0.90717011  0.29707411  1  0.013007  0  0.090299  0.08711  0  0.978143  0
H  H12  1  0.92024786  0.34957519  0.55304385  1  0.421957  0  0.314717  0.287131  0  0.911122  0
H  H13  1  0.54226010  0.10143174  0.31599791  1  0.02134  0  0.091483  0.090716  0  0.971744  0
H  H14  1  0.36017012  0.16139601  0.37377328  1  0.034159  0  0.090934  0.091801  0  0.990442  0
H  H15  1  0.30362080  0.91022295  0.61722798  1  0.028803  0  0.086659  0.079866  0  1.012134  0
H  H16  1  0.28067578  0.12977819  0.59707853  1  0.012981  0  0.086275  0.081888  0  0.993177  0
H  H17  1  0.70158268  0.82141324  0.55185198  1  0.005731  0  0.083448  0.076269  0  1.010825  0
H  H18  1  0.71195987  0.86161972  0.39741351  1  0.008603  0  0.082027  0.072975  0  0.993797  0
H  H19  1  0.72608234  0.06113238  0.46075900  1  0.062281  0  0.086811  0.087057  0  0.996876  0
H  H20  1  0.09837911  0.72879684  0.92765096  1  0.029953  0  0.105137  0.074972  0  0.957948  0
H  H21  1  0.21955357  0.72498562  0.79100235  1  0.071624  0  0.097581  0.070443  0  1.011315  0
H  H22  1  0.26655846  0.80019443  0.04059264  1  0.004726  0  0.091652  0.08584  0  0.972822  0
H  H23  1  0.38175044  0.80235758  0.90378086  1  0.022867  0  0.088299  0.077718  0  0.99012  0
H  H24  1  0.18707670  0.96931642  0.82296450  1  0.005069  0  0.084539  0.111529  0  1.022924  0
H  H25  1  0.22874533  0.02179186  0.95740439  1  0.031265  0  0.08989  0.119082  0  0.995748  0
H  H26  1  0.07280805  0.96835460  0.96176015  1  0.005649  0  0.084221  0.10654  0  1.006918  0
H  H27  1  0.17839901  0.74864029  0.43527858  1  0.51658  0  0.328299  0.312363  0  0.95743  0
H  H28  1  0.00104150  0.73715533  0.43394204  1  0.450162  0  0.333321  0.293299  0  0.932257  0
C  C29  1  0.57220128  0.45857316  0.26779648  1  1.529484  0  0.198107  0.628621  0  4.197041  0
C  C30  1  0.49735831  0.11378943  0.51127623  1  0.034686  0  -0.016804  0.02668  0  3.793991  0
C  C31  1  0.38834693  0.07795309  0.61141512  1  -0.039034  0  -0.159258  -0.175741  0  3.877555  0
C  C32  1  0.64523120  0.02634574  0.52033718  1  -0.063078  0  -0.168963  -0.182792  0  3.902187  0
C  C33  1  0.60120337  0.44843673  0.13501140  1  -0.097346  0  -0.104998  -0.252143  0  3.900476  0
C  C34  1  0.49779281  0.49223576  0.06622694  1  0.000747  0  -0.08064  -0.003039  0  4.039895  0
C  C35  1  0.41787515  0.54077990  0.86897459  1  0.463678  0  0.079405  0.110755  0  3.994762  0
C  C36  1  0.52080592  0.48934481  0.93731491  1  0.017186  0  -0.102907  -0.189615  0  4.024066  0
C  C37  1  0.92740769  0.51651793  0.49120971  1  0.627417  0  0.094057  0.190595  0  3.956878  0
C  C38  1  0.07439508  0.49834671  0.50147411  1  0.515401  0  0.033101  -0.094455  0  3.949024  0
C  C39  1  0.49365122  0.73779776  0.47883315  1  1.543372  0  0.22157  0.597176  0  4.092904  0
C  C40  1  0.45124624  0.52909628  0.73365097  1  1.581919  0  0.206718  0.53892  0  4.218991  0
C  C41  1  0.49383365  0.25377980  0.52110379  1  1.564202  0  0.221687  0.593872  0  4.098225  0
C  C42  1  0.43592420  0.95421623  0.38379279  1  -0.001991  0  -0.158139  -0.168309  0  3.874801  0
C  C43  1  0.45711887  0.08942231  0.38788497  1  -0.024585  0  -0.158183  -0.173707  0  3.851724  0
C  C44  1  0.40687477  0.93294865  0.60830446  1  -0.032077  0  -0.159292  -0.174416  0  3.861687  0
C  C45  1  0.65010987  0.88873113  0.48759003  1  -0.002021  0  -0.169012  -0.183208  0  3.917009  0
C  C46  1  0.49833582  0.87566184  0.48830159  1  0.04955  0  -0.018601  0.021397  0  3.800215  0
C  C47  1  0.21068227  0.71779217  0.88975532  1  0.413789  0  -0.070257  0.022448  0  3.887111  0
C  C48  1  0.26904918  0.81639832  0.94306216  1  0.005387  0  -0.170343  -0.13783  0  3.996501  0
C  C49  1  0.18483207  0.95130963  0.92001189  1  -0.03367  0  -0.24337  -0.351828  0  3.981421  0
N  N50  1  0.85969265  0.43078681  0.52044429  1  -1.183662  0  -0.461047  -0.419385  0  3.249707  0
N  N51  1  0.15018479  0.58051217  0.47738737  1  -0.681958  0  -0.190821  0.053334  0  3.658879  0
N  N52  1  0.10532918  0.69664648  0.43866275  1  -0.71565  0  -0.42704  -0.401351  0  3.353612  0
O  O53  1  0.44232338  0.49567184  0.31810412  1  -1.170333  0  -0.328989  -0.56024  0  2.339552  0
O  O54  1  0.67975227  0.42986266  0.32332243  1  -1.158101  0  -0.332229  -0.561304  0  2.267289  0
O  O55  1  0.37257779  0.71708694  0.47487471  1  -1.189739  0  -0.32275  -0.574367  0  2.327369  0
O  O56  1  0.60871888  0.65205134  0.47887712  1  -1.177231  0  -0.311852  -0.556109  0  2.343671  0
O  O57  1  0.34577391  0.54922074  0.67625774  1  -1.156675  0  -0.317821  -0.530909  0  2.36037  0
O  O58  1  0.58174737  0.49796269  0.68751955  1  -1.163385  0  -0.319507  -0.541784  0  2.341872  0
O  O59  1  0.37451778  0.33381985  0.51738206  1  -1.180996  0  -0.320523  -0.557793  0  2.337252  0
O  O60  1  0.60950056  0.28127303  0.53007003  1  -1.170479  0  -0.317051  -0.546164  0  2.326149  0
O  O61  1  0.28108700  0.59041017  0.92255872  1  -1.068931  0  -0.194397  -0.200844  0  2.535504  0
