# generated using pymatgen
data_Pr2H8C4S2O15
_symmetry_space_group_name_H-M   'P 1'
_cell_length_a   6.65252701
_cell_length_b   8.48834915
_cell_length_c   13.08378969
_cell_angle_alpha   86.88686724
_cell_angle_beta   89.51604814
_cell_angle_gamma   68.85177402
_symmetry_Int_Tables_number   1
_chemical_formula_structural   Pr2H8C4S2O15
_chemical_formula_sum   'Pr4 H16 C8 S4 O30'
_cell_volume   688.00203856
_cell_formula_units_Z   2
loop_
 _symmetry_equiv_pos_site_id
 _symmetry_equiv_pos_as_xyz
  1  'x, y, z'
loop_
 _atom_site_type_symbol
 _atom_site_label
 _atom_site_symmetry_multiplicity
 _atom_site_fract_x
 _atom_site_fract_y
 _atom_site_fract_z
 _atom_site_occupancy
 _atom_site_hle17_bader_spin_density
 _atom_site_hle17_ddec_charge
 _atom_site_hle17_ddec_spin_density
 _atom_site_hle17_ddec_sum_bond_order
 _atom_site_hle17_magmom
 _atom_site_hse06_10hf_bader_spin_density
 _atom_site_hse06_10hf_ddec_charge
 _atom_site_hse06_10hf_ddec_spin_density
 _atom_site_hse06_10hf_ddec_sum_bond_order
 _atom_site_hse06_10hf_magmom
 _atom_site_hse06_bader_spin_density
 _atom_site_hse06_ddec_charge
 _atom_site_hse06_ddec_spin_density
 _atom_site_hse06_ddec_sum_bond_order
 _atom_site_hse06_magmom
 _atom_site_pbe_bader_spin_density
 _atom_site_pbe_cm5_charge
 _atom_site_pbe_ddec_charge
 _atom_site_pbe_ddec_spin_density
 _atom_site_pbe_ddec_sum_bond_order
 _atom_site_pbe_magmom
Pr  Pr0  1  0.39506104  0.47328038  0.66236379  1  0  2.337612  0  1.592052  0  0  2.220954  0  1.950057  0  0  2.25654  0  1.911296  0  0  1.529414  2.142667  0  2.076181  0
Pr  Pr1  1  0.60494384  0.52671568  0.33763570  1  0  2.337606  0  1.592081  0  0  2.220945  0  1.950082  0  0  2.256533  0  1.911322  0  0  1.529391  2.142666  0  2.076189  0
Pr  Pr2  1  0.25375072  0.25347012  0.00407854  1  0  2.410381  0  1.542502  0  0  2.30397  0  1.904027  0  0  2.33868  0  1.862599  0  0  1.558472  2.278141  0  1.933513  0
Pr  Pr3  1  0.74625031  0.74653100  0.99592077  1  0  2.410388  0  1.542484  0  0  2.303978  0  1.904004  0  0  2.338686  0  1.862575  0  0  1.55848  2.27815  0  1.933489  0
H  H4  1  0.64870126  0.02247523  0.51985842  1  0  0.100221  0  0.914139  0  0  0.10874  0  0.977396  0  0  0.111283  0  0.975114  0  0  0.115634  0.106644  0  0.979752  0
H  H5  1  0.35129976  0.97752590  0.48014242  1  0  0.100233  0  0.914126  0  0  0.108752  0  0.97738  0  0  0.111295  0  0.975098  0  0  0.115657  0.106656  0  0.979735  0
H  H6  1  0.90303459  0.99626148  0.57594466  1  0  0.115  0  0.963294  0  0  0.12592  0  1.021441  0  0  0.128417  0  1.020311  0  0  0.119059  0.123784  0  1.023023  0
H  H7  1  0.09696702  0.00373837  0.42405546  1  0  0.114967  0  0.963327  0  0  0.125912  0  1.021441  0  0  0.128409  0  1.020311  0  0  0.119059  0.123777  0  1.023021  0
H  H8  1  0.80631127  0.94558777  0.74866027  1  0  0.126639  0  0.906616  0  0  0.135216  0  0.96345  0  0  0.13805  0  0.961465  0  0  0.129577  0.133076  0  0.965243  0
H  H9  1  0.19368734  0.05441208  0.25133986  1  0  0.126625  0  0.906587  0  0  0.135215  0  0.963432  0  0  0.138052  0  0.961446  0  0  0.129576  0.133076  0  0.96522  0
H  H10  1  0.56037538  0.94314974  0.69768814  1  0  0.127685  0  0.898825  0  0  0.13779  0  0.953297  0  0  0.140514  0  0.951415  0  0  0.129381  0.135647  0  0.955122  0
H  H11  1  0.43962265  0.05685136  0.30231042  1  0  0.127619  0  0.898816  0  0  0.137761  0  0.953252  0  0  0.140494  0  0.951362  0  0  0.129365  0.135588  0  0.955114  0
H  H12  1  0.26376177  0.32344968  0.46764108  1  0  0.44026  0  0.85682  0  0  0.40968  0  0.920129  0  0  0.419985  0  0.905081  0  0  0.304071  0.402294  0  0.930744  0
H  H13  1  0.73623743  0.67654891  0.53235986  1  0  0.440251  0  0.856826  0  0  0.409721  0  0.920069  0  0  0.420027  0  0.905016  0  0  0.304094  0.402333  0  0.930685  0
H  H14  1  0.08706272  0.34846693  0.55430020  1  0  0.438557  0  0.826789  0  0  0.415649  0  0.888309  0  0  0.42463  0  0.874997  0  0  0.320929  0.409219  0  0.897683  0
H  H15  1  0.91293888  0.65153293  0.44570145  1  0  0.438574  0  0.826753  0  0  0.415667  0  0.88828  0  0  0.424649  0  0.874966  0  0  0.320937  0.409237  0  0.897652  0
H  H16  1  0.93472109  0.24321218  0.83196176  1  0  0.458743  0  0.827698  0  0  0.432866  0  0.880475  0  0  0.442956  0  0.865699  0  0  0.3094  0.425559  0  0.891225  0
H  H17  1  0.06527902  0.75678767  0.16803837  1  0  0.458733  0  0.827712  0  0  0.432858  0  0.880488  0  0  0.442948  0  0.865711  0  0  0.309397  0.425551  0  0.891238  0
H  H18  1  0.03495476  0.05322687  0.88424432  1  0  0.4542  0  0.833123  0  0  0.427569  0  0.887994  0  0  0.437674  0  0.873152  0  0  0.308031  0.420412  0  0.898517  0
H  H19  1  0.96504476  0.94677425  0.11575576  1  0  0.454178  0  0.833155  0  0  0.427546  0  0.88803  0  0  0.437652  0  0.873188  0  0  0.308019  0.420389  0  0.898553  0
C  C20  1  0.74998904  0.23242216  0.48977448  1  0  0.677519  0  3.895451  0  0  0.628275  0  4.205261  0  0  0.661278  0  4.195486  0  0  0.20151  0.60674  0  4.204415  0
C  C21  1  0.25001257  0.76757769  0.51022564  1  0  0.67756  0  3.895456  0  0  0.628331  0  4.205225  0  0  0.661337  0  4.195447  0  0  0.201527  0.606797  0  4.204379  0
C  C22  1  0.73933597  0.08816478  0.55902255  1  0  -0.070275  0  3.611568  0  0  -0.114156  0  3.857971  0  0  -0.113566  0  3.860125  0  0  -0.060991  -0.114885  0  3.855929  0
C  C23  1  0.26066564  0.91183508  0.44097757  1  0  -0.070279  0  3.611566  0  0  -0.114154  0  3.857943  0  0  -0.113565  0  3.860096  0  0  -0.061012  -0.114887  0  3.85591  0
C  C24  1  0.64012887  0.02613156  0.72643345  1  0  -0.084161  0  3.609147  0  0  -0.126305  0  3.852806  0  0  -0.125617  0  3.853379  0  0  -0.051463  -0.126916  0  3.85137  0
C  C25  1  0.35986824  0.97386828  0.27356669  1  0  -0.084079  0  3.609008  0  0  -0.126264  0  3.852746  0  0  -0.125592  0  3.85333  0  0  -0.051452  -0.126857  0  3.851315  0
C  C26  1  0.51969278  0.10909264  0.81834107  1  0  0.751516  0  3.80034  0  0  0.703263  0  4.100597  0  0  0.738219  0  4.087359  0  0  0.238779  0.679526  0  4.107248  0
C  C27  1  0.48030883  0.89090722  0.18165906  1  0  0.75155  0  3.800259  0  0  0.70323  0  4.100652  0  0  0.738193  0  4.087407  0  0  0.238762  0.679494  0  4.107296  0
S  S28  1  0.79913926  0.55813302  0.73269138  1  0  1.664361  0  5.79367  0  0  1.542933  0  6.335398  0  0  1.59935  0  6.29559  0  0  0.598911  1.504302  0  6.355713  0
S  S29  1  0.20085876  0.44186807  0.26730718  1  0  1.66429  0  5.793679  0  0  1.542858  0  6.335425  0  0  1.599281  0  6.295607  0  0  0.598911  1.504229  0  6.355738  0
S  S30  1  0.77460136  0.30522135  0.08447901  1  0  1.711256  0  5.731851  0  0  1.592927  0  6.271244  0  0  1.649942  0  6.229271  0  0  0.618711  1.552934  0  6.298626  0
S  S31  1  0.22540025  0.69477850  0.91552111  1  0  1.711238  0  5.73172  0  0  1.592911  0  6.271111  0  0  1.649926  0  6.22914  0  0  0.618707  1.55292  0  6.298491  0
O  O32  1  0.67999743  0.38127909  0.52478678  1  0  -0.804973  0  2.143037  0  0  -0.756697  0  2.398295  0  0  -0.779873  0  2.387384  0  0  -0.422548  -0.730543  0  2.404261  0
O  O33  1  0.32000419  0.61872076  0.47521258  1  0  -0.805001  0  2.143039  0  0  -0.756727  0  2.398282  0  0  -0.779905  0  2.387366  0  0  -0.422534  -0.730574  0  2.404252  0
O  O34  1  0.82017785  0.20826932  0.40013682  1  0  -0.63615  0  1.945181  0  0  -0.60032  0  2.177497  0  0  -0.622264  0  2.16796  0  0  -0.342397  -0.580679  0  2.183616  0
O  O35  1  0.17982167  0.79173180  0.59986326  1  0  -0.63616  0  1.945156  0  0  -0.600334  0  2.177457  0  0  -0.62228  0  2.167921  0  0  -0.342404  -0.580691  0  2.183576  0
O  O36  1  0.63735735  0.15479244  0.65168485  1  0  -0.327277  0  2.458132  0  0  -0.264921  0  2.706126  0  0  -0.278612  0  2.708314  0  0  -0.267203  -0.250419  0  2.703605  0
O  O37  1  0.36264517  0.84520870  0.34831675  1  0  -0.32727  0  2.458075  0  0  -0.264939  0  2.706112  0  0  -0.278625  0  2.708304  0  0  -0.267203  -0.250433  0  2.703583  0
O  O38  1  0.40711813  0.26630879  0.81370152  1  0  -0.739773  0  2.034917  0  0  -0.698795  0  2.287375  0  0  -0.721725  0  2.275424  0  0  -0.378313  -0.676847  0  2.295634  0
O  O39  1  0.59288198  0.73369106  0.18629784  1  0  -0.739794  0  2.034877  0  0  -0.698782  0  2.287362  0  0  -0.721715  0  2.275409  0  0  -0.378301  -0.676834  0  2.295621  0
O  O40  1  0.52958159  0.01807245  0.90053145  1  0  -0.790676  0  2.081893  0  0  -0.747273  0  2.344941  0  0  -0.771025  0  2.332208  0  0  -0.419709  -0.730967  0  2.353648  0
O  O41  1  0.47041852  0.98192740  0.09946867  1  0  -0.790676  0  2.081844  0  0  -0.74725  0  2.344935  0  0  -0.771001  0  2.332195  0  0  -0.419693  -0.730939  0  2.353633  0
O  O42  1  0.74577165  0.40516877  0.76256154  1  0  -0.796149  0  2.004735  0  0  -0.743736  0  2.254217  0  0  -0.764011  0  2.235837  0  0  -0.387583  -0.724375  0  2.266606  0
O  O43  1  0.25422846  0.59483107  0.23743783  1  0  -0.79613  0  2.004755  0  0  -0.743728  0  2.254244  0  0  -0.764002  0  2.235862  0  0  -0.387581  -0.724366  0  2.266634  0
O  O44  1  0.63453022  0.65721357  0.65300326  1  0  -0.798574  0  1.993899  0  0  -0.73924  0  2.238969  0  0  -0.761801  0  2.223209  0  0  -0.383176  -0.718887  0  2.249645  0
O  O45  1  0.36546598  0.34278500  0.34699694  1  0  -0.798594  0  1.993941  0  0  -0.739219  0  2.23897  0  0  -0.761791  0  2.223224  0  0  -0.383171  -0.718862  0  2.249639  0
O  O46  1  0.01648547  0.50663681  0.68809014  1  0  -0.821687  0  2.037187  0  0  -0.770462  0  2.312399  0  0  -0.790675  0  2.291067  0  0  -0.420057  -0.749285  0  2.328205  0
O  O47  1  0.98351196  0.49336556  0.31190914  1  0  -0.821635  0  2.037136  0  0  -0.770403  0  2.312321  0  0  -0.790617  0  2.290992  0  0  -0.420037  -0.749227  0  2.328125  0
O  O48  1  0.78490418  0.66072140  0.82146087  1  0  -0.81622  0  2.066536  0  0  -0.7735  0  2.358032  0  0  -0.793848  0  2.337645  0  0  -0.420724  -0.759458  0  2.371833  0
O  O49  1  0.21509384  0.33927970  0.17853769  1  0  -0.816228  0  2.066621  0  0  -0.773503  0  2.3581  0  0  -0.793869  0  2.337753  0  0  -0.420744  -0.759464  0  2.371899  0
O  O50  1  0.24186627  0.30596483  0.54212197  1  0  -0.879101  0  1.81741  0  0  -0.840287  0  2.00019  0  0  -0.856602  0  1.970151  0  0  -0.616363  -0.823263  0  2.024193  0
O  O51  1  0.75813384  0.69403502  0.45787816  1  0  -0.879122  0  1.81736  0  0  -0.840351  0  2.000079  0  0  -0.856668  0  1.970036  0  0  -0.616394  -0.823326  0  2.024082  0
O  O52  1  0.84778027  0.43695494  0.02918042  1  0  -0.93301  0  2.056674  0  0  -0.884712  0  2.341612  0  0  -0.904272  0  2.319531  0  0  -0.468394  -0.870759  0  2.356654  0
O  O53  1  0.15222076  0.56304618  0.97081966  1  0  -0.933026  0  2.056698  0  0  -0.88472  0  2.341616  0  0  -0.904279  0  2.319535  0  0  -0.468396  -0.87077  0  2.356664  0
O  O54  1  0.97399643  0.14841458  0.09027087  1  0  -0.812968  0  1.974964  0  0  -0.756266  0  2.221424  0  0  -0.777932  0  2.20323  0  0  -0.38754  -0.741052  0  2.234079  0
O  O55  1  0.02600518  0.85158528  0.90972925  1  0  -0.81297  0  1.974932  0  0  -0.756268  0  2.221388  0  0  -0.777935  0  2.203194  0  0  -0.387549  -0.741054  0  2.234043  0
O  O56  1  0.60607195  0.27890567  0.02322459  1  0  -0.79271  0  1.987899  0  0  -0.747992  0  2.26138  0  0  -0.767659  0  2.241002  0  0  -0.405621  -0.73428  0  2.275708  0
O  O57  1  0.39393058  0.72109545  0.97677471  1  0  -0.792715  0  1.987861  0  0  -0.748001  0  2.261346  0  0  -0.767672  0  2.240968  0  0  -0.405626  -0.734288  0  2.275674  0
O  O58  1  0.69838137  0.35715657  0.18682816  1  0  -0.787108  0  2.042001  0  0  -0.742128  0  2.318974  0  0  -0.761976  0  2.298399  0  0  -0.401014  -0.721234  0  2.334353  0
O  O59  1  0.30161992  0.64284074  0.81317130  1  0  -0.787093  0  2.041873  0  0  -0.742111  0  2.318845  0  0  -0.761961  0  2.298271  0  0  -0.401012  -0.721217  0  2.334226  0
O  O60  1  0.05861540  0.16133255  0.87172874  1  0  -0.9231  0  1.792573  0  0  -0.878956  0  1.967225  0  0  -0.89604  0  1.936356  0  0  -0.64878  -0.867094  0  1.989178  0
O  O61  1  0.94138471  0.83866730  0.12827139  1  0  -0.92308  0  1.792597  0  0  -0.878938  0  1.96724  0  0  -0.896023  0  1.93637  0  0  -0.648776  -0.867076  0  1.989192  0
