# generated using pymatgen
data_ZnH11C14N5O6
_symmetry_space_group_name_H-M   'P 1'
_cell_length_a   8.66400398
_cell_length_b   9.57586362
_cell_length_c   19.07686866
_cell_angle_alpha   100.56350016
_cell_angle_beta   90.00007873
_cell_angle_gamma   90.00013717
_symmetry_Int_Tables_number   1
_chemical_formula_structural   ZnH11C14N5O6
_chemical_formula_sum   'Zn4 H44 C56 N20 O24'
_cell_volume   1555.89513910
_cell_formula_units_Z   4
loop_
 _symmetry_equiv_pos_site_id
 _symmetry_equiv_pos_as_xyz
  1  'x, y, z'
loop_
 _atom_site_type_symbol
 _atom_site_label
 _atom_site_symmetry_multiplicity
 _atom_site_fract_x
 _atom_site_fract_y
 _atom_site_fract_z
 _atom_site_occupancy
 _atom_site_hle17_bader_spin_density
 _atom_site_hle17_ddec_charge
 _atom_site_hle17_ddec_spin_density
 _atom_site_hle17_ddec_sum_bond_order
 _atom_site_hle17_magmom
 _atom_site_hse06_10hf_bader_spin_density
 _atom_site_hse06_10hf_ddec_charge
 _atom_site_hse06_10hf_ddec_spin_density
 _atom_site_hse06_10hf_ddec_sum_bond_order
 _atom_site_hse06_10hf_magmom
 _atom_site_hse06_bader_spin_density
 _atom_site_hse06_ddec_charge
 _atom_site_hse06_ddec_spin_density
 _atom_site_hse06_ddec_sum_bond_order
 _atom_site_hse06_magmom
 _atom_site_pbe_bader_spin_density
 _atom_site_pbe_cm5_charge
 _atom_site_pbe_ddec_charge
 _atom_site_pbe_ddec_spin_density
 _atom_site_pbe_ddec_sum_bond_order
 _atom_site_pbe_magmom
Zn  Zn0  1  0.37961565  0.00036639  0.87390766  1  0  1.011091  0  1.870411  0  0  0.819357  0  2.348379  0  0  0.864668  0  2.294779  0  0  0.705337  0.786608  0  2.386282  0
Zn  Zn1  1  0.87961570  0.49963566  0.62609091  1  0  1.011094  0  1.870418  0  0  0.819383  0  2.348346  0  0  0.864694  0  2.294748  0  0  0.705341  0.786635  0  2.386251  0
Zn  Zn2  1  0.62038558  0.99963356  0.12609258  1  0  1.010997  0  1.870501  0  0  0.819257  0  2.348484  0  0  0.864572  0  2.294883  0  0  0.705299  0.786508  0  2.386388  0
Zn  Zn3  1  0.12038437  0.50036536  0.37390942  1  0  1.011085  0  1.870413  0  0  0.819366  0  2.348359  0  0  0.864677  0  2.29476  0  0  0.705322  0.786619  0  2.386265  0
H  H4  1  0.36563097  0.55516483  0.89793494  1  0  0.103599  0  0.959133  0  0  0.112364  0  1.025089  0  0  0.11629  0  1.021482  0  0  0.109822  0.109595  0  1.027553  0
H  H5  1  0.86562619  0.94483528  0.60206403  1  0  0.103606  0  0.959105  0  0  0.112361  0  1.025075  0  0  0.116286  0  1.021468  0  0  0.109853  0.10959  0  1.027543  0
H  H6  1  0.63436795  0.44483615  0.10206276  1  0  0.103597  0  0.959152  0  0  0.112342  0  1.025132  0  0  0.116267  0  1.021529  0  0  0.109855  0.109572  0  1.027598  0
H  H7  1  0.13437504  0.05516466  0.39793568  1  0  0.103604  0  0.959116  0  0  0.112364  0  1.025079  0  0  0.116289  0  1.021474  0  0  0.109856  0.109592  0  1.027551  0
H  H8  1  0.07146460  0.75981247  0.06741844  1  0  0.128091  0  0.947844  0  0  0.131415  0  1.016933  0  0  0.135972  0  1.01286  0  0  0.117525  0.128031  0  1.020045  0
H  H9  1  0.57146028  0.74018628  0.43258037  1  0  0.128135  0  0.947902  0  0  0.131444  0  1.016993  0  0  0.136  0  1.012921  0  0  0.117534  0.128058  0  1.020107  0
H  H10  1  0.92853547  0.24018747  0.93258127  1  0  0.128031  0  0.947915  0  0  0.131384  0  1.016972  0  0  0.135941  0  1.0129  0  0  0.117512  0.127999  0  1.020086  0
H  H11  1  0.42853979  0.25981368  0.56741986  1  0  0.128138  0  0.947912  0  0  0.131443  0  1.017004  0  0  0.135999  0  1.012932  0  0  0.117533  0.128058  0  1.020117  0
H  H12  1  0.18687830  0.31718819  0.05083004  1  0  0.128004  0  0.949303  0  0  0.130461  0  1.021807  0  0  0.135157  0  1.017015  0  0  0.118073  0.126891  0  1.025452  0
H  H13  1  0.68687619  0.18281278  0.44917002  1  0  0.127996  0  0.949304  0  0  0.130457  0  1.021804  0  0  0.135154  0  1.017012  0  0  0.118069  0.126887  0  1.025449  0
H  H14  1  0.81312178  0.68281388  0.94916986  1  0  0.127974  0  0.949287  0  0  0.130453  0  1.02176  0  0  0.13515  0  1.016967  0  0  0.118058  0.126883  0  1.025404  0
H  H15  1  0.31312273  0.81718717  0.55082969  1  0  0.127958  0  0.949335  0  0  0.130418  0  1.021835  0  0  0.135115  0  1.017041  0  0  0.118052  0.126849  0  1.025477  0
H  H16  1  0.23409989  0.19949904  0.76932152  1  0  0.102356  0  0.942298  0  0  0.112024  0  1.004758  0  0  0.114456  0  1.002113  0  0  0.137865  0.1102  0  1.006771  0
H  H17  1  0.73410205  0.30050054  0.73067778  1  0  0.102367  0  0.942253  0  0  0.112008  0  1.004736  0  0  0.114443  0  1.002083  0  0  0.137863  0.110186  0  1.006747  0
H  H18  1  0.76590018  0.80049879  0.23067905  1  0  0.102459  0  0.942168  0  0  0.112025  0  1.00474  0  0  0.114459  0  1.002087  0  0  0.137858  0.110202  0  1.006751  0
H  H19  1  0.26589803  0.69949941  0.26932193  1  0  0.102327  0  0.942294  0  0  0.11199  0  1.004759  0  0  0.114426  0  1.002104  0  0  0.137857  0.110167  0  1.006773  0
H  H20  1  0.03357547  0.82248713  0.65315815  1  0  0.116083  0  0.985144  0  0  0.122429  0  1.052056  0  0  0.125539  0  1.050424  0  0  0.119323  0.120085  0  1.053333  0
H  H21  1  0.53357534  0.67751425  0.84683863  1  0  0.116111  0  0.985052  0  0  0.122442  0  1.051983  0  0  0.125554  0  1.050347  0  0  0.119318  0.120099  0  1.053259  0
H  H22  1  0.96642576  0.17751282  0.34684208  1  0  0.116113  0  0.985124  0  0  0.12247  0  1.052043  0  0  0.12558  0  1.050412  0  0  0.119339  0.120127  0  1.053319  0
H  H23  1  0.46642588  0.32248570  0.15316161  1  0  0.116103  0  0.985127  0  0  0.122452  0  1.05204  0  0  0.125562  0  1.050409  0  0  0.119332  0.120108  0  1.053317  0
H  H24  1  0.21178300  0.75685622  0.76388767  1  0  0.109519  0  0.950798  0  0  0.119547  0  1.008977  0  0  0.12164  0  1.008942  0  0  0.119577  0.117681  0  1.009665  0
H  H25  1  0.71178155  0.74314346  0.73610802  1  0  0.109515  0  0.950755  0  0  0.119496  0  1.008974  0  0  0.121619  0  1.008905  0  0  0.119573  0.117619  0  1.009674  0
H  H26  1  0.78821823  0.24314267  0.23611246  1  0  0.109528  0  0.950779  0  0  0.119552  0  1.008959  0  0  0.121646  0  1.008923  0  0  0.119569  0.117689  0  1.00965  0
H  H27  1  0.28821852  0.25685754  0.26389179  1  0  0.10954  0  0.950747  0  0  0.119525  0  1.00896  0  0  0.121648  0  1.008891  0  0  0.119577  0.117649  0  1.00966  0
H  H28  1  0.64410993  0.07731984  0.76765382  1  0  0.105033  0  0.978759  0  0  0.107084  0  1.051634  0  0  0.111266  0  1.047615  0  0  0.110078  0.103954  0  1.054899  0
H  H29  1  0.14410941  0.42267952  0.73234540  1  0  0.105019  0  0.978768  0  0  0.107065  0  1.051655  0  0  0.111247  0  1.047634  0  0  0.110077  0.103934  0  1.05492  0
H  H30  1  0.35589015  0.92267905  0.23234632  1  0  0.105011  0  0.978791  0  0  0.107063  0  1.051671  0  0  0.111245  0  1.047652  0  0  0.11008  0.103933  0  1.054936  0
H  H31  1  0.85589067  0.57732042  0.26765430  1  0  0.105026  0  0.978749  0  0  0.107077  0  1.051631  0  0  0.111259  0  1.047612  0  0  0.110082  0.103946  0  1.054896  0
H  H32  1  0.95390088  0.04502053  0.80157007  1  0  0.100123  0  1.015661  0  0  0.107894  0  1.079411  0  0  0.109769  0  1.079855  0  0  0.115805  0.106592  0  1.079043  0
H  H33  1  0.45390035  0.45497748  0.69843027  1  0  0.100185  0  1.01566  0  0  0.107912  0  1.079449  0  0  0.109787  0  1.079892  0  0  0.115835  0.106611  0  1.079077  0
H  H34  1  0.04609919  0.95497942  0.19843016  1  0  0.100194  0  1.015648  0  0  0.107928  0  1.079433  0  0  0.109803  0  1.079876  0  0  0.115831  0.106627  0  1.079063  0
H  H35  1  0.54609973  0.54502141  0.30157039  1  0  0.100141  0  1.01567  0  0  0.107881  0  1.079447  0  0  0.109757  0  1.07989  0  0  0.115791  0.106579  0  1.079078  0
H  H36  1  0.67371309  0.90046544  0.95488518  1  0  0.100496  0  0.974652  0  0  0.10869  0  1.039751  0  0  0.111865  0  1.036078  0  0  0.133129  0.106309  0  1.04247  0
H  H37  1  0.17371461  0.59953527  0.54511478  1  0  0.100504  0  0.974638  0  0  0.108712  0  1.039721  0  0  0.111887  0  1.036048  0  0  0.133155  0.106326  0  1.042438  0
H  H38  1  0.32628814  0.09953452  0.04511558  1  0  0.100451  0  0.974748  0  0  0.108707  0  1.039779  0  0  0.111882  0  1.036102  0  0  0.133117  0.106325  0  1.042495  0
H  H39  1  0.82628547  0.40046468  0.45488546  1  0  0.100505  0  0.974643  0  0  0.108714  0  1.039724  0  0  0.11189  0  1.03605  0  0  0.133152  0.106329  0  1.042441  0
H  H40  1  0.05123495  0.09470802  0.66635293  1  0  0.317026  0  0.926242  0  0  0.298217  0  0.986398  0  0  0.307107  0  0.979219  0  0  0.308941  0.291815  0  0.991723  0
H  H41  1  0.55123770  0.40529429  0.83364597  1  0  0.31696  0  0.926224  0  0  0.29817  0  0.9864  0  0  0.307061  0  0.979218  0  0  0.308926  0.291786  0  0.991724  0
H  H42  1  0.94876627  0.90529087  0.33364721  1  0  0.317063  0  0.926279  0  0  0.298257  0  0.986418  0  0  0.307147  0  0.979238  0  0  0.308949  0.291856  0  0.991742  0
H  H43  1  0.44876353  0.59470672  0.16635383  1  0  0.316969  0  0.926224  0  0  0.298171  0  0.986391  0  0  0.307061  0  0.979212  0  0  0.308919  0.29177  0  0.991716  0
H  H44  1  0.94998372  0.93539543  0.91420939  1  0  0.326488  0  0.914221  0  0  0.307377  0  0.974663  0  0  0.316113  0  0.967098  0  0  0.316244  0.301112  0  0.98012  0
H  H45  1  0.44998527  0.56460385  0.58579114  1  0  0.326469  0  0.914207  0  0  0.307357  0  0.974662  0  0  0.316095  0  0.967095  0  0  0.316226  0.301093  0  0.980118  0
H  H46  1  0.05001751  0.06460347  0.08579128  1  0  0.326499  0  0.914178  0  0  0.307385  0  0.974638  0  0  0.316124  0  0.967071  0  0  0.316243  0.301122  0  0.980094  0
H  H47  1  0.55001480  0.43539609  0.41420857  1  0  0.326472  0  0.914201  0  0  0.307358  0  0.974657  0  0  0.316096  0  0.967091  0  0  0.31623  0.301094  0  0.980114  0
C  C48  1  0.28758500  0.42172715  0.97002415  1  0  -0.061269  0  3.737023  0  0  -0.034843  0  3.975395  0  0  -0.045892  0  3.999592  0  0  -0.015064  -0.028218  0  3.959675  0
C  C49  1  0.78758134  0.07827470  0.52997590  1  0  -0.06135  0  3.737132  0  0  -0.03492  0  3.975507  0  0  -0.045969  0  3.999702  0  0  -0.015059  -0.028293  0  3.959785  0
C  C50  1  0.71241276  0.57827384  0.02997460  1  0  -0.061345  0  3.737039  0  0  -0.034913  0  3.975402  0  0  -0.045962  0  3.999598  0  0  -0.015108  -0.028288  0  3.959684  0
C  C51  1  0.21241873  0.92172525  0.47002380  1  0  -0.061315  0  3.737027  0  0  -0.034884  0  3.975413  0  0  -0.045933  0  3.999609  0  0  -0.015032  -0.028256  0  3.95969  0
C  C52  1  0.30081689  0.55093577  0.94623739  1  0  -0.03707  0  3.657187  0  0  -0.082344  0  3.909481  0  0  -0.077428  0  3.926494  0  0  -0.066106  -0.08494  0  3.898071  0
C  C53  1  0.80081544  0.94906419  0.55376205  1  0  -0.037076  0  3.657087  0  0  -0.082339  0  3.909387  0  0  -0.077422  0  3.926398  0  0  -0.066163  -0.084937  0  3.897976  0
C  C54  1  0.69918203  0.44906417  0.05376179  1  0  -0.037039  0  3.657142  0  0  -0.08228  0  3.909453  0  0  -0.077364  0  3.926468  0  0  -0.066122  -0.084882  0  3.898051  0
C  C55  1  0.19918579  0.05093576  0.44623766  1  0  -0.037083  0  3.657105  0  0  -0.082358  0  3.909418  0  0  -0.077444  0  3.92643  0  0  -0.066179  -0.084955  0  3.898008  0
C  C56  1  0.22344295  0.67263983  0.98024074  1  0  -0.046824  0  3.721148  0  0  -0.020027  0  3.957002  0  0  -0.029818  0  3.979264  0  0  -0.009664  -0.01398  0  3.941833  0
C  C57  1  0.72344338  0.82736099  0.51975821  1  0  -0.046775  0  3.720946  0  0  -0.019982  0  3.956834  0  0  -0.029775  0  3.979099  0  0  -0.00967  -0.013936  0  3.941667  0
C  C58  1  0.77655366  0.32736011  0.01975897  1  0  -0.046855  0  3.721043  0  0  -0.020131  0  3.957019  0  0  -0.029927  0  3.979287  0  0  -0.009712  -0.014065  0  3.941813  0
C  C59  1  0.27655554  0.17264003  0.48024212  1  0  -0.046769  0  3.720971  0  0  -0.019976  0  3.956838  0  0  -0.029764  0  3.979096  0  0  -0.009652  -0.013935  0  3.94168  0
C  C60  1  0.13611584  0.66756567  0.04127583  1  0  -0.076086  0  3.663623  0  0  -0.115943  0  3.918108  0  0  -0.111711  0  3.934611  0  0  -0.064383  -0.118379  0  3.906939  0
C  C61  1  0.63611300  0.83243430  0.45872312  1  0  -0.07612  0  3.663542  0  0  -0.11599  0  3.918068  0  0  -0.11175  0  3.934574  0  0  -0.064367  -0.118428  0  3.906896  0
C  C62  1  0.86388192  0.33243534  0.95872397  1  0  -0.075938  0  3.663514  0  0  -0.115798  0  3.918022  0  0  -0.111565  0  3.934528  0  0  -0.06428  -0.118236  0  3.906855  0
C  C63  1  0.36388476  0.16756671  0.54127721  1  0  -0.076132  0  3.663629  0  0  -0.115985  0  3.91814  0  0  -0.111748  0  3.934644  0  0  -0.064377  -0.11842  0  3.906967  0
C  C64  1  0.13073021  0.54014639  0.06678860  1  0  0.05125  0  3.717289  0  0  0.049246  0  3.975182  0  0  0.043821  0  3.998643  0  0  0.07329  0.052445  0  3.95954  0
C  C65  1  0.63072763  0.95985568  0.43320949  1  0  0.051208  0  3.717311  0  0  0.049257  0  3.975163  0  0  0.043816  0  3.998645  0  0  0.073301  0.052462  0  3.959513  0
C  C66  1  0.86926755  0.45985460  0.93321015  1  0  0.0512  0  3.717259  0  0  0.049189  0  3.975177  0  0  0.043763  0  3.998638  0  0  0.073243  0.052383  0  3.959537  0
C  C67  1  0.36927244  0.04014533  0.56679031  1  0  0.051228  0  3.717427  0  0  0.049256  0  3.975287  0  0  0.043818  0  3.998766  0  0  0.073329  0.052459  0  3.959638  0
C  C68  1  0.20203421  0.41629036  0.03161212  1  0  -0.07903  0  3.669189  0  0  -0.11976  0  3.927377  0  0  -0.115076  0  3.943399  0  0  -0.066908  -0.122351  0  3.916729  0
C  C69  1  0.70203536  0.08370959  0.46838838  1  0  -0.07897  0  3.669273  0  0  -0.11971  0  3.927451  0  0  -0.115024  0  3.94348  0  0  -0.0669  -0.122303  0  3.9168  0
C  C70  1  0.79796125  0.58370958  0.96838759  1  0  -0.078981  0  3.66916  0  0  -0.119712  0  3.927331  0  0  -0.115029  0  3.943353  0  0  -0.066879  -0.1223  0  3.916682  0
C  C71  1  0.29796818  0.91629037  0.53161238  1  0  -0.078937  0  3.669209  0  0  -0.119666  0  3.927379  0  0  -0.114979  0  3.943406  0  0  -0.066887  -0.122258  0  3.916726  0
C  C72  1  0.35317914  0.28929420  0.92518421  1  0  0.650856  0  3.907779  0  0  0.599717  0  4.200213  0  0  0.63372  0  4.194066  0  0  0.210104  0.576808  0  4.203448  0
C  C73  1  0.85317481  0.21070888  0.57481653  1  0  0.650823  0  3.908029  0  0  0.599663  0  4.200482  0  0  0.633667  0  4.194335  0  0  0.210056  0.576752  0  4.203716  0
C  C74  1  0.64682209  0.71070894  0.07481631  1  0  0.650819  0  3.907964  0  0  0.599672  0  4.200398  0  0  0.633675  0  4.194251  0  0  0.210089  0.576762  0  4.203632  0
C  C75  1  0.14682526  0.78929213  0.42518327  1  0  0.650867  0  3.907928  0  0  0.599701  0  4.200385  0  0  0.633704  0  4.194237  0  0  0.210039  0.576791  0  4.20362  0
C  C76  1  0.22555296  0.80479262  0.94794393  1  0  0.653305  0  3.921584  0  0  0.600436  0  4.219147  0  0  0.63452  0  4.211617  0  0  0.210025  0.577583  0  4.222839  0
C  C77  1  0.72555429  0.69520820  0.55205449  1  0  0.653407  0  3.921499  0  0  0.600547  0  4.21905  0  0  0.634632  0  4.211516  0  0  0.210103  0.577697  0  4.222741  0
C  C78  1  0.77444481  0.19520839  0.05205640  1  0  0.653366  0  3.921361  0  0  0.600529  0  4.218927  0  0  0.634614  0  4.211397  0  0  0.210057  0.577676  0  4.222624  0
C  C79  1  0.27444579  0.30479175  0.44794522  1  0  0.653296  0  3.921637  0  0  0.600451  0  4.219181  0  0  0.634534  0  4.21165  0  0  0.210035  0.577601  0  4.222872  0
C  C80  1  0.20539475  0.08819484  0.75297905  1  0  0.218589  0  3.652482  0  0  0.154676  0  3.92589  0  0  0.168893  0  3.937733  0  0  0.140358  0.145308  0  3.917899  0
C  C81  1  0.70539609  0.41180572  0.74701926  1  0  0.218591  0  3.65238  0  0  0.154747  0  3.92576  0  0  0.168961  0  3.937607  0  0  0.140462  0.145406  0  3.91778  0
C  C82  1  0.79460648  0.91180405  0.24702108  1  0  0.218505  0  3.652519  0  0  0.154696  0  3.925923  0  0  0.168909  0  3.937778  0  0  0.140354  0.145328  0  3.917929  0
C  C83  1  0.29460398  0.58819422  0.25298044  1  0  0.218632  0  3.652462  0  0  0.154754  0  3.925849  0  0  0.16897  0  3.937694  0  0  0.140429  0.145389  0  3.917858  0
C  C84  1  0.10287499  0.88970357  0.69316405  1  0  -0.021377  0  3.682998  0  0  -0.059853  0  3.949623  0  0  -0.059795  0  3.969668  0  0  -0.00043  -0.059669  0  3.935891  0
C  C85  1  0.60287572  0.61029585  0.80683207  1  0  -0.021529  0  3.683075  0  0  -0.059962  0  3.949672  0  0  -0.059909  0  3.969726  0  0  -0.000448  -0.05975  0  3.935953  0
C  C86  1  0.89712624  0.11029533  0.30683661  1  0  -0.021376  0  3.683022  0  0  -0.059873  0  3.949657  0  0  -0.059816  0  3.969703  0  0  -0.000437  -0.059686  0  3.935926  0
C  C87  1  0.39712551  0.38970409  0.19316764  1  0  -0.021454  0  3.683068  0  0  -0.059921  0  3.949675  0  0  -0.059867  0  3.969729  0  0  -0.000452  -0.059736  0  3.93594  0
C  C88  1  0.19058506  0.85842805  0.74825619  1  0  0.012525  0  3.712428  0  0  -0.021558  0  3.973312  0  0  -0.019362  0  3.993114  0  0  0.00038  -0.023066  0  3.960183  0
C  C89  1  0.69058455  0.64157054  0.75174097  1  0  0.012653  0  3.712474  0  0  -0.02138  0  3.97332  0  0  -0.019208  0  3.993108  0  0  0.000477  -0.022875  0  3.96019  0
C  C90  1  0.80941502  0.14156979  0.25174438  1  0  0.012522  0  3.712433  0  0  -0.021535  0  3.9733  0  0  -0.019339  0  3.993104  0  0  0.000431  -0.023051  0  3.960176  0
C  C91  1  0.30941553  0.35842940  0.24825874  1  0  0.01256  0  3.712473  0  0  -0.02147  0  3.973335  0  0  -0.019298  0  3.993124  0  0  0.000432  -0.022965  0  3.960217  0
C  C92  1  0.69661338  0.03649538  0.81138647  1  0  -0.013285  0  3.745367  0  0  -0.0447  0  4.00949  0  0  -0.044041  0  4.029219  0  0  -0.010806  -0.045769  0  3.997178  0
C  C93  1  0.19661283  0.46350411  0.68861333  1  0  -0.013305  0  3.745391  0  0  -0.044721  0  4.009522  0  0  -0.044062  0  4.02925  0  0  -0.010845  -0.04579  0  3.997212  0
C  C94  1  0.30338785  0.96350351  0.18861420  1  0  -0.013251  0  3.745333  0  0  -0.044666  0  4.009447  0  0  -0.044008  0  4.029176  0  0  -0.010817  -0.045734  0  3.997135  0
C  C95  1  0.80338724  0.53649689  0.31138647  1  0  -0.013206  0  3.74525  0  0  -0.044612  0  4.009362  0  0  -0.043952  0  4.029089  0  0  -0.010807  -0.045681  0  3.997051  0
C  C96  1  0.84934992  0.01867230  0.82694391  1  0  -0.016724  0  3.711324  0  0  -0.053565  0  3.969438  0  0  -0.052349  0  3.990314  0  0  -0.002086  -0.054115  0  3.955694  0
C  C97  1  0.34934937  0.48132545  0.67305582  1  0  -0.016811  0  3.711324  0  0  -0.053604  0  3.969443  0  0  -0.052388  0  3.990319  0  0  -0.002139  -0.054154  0  3.9557  0
C  C98  1  0.15065131  0.98132554  0.17305666  1  0  -0.01684  0  3.711317  0  0  -0.053636  0  3.969421  0  0  -0.05242  0  3.990299  0  0  -0.002152  -0.054186  0  3.955677  0
C  C99  1  0.65065070  0.51867449  0.32694389  1  0  -0.016776  0  3.711345  0  0  -0.053589  0  3.969453  0  0  -0.052372  0  3.990325  0  0  -0.002105  -0.054139  0  3.95571  0
C  C100  1  0.70528739  0.94350093  0.90800045  1  0  0.216921  0  3.647221  0  0  0.157703  0  3.91149  0  0  0.170943  0  3.92495  0  0  0.142759  0.149229  0  3.901834  0
C  C101  1  0.20528894  0.55649880  0.59199943  1  0  0.217042  0  3.647099  0  0  0.157817  0  3.911371  0  0  0.171058  0  3.924828  0  0  0.142821  0.14935  0  3.901708  0
C  C102  1  0.29471384  0.05649903  0.09200031  1  0  0.216997  0  3.647225  0  0  0.157736  0  3.911481  0  0  0.170976  0  3.924942  0  0  0.142797  0.149266  0  3.901816  0
C  C103  1  0.79471114  0.44350009  0.40800070  1  0  0.217005  0  3.647157  0  0  0.157781  0  3.911428  0  0  0.171022  0  3.924886  0  0  0.14276  0.149313  0  3.901765  0
N  N104  1  0.03750320  0.53322992  0.13042753  1  0  0.496495  0  3.906461  0  0  0.522194  0  4.208186  0  0  0.542799  0  4.217998  0  0  0.054117  0.508517  0  4.201374  0
N  N105  1  0.53750275  0.96676981  0.36957134  1  0  0.496535  0  3.906565  0  0  0.522237  0  4.208272  0  0  0.542847  0  4.218084  0  0  0.054104  0.508559  0  4.201457  0
N  N106  1  0.96249572  0.46677003  0.86957218  1  0  0.496485  0  3.906513  0  0  0.522173  0  4.208252  0  0  0.542778  0  4.218061  0  0  0.054125  0.508499  0  4.201437  0
N  N107  1  0.46249733  0.03323014  0.63042889  1  0  0.496537  0  3.906597  0  0  0.522241  0  4.20831  0  0  0.542849  0  4.218121  0  0  0.054102  0.508563  0  4.201495  0
N  N108  1  0.25372352  0.98329799  0.78523360  1  0  -0.400823  0  3.312041  0  0  -0.315965  0  3.617271  0  0  -0.33575  0  3.627137  0  0  -0.363246  -0.30244  0  3.610364  0
N  N109  1  0.75372257  0.51670289  0.71476432  1  0  -0.400944  0  3.312031  0  0  -0.316087  0  3.617215  0  0  -0.335874  0  3.627086  0  0  -0.363315  -0.302555  0  3.610296  0
N  N110  1  0.74627771  0.01670091  0.21476706  1  0  -0.40077  0  3.312215  0  0  -0.315942  0  3.617445  0  0  -0.335729  0  3.62731  0  0  -0.363229  -0.302409  0  3.610537  0
N  N111  1  0.24627751  0.48329706  0.28523539  1  0  -0.400919  0  3.312034  0  0  -0.316079  0  3.61726  0  0  -0.335865  0  3.627132  0  0  -0.363311  -0.302558  0  3.610358  0
N  N112  1  0.11415618  0.03476721  0.69698630  1  0  -0.296413  0  3.458402  0  0  -0.225279  0  3.690498  0  0  -0.242199  0  3.706792  0  0  -0.379674  -0.213978  0  3.679714  0
N  N113  1  0.61415668  0.46523312  0.80301142  1  0  -0.29622  0  3.458156  0  0  -0.225179  0  3.690297  0  0  -0.242099  0  3.70659  0  0  -0.379751  -0.21396  0  3.679581  0
N  N114  1  0.88584505  0.96523168  0.30301384  1  0  -0.296494  0  3.458541  0  0  -0.225355  0  3.690622  0  0  -0.242274  0  3.706912  0  0  -0.379696  -0.214056  0  3.679838  0
N  N115  1  0.38584340  0.53476683  0.19698829  1  0  -0.296257  0  3.458219  0  0  -0.225164  0  3.690333  0  0  -0.242088  0  3.706636  0  0  -0.379662  -0.213864  0  3.679549  0
N  N116  1  0.60789131  0.98880461  0.86249569  1  0  -0.404977  0  3.327179  0  0  -0.319232  0  3.624369  0  0  -0.339945  0  3.637596  0  0  -0.369374  -0.304792  0  3.614861  0
N  N117  1  0.10789172  0.51119486  0.63750306  1  0  -0.405047  0  3.327053  0  0  -0.319324  0  3.624289  0  0  -0.340035  0  3.63751  0  0  -0.36943  -0.304884  0  3.614781  0
N  N118  1  0.39211108  0.01119427  0.13750392  1  0  -0.405026  0  3.327161  0  0  -0.319294  0  3.624386  0  0  -0.340011  0  3.63762  0  0  -0.369397  -0.304853  0  3.614878  0
N  N119  1  0.89210951  0.48880403  0.36249708  1  0  -0.405147  0  3.327084  0  0  -0.319431  0  3.624328  0  0  -0.340143  0  3.637551  0  0  -0.369406  -0.30499  0  3.61482  0
N  N120  1  0.85200477  0.96022792  0.88765427  1  0  -0.271927  0  3.447256  0  0  -0.202361  0  3.675384  0  0  -0.218365  0  3.690877  0  0  -0.372757  -0.191461  0  3.664912  0
N  N121  1  0.35200518  0.53977005  0.61234555  1  0  -0.271903  0  3.447306  0  0  -0.202328  0  3.675397  0  0  -0.218332  0  3.690888  0  0  -0.372697  -0.191426  0  3.664918  0
N  N122  1  0.14799646  0.03977098  0.11234639  1  0  -0.271873  0  3.447096  0  0  -0.202308  0  3.67521  0  0  -0.218312  0  3.690702  0  0  -0.372709  -0.191406  0  3.664733  0
N  N123  1  0.64799490  0.46022990  0.38765416  1  0  -0.271884  0  3.447297  0  0  -0.202303  0  3.675383  0  0  -0.218307  0  3.690875  0  0  -0.372694  -0.1914  0  3.664904  0
O  O124  1  0.31803706  0.17153208  0.94488933  1  0  -0.624081  0  2.053645  0  0  -0.548239  0  2.319264  0  0  -0.576271  0  2.30394  0  0  -0.316985  -0.528886  0  2.329993  0
O  O125  1  0.81803299  0.32846877  0.55510961  1  0  -0.62407  0  2.053706  0  0  -0.548215  0  2.319336  0  0  -0.576246  0  2.304011  0  0  -0.316964  -0.528861  0  2.330063  0
O  O126  1  0.68196416  0.82846892  0.05510995  1  0  -0.62403  0  2.053751  0  0  -0.548163  0  2.319359  0  0  -0.576196  0  2.304038  0  0  -0.316961  -0.528812  0  2.330087  0
O  O127  1  0.18196593  0.67153224  0.44489019  1  0  -0.624094  0  2.053687  0  0  -0.548226  0  2.319312  0  0  -0.576258  0  2.303987  0  0  -0.31697  -0.528872  0  2.330038  0
O  O128  1  0.43047243  0.29708365  0.87011849  1  0  -0.619967  0  1.956659  0  0  -0.574545  0  2.182608  0  0  -0.597969  0  2.173834  0  0  -0.317897  -0.558065  0  2.188081  0
O  O129  1  0.93046825  0.20292069  0.62988240  1  0  -0.619925  0  1.956766  0  0  -0.574496  0  2.182719  0  0  -0.59792  0  2.173948  0  0  -0.317878  -0.558015  0  2.188192  0
O  O130  1  0.56952995  0.70291950  0.12988255  1  0  -0.61995  0  1.95672  0  0  -0.574522  0  2.182657  0  0  -0.597945  0  2.173883  0  0  -0.317898  -0.558041  0  2.188132  0
O  O131  1  0.06953298  0.79707819  0.37011669  1  0  -0.619967  0  1.956682  0  0  -0.57454  0  2.182638  0  0  -0.597964  0  2.173864  0  0  -0.317866  -0.558061  0  2.188113  0
O  O132  1  0.35013736  0.82305923  0.91342809  1  0  -0.651812  0  2.04598  0  0  -0.57681  0  2.31814  0  0  -0.605469  0  2.302984  0  0  -0.329423  -0.556207  0  2.3277  0
O  O133  1  0.85014105  0.67694188  0.58656939  1  0  -0.651918  0  2.045973  0  0  -0.576929  0  2.318146  0  0  -0.60559  0  2.302988  0  0  -0.329493  -0.556328  0  2.327707  0
O  O134  1  0.64986156  0.17694180  0.08657329  1  0  -0.651821  0  2.045891  0  0  -0.576822  0  2.318051  0  0  -0.605476  0  2.302886  0  0  -0.329433  -0.556221  0  2.327608  0
O  O135  1  0.14986017  0.32305913  0.41343094  1  0  -0.651832  0  2.046005  0  0  -0.576845  0  2.318172  0  0  -0.605506  0  2.30302  0  0  -0.329456  -0.556241  0  2.327728  0
O  O136  1  0.11109676  0.88543404  0.95611324  1  0  -0.595687  0  1.972347  0  0  -0.553495  0  2.2033  0  0  -0.575538  0  2.193484  0  0  -0.307737  -0.537247  0  2.20931  0
O  O137  1  0.61109670  0.61456974  0.54388956  1  0  -0.595669  0  1.972355  0  0  -0.553499  0  2.203326  0  0  -0.575548  0  2.193522  0  0  -0.307736  -0.537253  0  2.209334  0
O  O138  1  0.88890216  0.11456804  0.04388718  1  0  -0.595686  0  1.972251  0  0  -0.553521  0  2.203226  0  0  -0.575567  0  2.193414  0  0  -0.307741  -0.537276  0  2.209237  0
O  O139  1  0.38890338  0.38543022  0.45611120  1  0  -0.595646  0  1.972404  0  0  -0.553482  0  2.203371  0  0  -0.575529  0  2.193564  0  0  -0.307714  -0.537234  0  2.209379  0
O  O140  1  0.97685314  0.64528475  0.16206032  1  0  -0.384203  0  1.761565  0  0  -0.36445  0  1.977498  0  0  -0.37825  0  1.975457  0  0  -0.132881  -0.355089  0  1.978755  0
O  O141  1  0.47685276  0.85471500  0.33793883  1  0  -0.384227  0  1.761537  0  0  -0.364487  0  1.977477  0  0  -0.378286  0  1.975432  0  0  -0.132895  -0.355126  0  1.978735  0
O  O142  1  0.02314578  0.35471626  0.83793948  1  0  -0.384215  0  1.761601  0  0  -0.364443  0  1.977519  0  0  -0.378242  0  1.975477  0  0  -0.132878  -0.355081  0  1.978776  0
O  O143  1  0.52314731  0.14528601  0.66206150  1  0  -0.384248  0  1.761533  0  0  -0.364506  0  1.977468  0  0  -0.378304  0  1.975423  0  0  -0.132916  -0.355145  0  1.978727  0
O  O144  1  0.02263465  0.41649522  0.14901020  1  0  -0.346325  0  1.760167  0  0  -0.327891  0  1.970226  0  0  -0.339338  0  1.969515  0  0  -0.117344  -0.320151  0  1.970652  0
O  O145  1  0.52263429  0.08350427  0.35098910  1  0  -0.346327  0  1.760242  0  0  -0.327909  0  1.970307  0  0  -0.339352  0  1.969588  0  0  -0.117332  -0.320168  0  1.970733  0
O  O146  1  0.97736542  0.58350367  0.85098941  1  0  -0.346326  0  1.760167  0  0  -0.327897  0  1.970234  0  0  -0.339345  0  1.969524  0  0  -0.117371  -0.320155  0  1.970658  0
O  O147  1  0.47736578  0.91649567  0.64901061  1  0  -0.346321  0  1.760258  0  0  -0.327902  0  1.970316  0  0  -0.33935  0  1.969612  0  0  -0.117329  -0.320161  0  1.97074  0
