# generated using pymatgen
data_CdH5C5O4
_symmetry_space_group_name_H-M   'P 1'
_cell_length_a   6.81052934
_cell_length_b   7.43750744
_cell_length_c   11.50359296
_cell_angle_alpha   89.99983257
_cell_angle_beta   91.71181481
_cell_angle_gamma   90.00019502
_symmetry_Int_Tables_number   1
_chemical_formula_structural   CdH5C5O4
_chemical_formula_sum   'Cd4 H20 C20 O16'
_cell_volume   582.43562039
_cell_formula_units_Z   4
loop_
 _symmetry_equiv_pos_site_id
 _symmetry_equiv_pos_as_xyz
  1  'x, y, z'
loop_
 _atom_site_type_symbol
 _atom_site_label
 _atom_site_symmetry_multiplicity
 _atom_site_fract_x
 _atom_site_fract_y
 _atom_site_fract_z
 _atom_site_occupancy
 _atom_site_hle17_bader_spin_density
 _atom_site_hle17_ddec_charge
 _atom_site_hle17_ddec_spin_density
 _atom_site_hle17_ddec_sum_bond_order
 _atom_site_hle17_magmom
 _atom_site_hse06_10hf_bader_spin_density
 _atom_site_hse06_10hf_ddec_charge
 _atom_site_hse06_10hf_ddec_spin_density
 _atom_site_hse06_10hf_ddec_sum_bond_order
 _atom_site_hse06_10hf_magmom
 _atom_site_hse06_bader_spin_density
 _atom_site_hse06_ddec_charge
 _atom_site_hse06_ddec_spin_density
 _atom_site_hse06_ddec_sum_bond_order
 _atom_site_hse06_magmom
 _atom_site_pbe_bader_spin_density
 _atom_site_pbe_cm5_charge
 _atom_site_pbe_ddec_charge
 _atom_site_pbe_ddec_spin_density
 _atom_site_pbe_ddec_sum_bond_order
 _atom_site_pbe_magmom
Cd  Cd0  1  0.32431930  0.16841039  0.01367524  1  0  1.310927  0  1.624291  0  0  1.144969  0  2.068862  0  0  1.201487  0  2.009575  0  0  0.74212  1.104028  0  2.109879  0
Cd  Cd1  1  0.17567998  0.66841015  0.98632407  1  0  1.310956  0  1.624266  0  0  1.144997  0  2.068838  0  0  1.201516  0  2.009549  0  0  0.742126  1.104058  0  2.109854  0
Cd  Cd2  1  0.67568196  0.83159194  0.98632503  1  0  1.310922  0  1.624274  0  0  1.144972  0  2.068844  0  0  1.201491  0  2.009554  0  0  0.742125  1.104034  0  2.109855  0
Cd  Cd3  1  0.82431836  0.33159219  0.01367526  1  0  1.310957  0  1.62424  0  0  1.14502  0  2.068795  0  0  1.201538  0  2.009507  0  0  0.742141  1.10408  0  2.109808  0
H  H4  1  0.68910621  0.67598719  0.49084392  1  0  0.098931  0  0.998785  0  0  0.107149  0  1.066665  0  0  0.109078  0  1.067554  0  0  0.098022  0.105724  0  1.066224  0
H  H5  1  0.81089505  0.17598784  0.50915407  1  0  0.098926  0  0.998776  0  0  0.10714  0  1.066662  0  0  0.10907  0  1.06755  0  0  0.097999  0.105716  0  1.066221  0
H  H6  1  0.31089211  0.32401245  0.50915628  1  0  0.098955  0  0.998755  0  0  0.107165  0  1.066646  0  0  0.109095  0  1.067534  0  0  0.098024  0.105743  0  1.066198  0
H  H7  1  0.18910624  0.82401181  0.49084445  1  0  0.098921  0  0.998782  0  0  0.10714  0  1.066662  0  0  0.10907  0  1.067549  0  0  0.098017  0.105719  0  1.066212  0
H  H8  1  0.10802424  0.33084952  0.32682323  1  0  0.128453  0  0.94794  0  0  0.136954  0  1.008444  0  0  0.140827  0  1.006337  0  0  0.107265  0.13418  0  1.010008  0
H  H9  1  0.39197412  0.83085137  0.67317837  1  0  0.128416  0  0.947942  0  0  0.13691  0  1.00846  0  0  0.140782  0  1.006353  0  0  0.107257  0.134135  0  1.010025  0
H  H10  1  0.89197406  0.66914878  0.67317871  1  0  0.128445  0  0.947907  0  0  0.13691  0  1.008454  0  0  0.140782  0  1.006347  0  0  0.107254  0.134136  0  1.010018  0
H  H11  1  0.60802716  0.16914828  0.32682016  1  0  0.128418  0  0.947901  0  0  0.136919  0  1.008405  0  0  0.14079  0  1.006299  0  0  0.107258  0.134144  0  1.00997  0
H  H12  1  0.58436807  0.70579049  0.28296965  1  0  0.097031  0  0.934722  0  0  0.104929  0  1.002528  0  0  0.107504  0  1.000111  0  0  0.108211  0.103051  0  1.00451  0
H  H13  1  0.91563477  0.20579053  0.71702833  1  0  0.096982  0  0.934751  0  0  0.104892  0  1.002556  0  0  0.107465  0  1.000138  0  0  0.108215  0.103018  0  1.004541  0
H  H14  1  0.41563174  0.29421453  0.71702972  1  0  0.097025  0  0.934774  0  0  0.104905  0  1.00259  0  0  0.107479  0  1.000174  0  0  0.108218  0.103025  0  1.004569  0
H  H15  1  0.08436798  0.79421315  0.28297110  1  0  0.096993  0  0.934761  0  0  0.10491  0  1.00255  0  0  0.107482  0  1.000131  0  0  0.108217  0.103038  0  1.004534  0
H  H16  1  0.50757505  0.52377220  0.37176326  1  0  0.087149  0  0.938588  0  0  0.097919  0  1.006726  0  0  0.0986  0  1.006867  0  0  0.108793  0.097382  0  1.006877  0
H  H17  1  0.99242566  0.02377153  0.62823501  1  0  0.087123  0  0.938573  0  0  0.097903  0  1.006719  0  0  0.098583  0  1.006859  0  0  0.108784  0.097371  0  1.006874  0
H  H18  1  0.49242478  0.47623282  0.62823436  1  0  0.087134  0  0.93846  0  0  0.097878  0  1.006641  0  0  0.09856  0  1.006783  0  0  0.108767  0.097338  0  1.006791  0
H  H19  1  0.00757411  0.97622945  0.37176696  1  0  0.087131  0  0.938459  0  0  0.097912  0  1.00662  0  0  0.098591  0  1.006758  0  0  0.1088  0.097382  0  1.006773  0
H  H20  1  0.12718941  0.37750378  0.85137271  1  0  0.402288  0  0.904194  0  0  0.371587  0  0.971369  0  0  0.381533  0  0.957217  0  0  0.280984  0.364413  0  0.981529  0
H  H21  1  0.37280915  0.87750391  0.14862706  1  0  0.402288  0  0.904208  0  0  0.371589  0  0.971368  0  0  0.381535  0  0.957216  0  0  0.280987  0.364415  0  0.981528  0
H  H22  1  0.87280892  0.62249587  0.14862749  1  0  0.402302  0  0.90424  0  0  0.371602  0  0.97136  0  0  0.381548  0  0.957208  0  0  0.280997  0.364428  0  0.981519  0
H  H23  1  0.62719211  0.12249708  0.85137321  1  0  0.402315  0  0.904178  0  0  0.37162  0  0.971323  0  0  0.381565  0  0.957173  0  0  0.280996  0.364445  0  0.981484  0
C  C24  1  0.82378487  0.59708865  0.49416828  1  0  -0.195186  0  3.791535  0  0  -0.212826  0  4.0438  0  0  -0.216575  0  4.064524  0  0  -0.114541  -0.21021  0  4.029915  0
C  C25  1  0.67621609  0.09708889  0.50583159  1  0  -0.195149  0  3.791357  0  0  -0.212793  0  4.043629  0  0  -0.216543  0  4.064352  0  0  -0.114521  -0.210177  0  4.029744  0
C  C26  1  0.17621197  0.40290831  0.50583363  1  0  -0.195165  0  3.791557  0  0  -0.212809  0  4.043827  0  0  -0.216558  0  4.06455  0  0  -0.114526  -0.210193  0  4.029945  0
C  C27  1  0.32378666  0.90291075  0.49416783  1  0  -0.195196  0  3.791575  0  0  -0.21285  0  4.043854  0  0  -0.2166  0  4.064579  0  0  -0.114549  -0.210232  0  4.029969  0
C  C28  1  0.06123384  0.40369088  0.40332638  1  0  -0.149224  0  3.734614  0  0  -0.170715  0  3.989292  0  0  -0.173002  0  4.006721  0  0  -0.104918  -0.169139  0  3.977648  0
C  C29  1  0.43876332  0.90369322  0.59667505  1  0  -0.1491  0  3.734611  0  0  -0.170586  0  3.989268  0  0  -0.172873  0  4.006699  0  0  -0.104885  -0.169011  0  3.977625  0
C  C30  1  0.93876151  0.59630607  0.59667637  1  0  -0.149171  0  3.734655  0  0  -0.170627  0  3.989311  0  0  -0.172914  0  4.006741  0  0  -0.104903  -0.169052  0  3.977665  0
C  C31  1  0.56123798  0.09630642  0.40332261  1  0  -0.149195  0  3.73446  0  0  -0.170677  0  3.989121  0  0  -0.172964  0  4.006553  0  0  -0.104892  -0.1691  0  3.977474  0
C  C32  1  0.88467130  0.49966654  0.39739751  1  0  0.240917  0  3.811366  0  0  0.232517  0  4.068992  0  0  0.241351  0  4.085644  0  0  0.068869  0.226347  0  4.057647  0
C  C33  1  0.61532816  0.99966784  0.60260244  1  0  0.240839  0  3.811428  0  0  0.232456  0  4.069029  0  0  0.24129  0  4.085683  0  0  0.068853  0.226284  0  4.057685  0
C  C34  1  0.11532408  0.50033176  0.60260349  1  0  0.24093  0  3.811457  0  0  0.232539  0  4.06905  0  0  0.241374  0  4.085701  0  0  0.068913  0.22637  0  4.057705  0
C  C35  1  0.38467312  0.00033180  0.39739696  1  0  0.240946  0  3.811414  0  0  0.232554  0  4.069004  0  0  0.241389  0  4.085657  0  0  0.068891  0.226387  0  4.057655  0
C  C36  1  0.58252825  0.55824373  0.29109634  1  0  -0.076928  0  3.619209  0  0  -0.131532  0  3.876227  0  0  -0.128449  0  3.876563  0  0  -0.070974  -0.133878  0  3.876294  0
C  C37  1  0.91747110  0.05824515  0.70890270  1  0  -0.076791  0  3.619128  0  0  -0.13144  0  3.876232  0  0  -0.12835  0  3.876557  0  0  -0.070968  -0.133813  0  3.876332  0
C  C38  1  0.41746860  0.44175726  0.70890470  1  0  -0.076902  0  3.619105  0  0  -0.131444  0  3.876093  0  0  -0.128366  0  3.876439  0  0  -0.070972  -0.133769  0  3.876137  0
C  C39  1  0.08253018  0.94175449  0.29109582  1  0  -0.07682  0  3.618929  0  0  -0.131476  0  3.876047  0  0  -0.128378  0  3.876363  0  0  -0.071005  -0.133849  0  3.876156  0
C  C40  1  0.45823100  0.47851275  0.19129443  1  0  0.685568  0  3.870646  0  0  0.631069  0  4.17778  0  0  0.665623  0  4.169524  0  0  0.205779  0.607441  0  4.182702  0
C  C41  1  0.04176939  0.97851289  0.80870519  1  0  0.685593  0  3.87056  0  0  0.631066  0  4.177748  0  0  0.665621  0  4.169488  0  0  0.205765  0.607448  0  4.182667  0
C  C42  1  0.54177466  0.52148690  0.80870680  1  0  0.685567  0  3.870818  0  0  0.631018  0  4.177998  0  0  0.665573  0  4.169745  0  0  0.205799  0.607384  0  4.18292  0
C  C43  1  0.95822455  0.02148407  0.19129318  1  0  0.685713  0  3.87058  0  0  0.631189  0  4.17776  0  0  0.66574  0  4.1695  0  0  0.205883  0.607568  0  4.182688  0
O  O44  1  0.77862428  0.48929754  0.29334218  1  0  -0.276703  0  2.368848  0  0  -0.200414  0  2.597604  0  0  -0.217174  0  2.599452  0  0  -0.182498  -0.188488  0  2.596139  0
O  O45  1  0.72137809  0.98929736  0.70665698  1  0  -0.276731  0  2.368893  0  0  -0.200435  0  2.597654  0  0  -0.217198  0  2.5995  0  0  -0.182484  -0.188502  0  2.596198  0
O  O46  1  0.22137697  0.51070613  0.70665895  1  0  -0.276757  0  2.368902  0  0  -0.200469  0  2.597653  0  0  -0.217226  0  2.599499  0  0  -0.182532  -0.188555  0  2.59619  0
O  O47  1  0.27862320  0.01070632  0.29334155  1  0  -0.276777  0  2.368845  0  0  -0.200457  0  2.597604  0  0  -0.217221  0  2.599445  0  0  -0.182513  -0.18853  0  2.596155  0
O  O48  1  0.52879751  0.35022001  0.13064059  1  0  -0.694762  0  2.078423  0  0  -0.620498  0  2.360644  0  0  -0.651473  0  2.343863  0  0  -0.330811  -0.598481  0  2.371469  0
O  O49  1  0.97120142  0.85021988  0.86935876  1  0  -0.694789  0  2.07844  0  0  -0.620502  0  2.36065  0  0  -0.651479  0  2.343874  0  0  -0.330802  -0.598486  0  2.371474  0
O  O50  1  0.47120077  0.64977963  0.86936309  1  0  -0.694834  0  2.078514  0  0  -0.620493  0  2.360705  0  0  -0.651468  0  2.343919  0  0  -0.330804  -0.598476  0  2.371531  0
O  O51  1  0.02879842  0.14977708  0.13063799  1  0  -0.694953  0  2.078429  0  0  -0.620617  0  2.360604  0  0  -0.651595  0  2.343826  0  0  -0.330896  -0.598598  0  2.371428  0
O  O52  1  0.28905888  0.54438135  0.17896355  1  0  -0.635122  0  1.976733  0  0  -0.5785  0  2.227131  0  0  -0.605892  0  2.217141  0  0  -0.321587  -0.559111  0  2.233385  0
O  O53  1  0.21094288  0.04438296  0.82103692  1  0  -0.635177  0  1.976724  0  0  -0.578509  0  2.2271  0  0  -0.605903  0  2.21711  0  0  -0.321586  -0.55912  0  2.23335  0
O  O54  1  0.71093801  0.45562098  0.82103401  1  0  -0.635049  0  1.976887  0  0  -0.578469  0  2.227368  0  0  -0.60586  0  2.21738  0  0  -0.321577  -0.559081  0  2.233624  0
O  O55  1  0.78906127  0.95561668  0.17896775  1  0  -0.635086  0  1.976863  0  0  -0.578516  0  2.227365  0  0  -0.605908  0  2.217376  0  0  -0.321572  -0.559128  0  2.233616  0
O  O56  1  0.13083531  0.38040779  0.93636658  1  0  -1.023355  0  1.905883  0  0  -0.912647  0  2.175885  0  0  -0.953479  0  2.14351  0  0  -0.594747  -0.883299  0  2.1977  0
O  O57  1  0.36916473  0.88040829  0.06363322  1  0  -1.023373  0  1.905908  0  0  -0.912664  0  2.17591  0  0  -0.953495  0  2.143533  0  0  -0.594757  -0.883316  0  2.197725  0
O  O58  1  0.86916449  0.61959320  0.06363366  1  0  -1.023385  0  1.905933  0  0  -0.912664  0  2.175881  0  0  -0.953495  0  2.143502  0  0  -0.594759  -0.883317  0  2.197699  0
O  O59  1  0.63083653  0.11959270  0.93636705  1  0  -1.023382  0  1.905856  0  0  -0.912667  0  2.175842  0  0  -0.953498  0  2.143463  0  0  -0.59475  -0.88332  0  2.19766  0
