# generated using pymatgen
data_MgH15C19O3
_symmetry_space_group_name_H-M   'P 1'
_cell_length_a   6.85630974
_cell_length_b   40.12017677
_cell_length_c   40.11892705
_cell_angle_alpha   119.67783216
_cell_angle_beta   93.26540484
_cell_angle_gamma   93.26457957
_symmetry_Int_Tables_number   1
_chemical_formula_structural   MgH15C19O3
_chemical_formula_sum   'Mg6 H90 C114 O18'
_cell_volume   9526.32949640
_cell_formula_units_Z   6
loop_
 _symmetry_equiv_pos_site_id
 _symmetry_equiv_pos_as_xyz
  1  'x, y, z'
loop_
 _atom_site_type_symbol
 _atom_site_label
 _atom_site_symmetry_multiplicity
 _atom_site_fract_x
 _atom_site_fract_y
 _atom_site_fract_z
 _atom_site_occupancy
 _atom_site_pbe_bader_charge
 _atom_site_pbe_bader_spin_density
 _atom_site_pbe_cm5_charge
 _atom_site_pbe_ddec_charge
 _atom_site_pbe_ddec_spin_density
 _atom_site_pbe_ddec_sum_bond_order
 _atom_site_pbe_magmom
Mg  Mg0  1  0.63745895  0.67088741  0.30962828  1  1.682384  0  0.906364  1.407755  0  1.333593  0
Mg  Mg1  1  0.32800336  0.69036425  0.36122671  1  1.681013  0  0.906307  1.40809  0  1.332746  0
Mg  Mg2  1  0.96663453  0.63879177  0.32916209  1  1.682673  0  0.906589  1.408412  0  1.332983  0
Mg  Mg3  1  0.69375003  0.32731218  0.68921514  1  1.683017  0  0.90588  1.406518  0  1.334719  0
Mg  Mg4  1  0.00459821  0.31072975  0.63804659  1  1.683362  0  0.905795  1.407046  0  1.333089  0
Mg  Mg5  1  0.36637020  0.36189737  0.67264592  1  1.68286  0  0.905885  1.407257  0  1.332517  0
H  H6  1  0.95176098  0.21577304  0.61099786  1  0.05729  0  0.103376  0.122201  0  1.029199  0
H  H7  1  0.34035088  0.38902079  0.60474997  1  0.104874  0  0.10345  0.12193  0  1.028664  0
H  H8  1  0.73530269  0.39519386  0.78421747  1  0.082697  0  0.103248  0.121518  0  1.029081  0
H  H9  1  0.86849366  0.05916032  0.47784086  1  0.046898  0  0.097122  0.099954  0  1.016359  0
H  H10  1  0.39042228  0.52216194  0.58130408  1  0.033446  0  0.09712  0.100858  0  1.015344  0
H  H11  1  0.80926630  0.41870512  0.94084807  1  0.034255  0  0.097123  0.099771  0  1.016422  0
H  H12  1  0.02941618  0.94992011  0.51007421  1  0.050897  0  0.096951  0.100474  0  1.009169  0
H  H13  1  0.51945206  0.48987455  0.43977792  1  0.058388  0  0.096711  0.100281  0  1.009713  0
H  H14  1  0.07967475  0.56019776  0.05006678  1  0.059061  0  0.096826  0.100427  0  1.009375  0
H  H15  1  0.62093626  0.87362899  0.48971074  1  0.038311  0  0.096672  0.099815  0  1.011263  0
H  H16  1  0.13064948  0.51025871  0.38386914  1  0.058474  0  0.096905  0.099715  0  1.011621  0
H  H17  1  0.74675049  0.61609452  0.12646746  1  0.025796  0  0.096708  0.099653  0  1.010922  0
H  H18  1  0.23061931  0.91246101  0.40980138  1  0.037885  0  0.098802  0.10132  0  1.003004  0
H  H19  1  0.82100108  0.59019373  0.50268657  1  0.064177  0  0.098688  0.101145  0  1.003181  0
H  H20  1  0.31770959  0.49730965  0.08752024  1  0.029679  0  0.098803  0.101342  0  1.002926  0
H  H21  1  0.49686887  0.82966101  0.35313263  1  0.063466  0  0.091273  0.129216  0  1.004881  0
H  H22  1  0.14351808  0.64682218  0.47646664  1  0.056311  0  0.09109  0.128456  0  1.004764  0
H  H23  1  0.66655275  0.52348596  0.17035353  1  0.050889  0  0.091099  0.128671  0  1.004288  0
H  H24  1  0.32814778  0.86170443  0.35269172  1  0.020859  0  0.089646  0.122863  0  1.000173  0
H  H25  1  0.97529960  0.64730139  0.50897160  1  0.017904  0  0.089653  0.122733  0  0.999638  0
H  H26  1  0.46578464  0.49098122  0.13833353  1  0.02905  0  0.089812  0.122966  0  0.999826  0
H  H27  1  0.24502949  0.82118805  0.35639488  1  0.053707  0  0.091811  0.12758  0  0.996712  0
H  H28  1  0.88843585  0.64359481  0.46475068  1  0.054533  0  0.091785  0.127357  0  0.996785  0
H  H29  1  0.42317096  0.53519202  0.17888389  1  0.029351  0  0.091923  0.127574  0  0.996492  0
H  H30  1  0.37735867  0.78319508  0.38209300  1  0.095679  0  0.105834  0.124504  0  1.020957  0
H  H31  1  0.99491268  0.61790867  0.40100828  1  0.068241  0  0.105832  0.124786  0  1.021187  0
H  H32  1  0.59350059  0.59894769  0.21695525  1  0.095618  0  0.105916  0.124536  0  1.021543  0
H  H33  1  0.09240595  0.79958928  0.41958379  1  0.112815  0  0.104435  0.107355  0  1.010904  0
H  H34  1  0.67242805  0.58040556  0.38001571  1  0.108569  0  0.103945  0.107036  0  1.010399  0
H  H35  1  0.29204578  0.61993196  0.20036015  1  0.079783  0  0.104288  0.107635  0  1.0098  0
H  H36  1  0.90574325  0.85729617  0.44525172  1  0.082032  0  0.098195  0.104441  0  1.015952  0
H  H37  1  0.45980581  0.55468333  0.41195326  1  0.069154  0  0.09825  0.104675  0  1.015674  0
H  H38  1  0.04720000  0.58798881  0.14273202  1  0.075176  0  0.098023  0.104182  0  1.015117  0
H  H39  1  0.46522263  0.97068598  0.54468696  1  0.02942  0  0.091548  0.128117  0  1.017347  0
H  H40  1  0.92024878  0.45528417  0.42595527  1  0.038664  0  0.091381  0.127889  0  1.017519  0
H  H41  1  0.49441733  0.57403969  0.02939654  1  0.07725  0  0.091351  0.127986  0  1.017574  0
H  H42  1  0.59003778  0.93373823  0.54665080  1  0.023568  0  0.088681  0.120605  0  1.002417  0
H  H43  1  0.04311530  0.45333628  0.38705511  1  0.015536  0  0.088658  0.12092  0  1.001981  0
H  H44  1  0.65611871  0.61293388  0.06635858  1  0.029101  0  0.088504  0.120476  0  1.002478  0
H  H45  1  0.33116317  0.93234187  0.54555738  1  0.011285  0  0.091003  0.125787  0  0.992162  0
H  H46  1  0.78531005  0.45440138  0.38673403  1  0.032683  0  0.090926  0.125878  0  0.991954  0
H  H47  1  0.39861485  0.61326113  0.06771725  1  0.043676  0  0.091002  0.126022  0  0.991521  0
H  H48  1  0.32969710  0.05371557  0.49138738  1  0.044649  0  0.093202  0.095994  0  1.032348  0
H  H49  1  0.83773456  0.50856397  0.56230717  1  0.049302  0  0.093182  0.096048  0  1.032561  0
H  H50  1  0.27600365  0.43769949  0.94629715  1  0.058016  0  0.093319  0.096121  0  1.032133  0
H  H51  1  0.62744262  0.97417633  0.46265702  1  0.047861  0  0.092586  0.132907  0  1.004336  0
H  H52  1  0.16429858  0.53735930  0.51157348  1  0.057301  0  0.092661  0.132797  0  1.00445  0
H  H53  1  0.65315164  0.48843174  0.02583021  1  0.063826  0  0.092687  0.133011  0  1.004069  0
H  H54  1  0.58795666  0.01701761  0.46140203  1  0.025049  0  0.086635  0.120178  0  1.026494  0
H  H55  1  0.12609706  0.53860345  0.55566211  1  0.022878  0  0.086567  0.120507  0  1.025886  0
H  H56  1  0.57072224  0.44435634  0.98298562  1  0.029443  0  0.086724  0.120517  0  1.026073  0
H  H57  1  0.47461900  0.97161841  0.42446505  1  0.065897  0  0.08955  0.12427  0  0.998574  0
H  H58  1  0.04961230  0.57553606  0.54719030  1  0.029483  0  0.08951  0.1244  0  0.998417  0
H  H59  1  0.50269373  0.45281910  0.02838427  1  0.036812  0  0.0895  0.124224  0  0.998805  0
H  H60  1  0.71832639  0.02268129  0.53389075  1  0.050132  0  0.092326  0.133525  0  1.009086  0
H  H61  1  0.18409828  0.46615043  0.48877227  1  0.041821  0  0.092401  0.133525  0  1.009733  0
H  H62  1  0.69586889  0.51124292  0.97733098  1  0.051332  0  0.092398  0.1333  0  1.008778  0
H  H63  1  0.87771672  0.03828282  0.57595688  1  0.047799  0  0.090103  0.126034  0  1.006649  0
H  H64  1  0.30129759  0.42406668  0.46229613  1  0.054396  0  0.090388  0.126436  0  1.00612  0
H  H65  1  0.83956598  0.53770797  0.96171708  1  0.055041  0  0.090165  0.125992  0  1.006194  0
H  H66  1  0.79559431  0.98851072  0.54657612  1  0.049264  0  0.088107  0.123395  0  1.025617  0
H  H67  1  0.24861151  0.45345185  0.44190463  1  0.045766  0  0.088322  0.123802  0  1.025095  0
H  H68  1  0.80723492  0.55810615  0.01150122  1  0.048242  0  0.088329  0.123548  0  1.024898  0
H  H69  1  0.97044397  0.15850327  0.61541827  1  0.052039  0  0.098244  0.101715  0  1.011273  0
H  H70  1  0.35500435  0.38462002  0.54316958  1  0.046879  0  0.098481  0.101888  0  1.011168  0
H  H71  1  0.81165068  0.45693851  0.84149310  1  0.045769  0  0.098336  0.101789  0  1.010737  0
H  H72  1  0.19486688  0.07161154  0.59487870  1  0.03194  0  0.090133  0.125013  0  1.016099  0
H  H73  1  0.59982687  0.40511446  0.47674517  1  0.034363  0  0.090305  0.124537  0  1.016259  0
H  H74  1  0.12306923  0.52328861  0.92837978  1  0.047166  0  0.090197  0.124461  0  1.016689  0
H  H75  1  0.18465468  0.12133148  0.62909690  1  0.055165  0  0.090565  0.125726  0  0.997764  0
H  H76  1  0.55533755  0.37089974  0.49224953  1  0.009908  0  0.090498  0.125696  0  0.997391  0
H  H77  1  0.06310576  0.50778800  0.87866034  1  0.017522  0  0.090634  0.125974  0  0.997245  0
H  H78  1  0.35283763  0.10708869  0.59354783  1  0.029753  0  0.093018  0.131848  0  0.995133  0
H  H79  1  0.75900864  0.40646246  0.51357538  1  0.044874  0  0.093158  0.131905  0  0.995605  0
H  H80  1  0.24545242  0.48645807  0.89289923  1  0.036623  0  0.09305  0.131825  0  0.995181  0
H  H81  1  0.64252472  0.14761233  0.49996999  1  0.0686  0  0.092839  0.132448  0  1.000232  0
H  H82  1  0.14256866  0.50008776  0.64767862  1  0.048217  0  0.092774  0.132626  0  1.00043  0
H  H83  1  0.49495424  0.35242146  0.85240549  1  0.031649  0  0.092688  0.132627  0  1.000627  0
H  H84  1  0.50098611  0.10463359  0.48885158  1  0.02107  0  0.088307  0.118455  0  1.018639  0
H  H85  1  0.01211923  0.51123300  0.61584112  1  0.021706  0  0.08836  0.11879  0  1.018131  0
H  H86  1  0.39618792  0.38423712  0.89537696  1  0.03319  0  0.088317  0.118853  0  1.018492  0
H  H87  1  0.70716850  0.10226223  0.46350333  1  0.028608  0  0.090754  0.125952  0  0.995586  0
H  H88  1  0.24378172  0.53653304  0.63877324  1  0.06869  0  0.090813  0.125928  0  0.996146  0
H  H89  1  0.60487029  0.36129447  0.89775671  1  0.027117  0  0.090889  0.126337  0  0.995662  0
H  H90  1  0.41405048  0.14346160  0.55063384  1  0.054629  0  0.099942  0.105522  0  1.017928  0
H  H91  1  0.86297991  0.44941356  0.59286652  1  0.0428  0  0.100043  0.105935  0  1.017605  0
H  H92  1  0.26975113  0.40714686  0.85651748  1  0.090622  0  0.099984  0.105581  0  1.017988  0
H  H93  1  0.23293694  0.20141566  0.57846681  1  0.077832  0  0.102999  0.105785  0  1.016524  0
H  H94  1  0.65415753  0.42153415  0.62296670  1  0.085092  0  0.103187  0.105846  0  1.016714  0
H  H95  1  0.03093244  0.37700830  0.79854599  1  0.076531  0  0.103232  0.106366  0  1.01627  0
C  C96  1  0.69215507  0.24523579  0.62154770  1  0.577714  0  0.092943  0.374658  0  4.085053  0
C  C97  1  0.07031747  0.37842622  0.62365256  1  0.572666  0  0.093246  0.374111  0  4.084845  0
C  C98  1  0.44637326  0.37626426  0.75473691  1  0.58737  0  0.092841  0.373574  0  4.084733  0
C  C99  1  0.79322034  0.21198114  0.60397500  1  0.018367  0  -0.109405  -0.276905  0  3.923664  0
C  C100  1  0.18881046  0.39603348  0.60798372  1  -0.078711  0  -0.109775  -0.276929  0  3.922431  0
C  C101  1  0.58054115  0.39195345  0.78801246  1  -0.072752  0  -0.109043  -0.27479  0  3.921602  0
C  C102  1  0.69829298  0.17555503  0.57799692  1  -0.006276  0  -0.000429  0.115119  0  4.018966  0
C  C103  1  0.11985018  0.42202889  0.59755258  1  0.011995  0  -0.000333  0.115482  0  4.019122  0
C  C104  1  0.52200218  0.40246166  0.82446188  1  -0.001254  0  -0.000632  0.11361  0  4.019276  0
C  C105  1  0.81078770  0.14139402  0.56080963  1  -0.015827  0  -0.01346  0.002722  0  3.977026  0
C  C106  1  0.24961979  0.43921869  0.58059640  1  -0.022267  0  -0.013743  0.002474  0  3.978518  0
C  C107  1  0.66879873  0.41947084  0.85862618  1  -0.006874  0  -0.013425  0.00347  0  3.975962  0
C  C108  1  0.78370802  0.11357648  0.52111719  1  -0.02498  0  -0.013472  0.121896  0  3.963221  0
C  C109  1  0.26228994  0.47890737  0.59245829  1  -0.004754  0  -0.012947  0.121715  0  3.965677  0
C  C110  1  0.66980511  0.40761876  0.88646812  1  0.002115  0  -0.013212  0.12068  0  3.965485  0
C  C111  1  0.88855519  0.08118897  0.50835298  1  -0.031652  0  -0.098133  -0.204616  0  3.995118  0
C  C112  1  0.37982344  0.49165140  0.57281265  1  -0.039123  0  -0.098293  -0.206189  0  3.993571  0
C  C113  1  0.80718702  0.42721610  0.91883989  1  -0.054258  0  -0.098216  -0.203849  0  3.994864  0
C  C114  1  0.01690834  0.07527172  0.53289333  1  -0.018483  0  -0.009972  0.022955  0  3.98635  0
C  C115  1  0.48347339  0.46708591  0.54233678  1  -0.00896  0  -0.009651  0.025654  0  3.983752  0
C  C116  1  0.94150526  0.45766263  0.92474165  1  -0.022843  0  -0.010253  0.022709  0  3.98683  0
C  C117  1  0.10314044  0.03779156  0.51713986  1  -0.036828  0  -0.012474  0.018148  0  3.99351  0
C  C118  1  0.58549828  0.48282977  0.52060997  1  -0.032367  0  -0.012499  0.019412  0  3.991291  0
C  C119  1  0.06542813  0.47938330  0.96220129  1  -0.061098  0  -0.012434  0.018011  0  3.992732  0
C  C120  1  0.01695578  0.00850931  0.52296114  1  -0.070277  0  -0.014361  0.114702  0  3.983344  0
C  C121  1  0.49365444  0.47702343  0.48550256  1  -0.015425  0  -0.014709  0.113526  0  3.98427  0
C  C122  1  0.00857135  0.51449092  0.99148072  1  0.018993  0  -0.014343  0.114965  0  3.982445  0
C  C123  1  0.09613557  0.97304571  0.50624215  1  0.000315  0  -0.096899  -0.196656  0  3.992565  0
C  C124  1  0.58979771  0.49372295  0.46675986  1  -0.051007  0  -0.096448  -0.196864  0  3.99347  0
C  C125  1  0.12321249  0.53322966  0.02694246  1  -0.057794  0  -0.096637  -0.196687  0  3.992001  0
C  C126  1  0.25628273  0.96578300  0.48426610  1  -0.062638  0  -0.013828  0.012805  0  4.000694  0
C  C127  1  0.77183926  0.51572060  0.48151503  1  -0.042577  0  -0.013913  0.012749  0  3.999526  0
C  C128  1  0.29047638  0.51849608  0.03422356  1  -0.016413  0  -0.01361  0.013366  0  3.999819  0
C  C129  1  0.33628351  0.92769027  0.46741219  1  0.028801  0  -0.011364  0.018904  0  3.992046  0
C  C130  1  0.86871623  0.53257232  0.46026906  1  -0.036041  0  -0.011341  0.021342  0  3.987841  0
C  C131  1  0.40824441  0.53972743  0.07234255  1  -0.012045  0  -0.011221  0.020983  0  3.989428  0
C  C132  1  0.44182671  0.91634672  0.49074588  1  -0.019245  0  -0.013989  0.117355  0  3.974612  0
C  C133  1  0.95061794  0.50922685  0.42556003  1  0.03664  0  -0.014164  0.11617  0  3.976611  0
C  C134  1  0.52493453  0.57443128  0.08373424  1  0.013062  0  -0.014681  0.115653  0  3.97666  0
C  C135  1  0.53280700  0.88229126  0.47223665  1  -0.043349  0  -0.098047  -0.198502  0  3.990242  0
C  C136  1  0.05999928  0.52773829  0.41000544  1  -0.005698  0  -0.098303  -0.197581  0  3.99197  0
C  C137  1  0.64980544  0.58997319  0.11780638  1  -0.045144  0  -0.097863  -0.197131  0  3.990212  0
C  C138  1  0.51529157  0.85838878  0.43203188  1  -0.018255  0  -0.013204  0.005308  0  3.981797  0
C  C139  1  0.08265804  0.56793807  0.42628272  1  -0.079529  0  -0.013503  0.00298  0  3.983764  0
C  C140  1  0.65592307  0.57367039  0.14171093  1  -0.018632  0  -0.013746  0.002954  0  3.983565  0
C  C141  1  0.39814991  0.86838841  0.40881421  1  -0.025519  0  -0.010423  0.124788  0  3.962831  0
C  C142  1  0.98898729  0.59116639  0.45953601  1  -0.010881  0  -0.010571  0.126724  0  3.961841  0
C  C143  1  0.52882561  0.54043390  0.13167104  1  -0.035579  0  -0.010512  0.12529  0  3.964173  0
C  C144  1  0.31483417  0.90336057  0.42734819  1  -0.055941  0  -0.095071  -0.194859  0  3.985767  0
C  C145  1  0.88742350  0.57263604  0.47600902  1  -0.08176  0  -0.094678  -0.19626  0  3.985148  0
C  C146  1  0.41084265  0.52398332  0.09666393  1  -0.044359  0  -0.09459  -0.195287  0  3.984788  0
C  C147  1  0.36644936  0.84402039  0.36552622  1  -0.069801  0  -0.2385  -0.406003  0  3.989688  0
C  C148  1  0.00067511  0.63445204  0.47844787  1  -0.081493  0  -0.237975  -0.404731  0  3.987824  0
C  C149  1  0.52163338  0.52150466  0.15602317  1  -0.054614  0  -0.238434  -0.405193  0  3.988599  0
C  C150  1  0.62735402  0.82416146  0.41555655  1  -0.040642  0  0.000588  0.117777  0  4.01977  0
C  C151  1  0.21114848  0.58438758  0.40849656  1  -0.040121  0  0.000396  0.118478  0  4.020996  0
C  C152  1  0.80222748  0.59142362  0.17593169  1  -0.027778  0  0.00064  0.119067  0  4.021179  0
C  C153  1  0.53509370  0.78745947  0.39006201  1  -0.03543  0  -0.106659  -0.269845  0  3.924606  0
C  C154  1  0.14465642  0.60991741  0.39732097  1  0.028356  0  -0.1065  -0.270556  0  3.925327  0
C  C155  1  0.74692740  0.60261532  0.21264283  1  0.007752  0  -0.106947  -0.270999  0  3.926294  0
C  C156  1  0.63788504  0.75439307  0.37440033  1  0.604528  0  0.092841  0.370023  0  4.088317  0
C  C157  1  0.26332318  0.62558659  0.37994401  1  0.539625  0  0.092592  0.370713  0  4.088  0
C  C158  1  0.88313098  0.62000130  0.24566174  1  0.548709  0  0.092924  0.371215  0  4.086618  0
C  C159  1  0.84408510  0.75919095  0.38584393  1  -0.054959  0  -0.045545  -0.216579  0  3.971655  0
C  C160  1  0.45804794  0.61414644  0.37331390  1  -0.013719  0  -0.045578  -0.217589  0  3.971868  0
C  C161  1  0.08450844  0.62661455  0.24083020  1  -0.002483  0  -0.045518  -0.217958  0  3.971421  0
C  C162  1  0.93535904  0.79657789  0.41141766  1  -0.029282  0  -0.088245  -0.062908  0  4.033212  0
C  C163  1  0.52346027  0.58853763  0.38510583  1  -0.105603  0  -0.087708  -0.06171  0  4.031679  0
C  C164  1  0.13804254  0.61481372  0.20341806  1  -0.037079  0  -0.088104  -0.061961  0  4.03128  0
C  C165  1  0.83120637  0.82861400  0.42609925  1  -0.086461  0  -0.108362  -0.177665  0  4.019177  0
C  C166  1  0.40446346  0.57383043  0.40241368  1  -0.010544  0  -0.108625  -0.178765  0  4.019055  0
C  C167  1  0.00157016  0.59751422  0.17143362  1  -0.080222  0  -0.108502  -0.178555  0  4.018766  0
C  C168  1  0.96495062  0.72668925  0.37322682  1  1.510416  0  0.234247  0.674692  0  4.131787  0
C  C169  1  0.59172415  0.62678377  0.35346958  1  1.485602  0  0.234606  0.674959  0  4.131624  0
C  C170  1  0.23807146  0.64649811  0.27330614  1  1.499771  0  0.234392  0.674919  0  4.13274  0
C  C171  1  0.45897456  0.93963260  0.53413088  1  -0.032292  0  -0.23978  -0.40814  0  3.99694  0
C  C172  1  0.92450832  0.46584277  0.40545671  1  -0.057373  0  -0.239404  -0.408296  0  3.997912  0
C  C173  1  0.51908011  0.59453614  0.06045344  1  -0.116524  0  -0.239358  -0.408069  0  3.997054  0
C  C174  1  0.34311776  0.99511022  0.47860058  1  -0.033677  0  -0.014179  0.11613  0  3.97492  0
C  C175  1  0.86406665  0.52139981  0.51652986  1  0.018462  0  -0.013781  0.11575  0  3.977272  0
C  C176  1  0.34794373  0.48349598  0.00491012  1  -0.009503  0  -0.014188  0.113929  0  3.977987  0
C  C177  1  0.26351648  0.03062485  0.49532375  1  -0.003803  0  -0.099023  -0.200463  0  3.989088  0
C  C178  1  0.76769056  0.50463802  0.53527908  1  -0.053955  0  -0.099102  -0.201009  0  3.988824  0
C  C179  1  0.23293722  0.46473043  0.96938292  1  -0.064276  0  -0.099141  -0.199923  0  3.98943  0
C  C180  1  0.51740197  0.98920987  0.45566812  1  -0.090253  0  -0.240542  -0.407849  0  3.982822  0
C  C181  1  0.06121186  0.54433647  0.53359314  1  -0.077312  0  -0.240663  -0.408192  0  3.983082  0
C  C182  1  0.52799541  0.46642733  0.01079631  1  -0.079344  0  -0.240648  -0.407533  0  3.983173  0
C  C183  1  0.84336307  0.01473500  0.54599771  1  -0.102594  0  -0.239915  -0.411822  0  3.97835  0
C  C184  1  0.29694788  0.45402434  0.46870548  1  -0.104921  0  -0.240556  -0.412552  0  3.979144  0
C  C185  1  0.82881106  0.53130605  0.98527079  1  -0.114061  0  -0.240362  -0.411703  0  3.977826  0
C  C186  1  0.05342694  0.10411549  0.57199218  1  -0.081332  0  -0.012891  0.11713  0  3.980873  0
C  C187  1  0.48104953  0.42800433  0.53211646  1  -0.011387  0  -0.012989  0.115894  0  3.981466  0
C  C188  1  0.94890529  0.46791591  0.89589493  1  -0.023567  0  -0.012844  0.117209  0  3.979538  0
C  C189  1  0.94848045  0.13643715  0.58494348  1  -0.011411  0  -0.094305  -0.191172  0  3.977077  0
C  C190  1  0.36335101  0.41508444  0.55153808  1  -0.043905  0  -0.094539  -0.19117  0  3.97727  0
C  C191  1  0.81158307  0.44854284  0.86357147  1  -0.044067  0  -0.094405  -0.191183  0  3.97498  0
C  C192  1  0.20302685  0.10080840  0.59888240  1  -0.058801  0  -0.23799  -0.408765  0  3.989229  0
C  C193  1  0.60388117  0.40111356  0.50194212  1  -0.038533  0  -0.238229  -0.408236  0  3.988747  0
C  C194  1  0.10194119  0.49809124  0.89918002  1  -0.055011  0  -0.238277  -0.4086  0  3.988423  0
C  C195  1  0.65209643  0.11740386  0.49199758  1  -0.067001  0  -0.238674  -0.407558  0  3.989712  0
C  C196  1  0.16008576  0.50805472  0.62543691  1  -0.098655  0  -0.238853  -0.408098  0  3.991688  0
C  C197  1  0.53460823  0.37465012  0.88262369  1  -0.043184  0  -0.238656  -0.408178  0  3.991439  0
C  C198  1  0.49283434  0.17175459  0.56944083  1  -0.038835  0  -0.106298  -0.17094  0  4.013713  0
C  C199  1  0.92297177  0.43058557  0.60232078  1  -0.010001  0  -0.106109  -0.17102  0  4.014779  0
C  C200  1  0.32034385  0.39768197  0.82823000  1  -0.085299  0  -0.106198  -0.170616  0  4.015897  0
C  C201  1  0.39091546  0.20403919  0.58549395  1  -0.071901  0  -0.086951  -0.062805  0  4.027775  0
C  C202  1  0.80509137  0.41450070  0.61853998  1  -0.058506  0  -0.087511  -0.064029  0  4.029478  0
C  C203  1  0.18629214  0.38142747  0.79592972  1  -0.030018  0  -0.087286  -0.064131  0  4.029189  0
C  C204  1  0.48524698  0.24113150  0.61107517  1  -0.013012  0  -0.045938  -0.216941  0  3.969872  0
C  C205  1  0.87387191  0.38890369  0.63002280  1  -0.035507  0  -0.04576  -0.215255  0  3.969056  0
C  C206  1  0.24357016  0.36990136  0.75883760  1  -0.020918  0  -0.045542  -0.214828  0  3.968934  0
C  C207  1  0.36633660  0.27398576  0.62471279  1  1.504467  0  0.234739  0.674785  0  4.131963  0
C  C208  1  0.74137101  0.37523865  0.64922974  1  1.505416  0  0.234643  0.674286  0  4.132945  0
C  C209  1  0.09191421  0.35069640  0.72597080  1  1.515271  0  0.235023  0.674147  0  4.133452  0
O  O210  1  0.14456722  0.73175543  0.38626597  1  -1.248121  0  -0.357481  -0.647855  0  2.157144  0
O  O211  1  0.75837495  0.61375846  0.34556408  1  -1.244413  0  -0.357651  -0.647681  0  2.156772  0
O  O212  1  0.41256096  0.65445177  0.26819675  1  -1.246469  0  -0.357226  -0.647476  0  2.15682  0
O  O213  1  0.88437624  0.69249466  0.34837188  1  -1.307936  0  -0.404754  -0.769245  0  2.418284  0
O  O214  1  0.53611587  0.65162518  0.34409304  1  -1.291311  0  -0.404911  -0.769421  0  2.418003  0
O  O215  1  0.19184194  0.65587883  0.30752110  1  -1.30093  0  -0.404781  -0.769707  0  2.418974  0
O  O216  1  0.53642675  0.72024379  0.34993066  1  -1.31347  0  -0.450599  -0.777886  0  2.30541  0
O  O217  1  0.18645770  0.65008096  0.37029222  1  -1.309552  0  -0.450354  -0.777766  0  2.305708  0
O  O218  1  0.81596597  0.62971302  0.27982762  1  -1.307492  0  -0.450655  -0.777629  0  2.305656  0
O  O219  1  0.18744687  0.26963752  0.61156131  1  -1.247094  0  -0.357792  -0.646429  0  2.156645  0
O  O220  1  0.57566282  0.38839426  0.65805598  1  -1.245672  0  -0.358282  -0.646771  0  2.156946  0
O  O221  1  0.91741098  0.34186653  0.73030433  1  -1.247737  0  -0.358438  -0.64631  0  2.157986  0
O  O222  1  0.44770909  0.30773699  0.65057392  1  -1.307648  0  -0.405092  -0.769064  0  2.420049  0
O  O223  1  0.79698758  0.34937472  0.65710706  1  -1.29241  0  -0.404615  -0.768687  0  2.419928  0
O  O224  1  0.13965820  0.34283287  0.69222947  1  -1.294406  0  -0.404773  -0.768779  0  2.418807  0
O  O225  1  0.79501591  0.27896015  0.64676592  1  -1.313037  0  -0.44815  -0.776398  0  2.301401  0
O  O226  1  0.14805226  0.35320942  0.63215458  1  -1.311155  0  -0.448283  -0.776569  0  2.300853  0
O  O227  1  0.51559024  0.36774283  0.72101121  1  -1.313592  0  -0.448509  -0.776889  0  2.301423  0
