# generated using pymatgen
data_KH7C8SO2
_symmetry_space_group_name_H-M   'P 1'
_cell_length_a   6.99329628
_cell_length_b   8.32133875
_cell_length_c   15.10582938
_cell_angle_alpha   98.85643130
_cell_angle_beta   89.99984136
_cell_angle_gamma   89.99972745
_symmetry_Int_Tables_number   1
_chemical_formula_structural   KH7C8SO2
_chemical_formula_sum   'K4 H28 C32 S4 O8'
_cell_volume   868.58153800
_cell_formula_units_Z   4
loop_
 _symmetry_equiv_pos_site_id
 _symmetry_equiv_pos_as_xyz
  1  'x, y, z'
loop_
 _atom_site_type_symbol
 _atom_site_label
 _atom_site_symmetry_multiplicity
 _atom_site_fract_x
 _atom_site_fract_y
 _atom_site_fract_z
 _atom_site_occupancy
 _atom_site_hle17_bader_spin_density
 _atom_site_hle17_ddec_charge
 _atom_site_hle17_ddec_spin_density
 _atom_site_hle17_ddec_sum_bond_order
 _atom_site_hle17_magmom
 _atom_site_hse06_10hf_bader_spin_density
 _atom_site_hse06_10hf_ddec_charge
 _atom_site_hse06_10hf_ddec_spin_density
 _atom_site_hse06_10hf_ddec_sum_bond_order
 _atom_site_hse06_10hf_magmom
 _atom_site_hse06_bader_spin_density
 _atom_site_hse06_ddec_charge
 _atom_site_hse06_ddec_spin_density
 _atom_site_hse06_ddec_sum_bond_order
 _atom_site_hse06_magmom
 _atom_site_pbe_bader_spin_density
 _atom_site_pbe_cm5_charge
 _atom_site_pbe_ddec_charge
 _atom_site_pbe_ddec_spin_density
 _atom_site_pbe_ddec_sum_bond_order
 _atom_site_pbe_magmom
K  K0  1  0.60841504  0.19638292  0.93657064  1  0  0.89138  0  0.526518  0  0  0.828365  0  0.736449  0  0  0.843077  0  0.715708  0  0  0.689051  0.8175  0  0.751141  0
K  K1  1  0.89157766  0.69638188  0.93656772  1  0  0.891395  0  0.5265  0  0  0.828352  0  0.736489  0  0  0.843064  0  0.715747  0  0  0.689053  0.8175  0  0.751155  0
K  K2  1  0.39158255  0.80362294  0.06343342  1  0  0.891391  0  0.526529  0  0  0.828348  0  0.736517  0  0  0.843062  0  0.715773  0  0  0.689064  0.817504  0  0.751165  0
K  K3  1  0.10842565  0.30362033  0.06343140  1  0  0.89139  0  0.526511  0  0  0.82836  0  0.736468  0  0  0.843072  0  0.715725  0  0  0.689054  0.817494  0  0.751159  0
H  H4  1  0.42866360  0.98972128  0.42782001  1  0  0.102396  0  0.979493  0  0  0.115088  0  1.040796  0  0  0.117689  0  1.040284  0  0  0.101702  0.113246  0  1.041226  0
H  H5  1  0.07132851  0.48972735  0.42782340  1  0  0.10232  0  0.979554  0  0  0.115039  0  1.040832  0  0  0.117624  0  1.04034  0  0  0.10167  0.113199  0  1.041254  0
H  H6  1  0.57132684  0.01027121  0.57217564  1  0  0.102299  0  0.979541  0  0  0.115029  0  1.040812  0  0  0.117598  0  1.040352  0  0  0.101651  0.113189  0  1.041235  0
H  H7  1  0.92867337  0.51027243  0.57217750  1  0  0.102335  0  0.979566  0  0  0.115053  0  1.040843  0  0  0.117638  0  1.040351  0  0  0.101679  0.113212  0  1.041267  0
H  H8  1  0.50476400  0.26401273  0.50823926  1  0  0.07805  0  0.975649  0  0  0.089608  0  1.039608  0  0  0.092267  0  1.038112  0  0  0.094073  0.087708  0  1.04068  0
H  H9  1  0.99523087  0.76402461  0.50824062  1  0  0.078196  0  0.975427  0  0  0.08971  0  1.03942  0  0  0.092361  0  1.037936  0  0  0.09413  0.087809  0  1.040494  0
H  H10  1  0.49522787  0.73597731  0.49175948  1  0  0.078244  0  0.975427  0  0  0.089753  0  1.039427  0  0  0.092412  0  1.037927  0  0  0.094129  0.087851  0  1.0405  0
H  H11  1  0.00477530  0.23597882  0.49176059  1  0  0.078092  0  0.975498  0  0  0.089631  0  1.039494  0  0  0.092293  0  1.037983  0  0  0.094056  0.087727  0  1.04057  0
H  H12  1  0.61031186  0.48312541  0.42322405  1  0  0.084034  0  0.975118  0  0  0.096485  0  1.036679  0  0  0.098674  0  1.036772  0  0  0.093607  0.094946  0  1.0367  0
H  H13  1  0.88968943  0.98313289  0.42322186  1  0  0.084018  0  0.975087  0  0  0.096447  0  1.036676  0  0  0.098635  0  1.036768  0  0  0.093605  0.094907  0  1.036699  0
H  H14  1  0.38968430  0.51686950  0.57677843  1  0  0.084042  0  0.975064  0  0  0.096464  0  1.036653  0  0  0.098652  0  1.036747  0  0  0.093587  0.094925  0  1.036674  0
H  H15  1  0.11032103  0.01686932  0.57677859  1  0  0.083995  0  0.975115  0  0  0.096429  0  1.036694  0  0  0.098618  0  1.036786  0  0  0.093583  0.094891  0  1.036714  0
H  H16  1  0.63837082  0.42272036  0.25605697  1  0  0.096336  0  0.988441  0  0  0.102535  0  1.058489  0  0  0.105732  0  1.057097  0  0  0.092683  0.100198  0  1.059637  0
H  H17  1  0.86163322  0.92272431  0.25605584  1  0  0.096292  0  0.988455  0  0  0.102497  0  1.058502  0  0  0.105693  0  1.057113  0  0  0.092677  0.10016  0  1.059649  0
H  H18  1  0.36162391  0.57727942  0.74394658  1  0  0.096323  0  0.988419  0  0  0.102527  0  1.05846  0  0  0.105723  0  1.05707  0  0  0.092665  0.100191  0  1.059606  0
H  H19  1  0.13837438  0.07727789  0.74394659  1  0  0.09631  0  0.988462  0  0  0.102512  0  1.058511  0  0  0.105708  0  1.057123  0  0  0.092655  0.100175  0  1.059659  0
H  H20  1  0.40135033  0.66178792  0.24560903  1  0  0.097505  0  0.94321  0  0  0.111796  0  1.01109  0  0  0.113613  0  1.009164  0  0  0.105228  0.110401  0  1.012549  0
H  H21  1  0.09864614  0.16179265  0.24561162  1  0  0.097486  0  0.943109  0  0  0.111767  0  1.011002  0  0  0.113584  0  1.009076  0  0  0.105185  0.110371  0  1.012461  0
H  H22  1  0.59864440  0.33821186  0.75439054  1  0  0.097549  0  0.943165  0  0  0.111846  0  1.011023  0  0  0.113664  0  1.009098  0  0  0.105211  0.110447  0  1.012497  0
H  H23  1  0.90135431  0.83821199  0.75439036  1  0  0.097548  0  0.943201  0  0  0.111829  0  1.011086  0  0  0.113643  0  1.009168  0  0  0.10522  0.110436  0  1.01254  0
H  H24  1  0.28714175  0.79320041  0.33575649  1  0  0.074792  0  0.996801  0  0  0.090393  0  1.066297  0  0  0.089122  0  1.069543  0  0  0.09128  0.091172  0  1.064217  0
H  H25  1  0.21285488  0.29320463  0.33575822  1  0  0.074821  0  0.996763  0  0  0.090456  0  1.066203  0  0  0.089186  0  1.069445  0  0  0.091315  0.091234  0  1.064125  0
H  H26  1  0.71285870  0.20679816  0.66424232  1  0  0.074869  0  0.996726  0  0  0.090468  0  1.066201  0  0  0.089199  0  1.069444  0  0  0.091321  0.091247  0  1.064123  0
H  H27  1  0.78714128  0.70679880  0.66424299  1  0  0.074822  0  0.996748  0  0  0.090443  0  1.066212  0  0  0.089172  0  1.069456  0  0  0.091305  0.091218  0  1.064137  0
H  H28  1  0.54025426  0.75097216  0.33975633  1  0  0.077848  0  0.959166  0  0  0.096612  0  1.025496  0  0  0.095788  0  1.027024  0  0  0.094901  0.097076  0  1.024599  0
H  H29  1  0.95974312  0.25097649  0.33975974  1  0  0.077957  0  0.959045  0  0  0.096697  0  1.02541  0  0  0.095872  0  1.026937  0  0  0.094904  0.097161  0  1.024514  0
H  H30  1  0.45974476  0.24902641  0.66024181  1  0  0.077884  0  0.959112  0  0  0.096627  0  1.025474  0  0  0.095803  0  1.027002  0  0  0.094892  0.097093  0  1.024577  0
H  H31  1  0.04025447  0.74902572  0.66024203  1  0  0.077884  0  0.959112  0  0  0.096628  0  1.025472  0  0  0.095805  0  1.026999  0  0  0.094901  0.097093  0  1.024575  0
C  C32  1  0.55925579  0.17267785  0.24888828  1  0  -0.101919  0  3.709483  0  0  -0.085403  0  3.944811  0  0  -0.091971  0  3.962737  0  0  -0.020402  -0.081211  0  3.932966  0
C  C33  1  0.94074400  0.67268267  0.24888779  1  0  -0.10185  0  3.709605  0  0  -0.085379  0  3.944871  0  0  -0.091947  0  3.962801  0  0  -0.02038  -0.08119  0  3.933023  0
C  C34  1  0.44073465  0.82732193  0.75111129  1  0  -0.101873  0  3.709479  0  0  -0.085394  0  3.944746  0  0  -0.091963  0  3.962679  0  0  -0.020402  -0.081212  0  3.932895  0
C  C35  1  0.05926503  0.32732076  0.75111276  1  0  -0.101894  0  3.709424  0  0  -0.085389  0  3.944699  0  0  -0.091958  0  3.962627  0  0  -0.020398  -0.081197  0  3.932857  0
C  C36  1  0.49884385  0.04982979  0.29732032  1  0  0.246382  0  3.783958  0  0  0.237028  0  4.031806  0  0  0.248353  0  4.047549  0  0  0.086923  0.229226  0  4.021181  0
C  C37  1  0.00115724  0.54983414  0.29732234  1  0  0.246145  0  3.784038  0  0  0.236924  0  4.031717  0  0  0.248248  0  4.047454  0  0  0.086921  0.229122  0  4.02109  0
C  C38  1  0.50115374  0.95016877  0.70267782  1  0  0.246137  0  3.784107  0  0  0.236937  0  4.031771  0  0  0.248259  0  4.047507  0  0  0.086973  0.229136  0  4.021144  0
C  C39  1  0.99884750  0.45016807  0.70267943  1  0  0.246123  0  3.784172  0  0  0.236869  0  4.031887  0  0  0.248194  0  4.047627  0  0  0.086891  0.229068  0  4.021261  0
C  C40  1  0.47891725  0.08333465  0.39054635  1  0  -0.211344  0  3.783219  0  0  -0.226953  0  4.026835  0  0  -0.232837  0  4.047478  0  0  -0.113975  -0.222978  0  4.012896  0
C  C41  1  0.02108310  0.58334255  0.39054930  1  0  -0.211117  0  3.783197  0  0  -0.226781  0  4.026732  0  0  -0.232653  0  4.047382  0  0  -0.113945  -0.222805  0  4.012793  0
C  C42  1  0.52108034  0.91665662  0.60944985  1  0  -0.211044  0  3.783155  0  0  -0.226714  0  4.026695  0  0  -0.232584  0  4.047346  0  0  -0.113926  -0.222737  0  4.012756  0
C  C43  1  0.97891878  0.41665966  0.60945180  1  0  -0.211109  0  3.783178  0  0  -0.226759  0  4.026727  0  0  -0.232632  0  4.047379  0  0  -0.113929  -0.222782  0  4.012786  0
C  C44  1  0.52004035  0.23913505  0.43558787  1  0  -0.066659  0  3.832535  0  0  -0.080366  0  4.084426  0  0  -0.0798  0  4.104611  0  0  -0.101048  -0.08053  0  4.070622  0
C  C45  1  0.97995509  0.73914090  0.43558940  1  0  -0.06699  0  3.832264  0  0  -0.080672  0  4.084202  0  0  -0.080108  0  4.104381  0  0  -0.101183  -0.080835  0  4.0704  0
C  C46  1  0.47995152  0.76085865  0.56441185  1  0  -0.067102  0  3.832428  0  0  -0.080781  0  4.084356  0  0  -0.08021  0  4.104522  0  0  -0.101161  -0.080946  0  4.070558  0
C  C47  1  0.02005250  0.26085887  0.56441282  1  0  -0.066947  0  3.832461  0  0  -0.08066  0  4.084382  0  0  -0.080088  0  4.104557  0  0  -0.101137  -0.080824  0  4.070583  0
C  C48  1  0.57730784  0.36199297  0.38810597  1  0  -0.113939  0  3.812682  0  0  -0.129825  0  4.067423  0  0  -0.133396  0  4.088188  0  0  -0.113978  -0.127505  0  4.053431  0
C  C49  1  0.92269005  0.86200030  0.38810638  1  0  -0.113795  0  3.812293  0  0  -0.129648  0  4.067016  0  0  -0.133216  0  4.087776  0  0  -0.113931  -0.127327  0  4.053024  0
C  C50  1  0.42268260  0.63799951  0.61189364  1  0  -0.113785  0  3.812423  0  0  -0.129629  0  4.067128  0  0  -0.133197  0  4.087891  0  0  -0.113947  -0.127309  0  4.053135  0
C  C51  1  0.07731755  0.13800191  0.61189473  1  0  -0.113695  0  3.812441  0  0  -0.129531  0  4.067153  0  0  -0.133099  0  4.087913  0  0  -0.113893  -0.127212  0  4.053159  0
C  C52  1  0.59450897  0.32860372  0.29484014  1  0  -0.064553  0  3.725224  0  0  -0.084495  0  3.969974  0  0  -0.082176  0  3.986659  0  0  -0.088079  -0.085972  0  3.958936  0
C  C53  1  0.90549109  0.82860626  0.29483884  1  0  -0.064494  0  3.725192  0  0  -0.084444  0  3.969933  0  0  -0.082125  0  3.986619  0  0  -0.088071  -0.085919  0  3.958894  0
C  C54  1  0.40548147  0.67139484  0.70516197  1  0  -0.064543  0  3.725123  0  0  -0.084505  0  3.969895  0  0  -0.082183  0  3.986572  0  0  -0.088041  -0.085982  0  3.958861  0
C  C55  1  0.09451937  0.17139230  0.70516196  1  0  -0.064574  0  3.725131  0  0  -0.084533  0  3.969872  0  0  -0.082213  0  3.986556  0  0  -0.088027  -0.086007  0  3.958834  0
C  C56  1  0.57907087  0.13746008  0.14847409  1  0  0.451262  0  3.85325  0  0  0.43168  0  4.139971  0  0  0.460062  0  4.137144  0  0  0.110397  0.412398  0  4.141304  0
C  C57  1  0.92093257  0.63746377  0.14847418  1  0  0.451008  0  3.853525  0  0  0.431533  0  4.140026  0  0  0.459911  0  4.137209  0  0  0.110365  0.412264  0  4.141336  0
C  C58  1  0.42092815  0.86254092  0.85152625  1  0  0.451226  0  3.853364  0  0  0.431662  0  4.140045  0  0  0.460042  0  4.137222  0  0  0.110397  0.412419  0  4.141313  0
C  C59  1  0.07907217  0.36253844  0.85152759  1  0  0.451325  0  3.853197  0  0  0.431775  0  4.139853  0  0  0.460159  0  4.137022  0  0  0.11042  0.412492  0  4.141186  0
C  C60  1  0.41868648  0.76971493  0.29631014  1  0  -0.079373  0  3.626025  0  0  -0.17786  0  3.891144  0  0  -0.170737  0  3.895457  0  0  -0.148253  -0.182486  0  3.888187  0
C  C61  1  0.08130908  0.26971853  0.29631264  1  0  -0.079514  0  3.625839  0  0  -0.178018  0  3.890986  0  0  -0.170893  0  3.895296  0  0  -0.148225  -0.182645  0  3.888027  0
C  C62  1  0.58130968  0.23028606  0.70368756  1  0  -0.079554  0  3.625972  0  0  -0.178046  0  3.89116  0  0  -0.170927  0  3.895467  0  0  -0.14823  -0.182675  0  3.888198  0
C  C63  1  0.91868994  0.73028490  0.70368857  1  0  -0.079498  0  3.625969  0  0  -0.17799  0  3.891094  0  0  -0.170867  0  3.895403  0  0  -0.14825  -0.182613  0  3.888138  0
S  S64  1  0.78763528  0.04782523  0.10628336  1  0  -0.619684  0  1.850434  0  0  -0.606629  0  2.164139  0  0  -0.625815  0  2.155553  0  0  -0.280553  -0.593034  0  2.169879  0
S  S65  1  0.71236892  0.54783228  0.10628269  1  0  -0.619595  0  1.850482  0  0  -0.606579  0  2.164131  0  0  -0.625763  0  2.155548  0  0  -0.28053  -0.592987  0  2.169861  0
S  S66  1  0.21236231  0.95217333  0.89371677  1  0  -0.619672  0  1.850477  0  0  -0.606626  0  2.164187  0  0  -0.625809  0  2.155602  0  0  -0.280542  -0.593044  0  2.169903  0
S  S67  1  0.28763581  0.45217723  0.89371705  1  0  -0.619707  0  1.850408  0  0  -0.606678  0  2.164128  0  0  -0.625864  0  2.155539  0  0  -0.280548  -0.593079  0  2.169869  0
O  O68  1  0.43995769  0.17188166  0.10180775  1  0  -0.648506  0  2.013789  0  0  -0.593082  0  2.248487  0  0  -0.614128  0  2.240025  0  0  -0.456008  -0.578244  0  2.253902  0
O  O69  1  0.06004673  0.67188696  0.10180779  1  0  -0.64839  0  2.013871  0  0  -0.593001  0  2.248517  0  0  -0.614045  0  2.240061  0  0  -0.455991  -0.578169  0  2.253926  0
O  O70  1  0.56004276  0.82812299  0.89819091  1  0  -0.64851  0  2.013837  0  0  -0.59309  0  2.248521  0  0  -0.614136  0  2.240062  0  0  -0.456012  -0.578268  0  2.253917  0
O  O71  1  0.93996087  0.32811525  0.89819199  1  0  -0.648511  0  2.013771  0  0  -0.593107  0  2.248465  0  0  -0.614152  0  2.240002  0  0  -0.456009  -0.578268  0  2.253883  0
O  O72  1  0.45914071  0.90139382  0.24779527  1  0  -0.294027  0  2.392915  0  0  -0.214982  0  2.635493  0  0  -0.233525  0  2.639628  0  0  -0.237567  -0.201928  0  2.632241  0
O  O73  1  0.04085440  0.40139638  0.24779841  1  0  -0.29388  0  2.392926  0  0  -0.214877  0  2.635462  0  0  -0.233415  0  2.639591  0  0  -0.237577  -0.201821  0  2.632207  0
O  O74  1  0.54085402  0.09860475  0.75220023  1  0  -0.293863  0  2.393004  0  0  -0.214879  0  2.635539  0  0  -0.233408  0  2.639663  0  0  -0.237611  -0.201824  0  2.632285  0
O  O75  1  0.95914319  0.59860462  0.75220260  1  0  -0.293906  0  2.392982  0  0  -0.214894  0  2.635528  0  0  -0.233433  0  2.63966  0  0  -0.237569  -0.201839  0  2.632272  0
