# generated using pymatgen
data_Zn6H60C58(N4O11)3
_symmetry_space_group_name_H-M   'P 1'
_cell_length_a   18.78287826
_cell_length_b   18.55361753
_cell_length_c   18.51993150
_cell_angle_alpha   108.65284742
_cell_angle_beta   109.47546486
_cell_angle_gamma   110.06961638
_symmetry_Int_Tables_number   1
_chemical_formula_structural   Zn6H60C58(N4O11)3
_chemical_formula_sum   'Zn6 H60 C58 N12 O33'
_cell_volume   4980.91262977
_cell_formula_units_Z   1
loop_
 _symmetry_equiv_pos_site_id
 _symmetry_equiv_pos_as_xyz
  1  'x, y, z'
loop_
 _atom_site_type_symbol
 _atom_site_label
 _atom_site_symmetry_multiplicity
 _atom_site_fract_x
 _atom_site_fract_y
 _atom_site_fract_z
 _atom_site_occupancy
 _atom_site_pbe_bader_charge
 _atom_site_pbe_bader_spin_density
 _atom_site_pbe_cm5_charge
 _atom_site_pbe_ddec_charge
 _atom_site_pbe_ddec_spin_density
 _atom_site_pbe_ddec_sum_bond_order
 _atom_site_pbe_magmom
Zn  Zn0  1  0.95121196  0.51764675  0.94085928  1  1.316928  0  0.731608  0.962763  0  2.139951  0
Zn  Zn1  1  0.07156592  0.51793564  0.06821769  1  1.312135  0  0.722291  0.962098  0  2.146872  0
Zn  Zn2  1  0.49954087  0.05455966  0.04441873  1  1.309876  0  0.71854  0.943049  0  2.181282  0
Zn  Zn3  1  0.50557212  0.93421271  0.92353078  1  1.303985  0  0.718942  0.938002  0  2.177017  0
Zn  Zn4  1  0.93122503  0.94772014  0.50451170  1  1.305826  0  0.730473  0.953485  0  2.124325  0
Zn  Zn5  1  0.06283743  0.06754345  0.50552352  1  1.31632  0  0.73255  0.967246  0  2.126029  0
H  H6  1  0.75696832  0.22309372  0.10783384  1  0.063881  0  0.098844  0.114401  0  1.03369  0
H  H7  1  0.12129322  0.72059427  0.17245290  1  0.422864  0  0.290358  0.23003  0  1.008592  0
H  H8  1  0.20230259  0.75685017  0.32743284  1  0.013799  0  0.080903  0.076835  0  1.002717  0
H  H9  1  0.24060156  0.86901962  0.35227242  1  0.068279  0  0.097958  0.113861  0  1.017863  0
H  H10  1  0.26426115  0.80203201  0.28192615  1  0.048452  0  0.099349  0.108694  0  0.984609  0
H  H11  1  0.13307846  0.96031901  0.37644267  1  0.635845  0  0.306468  0.352069  0  0.966721  0
H  H12  1  0.86282200  0.78261017  0.31612168  1  0.635489  0  0.307191  0.361591  0  0.958215  0
H  H13  1  0.78081823  0.60813571  0.14966618  1  0.447123  0  0.305027  0.252185  0  0.971743  0
H  H14  1  0.86070226  0.50728712  0.12579885  1  0.045514  0  0.092446  0.09983  0  1.00205  0
H  H15  1  0.79863088  0.49162173  0.01967408  1  0.067005  0  0.089777  0.102214  0  1.011843  0
H  H16  1  0.74681266  0.46813675  0.08041132  1  0.056505  0  0.104473  0.109901  0  0.979608  0
H  H17  1  0.71638238  0.00596508  0.38832589  1  0.098717  0  0.110143  0.140078  0  0.985836  0
H  H18  1  0.71188058  0.00588316  0.07568614  1  0.469837  0  0.299166  0.253468  0  1.00969  0
H  H19  1  0.79736864  0.91394113  0.08589866  1  0.030008  0  0.095726  0.098664  0  0.985655  0
H  H20  1  0.88404337  0.02248273  0.13198672  1  0.043872  0  0.099405  0.110247  0  1.000902  0
H  H21  1  0.79323906  0.97127383  0.02484301  1  0.046754  0  0.103747  0.106165  0  0.983229  0
H  H22  1  0.93028682  0.03411119  0.32107405  1  0.635772  0  0.305063  0.351045  0  0.974827  0
H  H23  1  0.34823828  0.69083750  0.90002685  1  0.469268  0  0.321749  0.263103  0  0.934606  0
H  H24  1  0.22008640  0.55868152  0.82361559  1  0.056237  0  0.109135  0.121506  0  0.972023  0
H  H25  1  0.16237629  0.61734592  0.83112247  1  0.049459  0  0.102769  0.109643  0  0.993707  0
H  H26  1  0.20671499  0.59582887  0.91734385  1  0.065322  0  0.093489  0.099022  0  1.025981  0
H  H27  1  0.58343964  0.05222050  0.24442470  1  0.628359  0  0.307642  0.356531  0  0.954835  0
H  H28  1  0.04679981  0.31374097  0.62773459  1  0.108634  0  0.10854  0.138353  0  0.990373  0
H  H29  1  0.30987586  0.86543749  0.77607385  1  0.472261  0  0.293435  0.246512  0  1.024069  0
H  H30  1  0.20972289  0.72980551  0.73143589  1  0.035642  0  0.097791  0.104793  0  0.992452  0
H  H31  1  0.13494179  0.72378481  0.63659597  1  0.050013  0  0.092438  0.095612  0  1.027214  0
H  H32  1  0.13922564  0.77262378  0.73865320  1  0.033261  0  0.092534  0.099152  0  0.994022  0
H  H33  1  0.04404659  0.82917458  0.57591802  1  0.420281  0  0.290135  0.237244  0  0.982877  0
H  H34  1  0.07744965  0.74260415  0.48228617  1  0.052995  0  0.097322  0.103319  0  0.98783  0
H  H35  1  0.18800233  0.80106876  0.56866881  1  0.073583  0  0.097022  0.103117  0  1.015679  0
H  H36  1  0.14766787  0.85488571  0.51584863  1  0.010024  0  0.08172  0.08301  0  1.002583  0
H  H37  1  0.24267313  0.18879973  0.76896053  1  0.392307  0  0.292216  0.232583  0  0.961657  0
H  H38  1  0.24663156  0.20850174  0.91873458  1  0.000529  0  0.078445  0.06853  0  1.028967  0
H  H39  1  0.26855988  0.91675404  0.00613241  1  0.597973  0  0.335085  0.367108  0  0.863973  0
H  H40  1  0.13238797  0.13515615  0.84519085  1  0.064399  0  0.096858  0.109327  0  0.999412  0
H  H41  1  0.18282848  0.23875560  0.85167519  1  0.029178  0  0.095775  0.103608  0  1.000677  0
H  H42  1  0.34591151  0.21297617  0.88702019  1  0.418329  0  0.303326  0.231874  0  0.991794  0
H  H43  1  0.46975462  0.15615845  0.88792758  1  0.052594  0  0.096211  0.098484  0  1.02758  0
H  H44  1  0.48749177  0.20809950  0.99578484  1  0.068527  0  0.093514  0.105993  0  1.005893  0
H  H45  1  0.48858623  0.26526021  0.93436525  1  0.024243  0  0.101741  0.103674  0  0.98118  0
H  H46  1  0.11913217  0.79798374  0.93769927  1  0.450065  0  0.310085  0.247031  0  0.965187  0
H  H47  1  0.02901223  0.72828807  0.01251045  1  0.072794  0  0.092271  0.11077  0  1.01065  0
H  H48  1  0.07920961  0.84117231  0.03934920  1  0.030851  0  0.101148  0.104808  0  0.977887  0
H  H49  1  0.13686453  0.80363776  0.10152801  1  0.106806  0  0.098216  0.102075  0  1.047002  0
H  H50  1  0.63773573  0.13372291  0.76537619  1  0.452892  0  0.308644  0.255831  0  0.971428  0
H  H51  1  0.29642627  0.68785189  0.10217321  1  0.619696  0  0.319472  0.359306  0  0.904663  0
H  H52  1  0.00376024  0.31534451  0.92179810  1  0.471723  0  0.297902  0.246365  0  1.013222  0
H  H53  1  0.07361587  0.21124265  0.92497022  1  0.02491  0  0.093252  0.094061  0  1.005526  0
H  H54  1  0.96021052  0.13162826  0.85870727  1  0.085275  0  0.103356  0.116915  0  0.997369  0
H  H55  1  0.00081190  0.21692681  0.96555346  1  0.045922  0  0.103842  0.107646  0  0.983174  0
H  H56  1  0.97918294  0.08960141  0.68654564  1  0.644258  0  0.308438  0.354935  0  0.972429  0
H  H57  1  0.99330225  0.45195603  0.75467483  1  0.628718  0  0.311612  0.358509  0  0.938025  0
H  H58  1  0.96097493  0.39768028  0.15588350  1  0.472458  0  0.300829  0.256537  0  0.998731  0
H  H59  1  0.96680189  0.41157168  0.28671746  1  0.039863  0  0.107666  0.111852  0  0.978053  0
H  H60  1  0.90382805  0.29404455  0.22678907  1  0.024487  0  0.093809  0.093195  0  0.987815  0
H  H61  1  0.51065352  0.08284707  0.81590444  1  0.021632  0  0.089269  0.088783  0  1.03343  0
H  H62  1  0.85100965  0.35737365  0.23519686  1  0.051378  0  0.098931  0.100891  0  0.984422  0
H  H63  1  0.52078561  0.98983696  0.77007188  1  0.061769  0  0.091772  0.103273  0  1.008337  0
H  H64  1  0.49532375  0.04229488  0.70777845  1  0.057241  0  0.105727  0.109721  0  0.977869  0
H  H65  1  0.80338633  0.30990297  0.85743647  1  0.652096  0  0.30905  0.36744  0  0.947568  0
C  C66  1  0.00547160  0.41432759  0.86562557  1  1.467231  0  0.218222  0.628525  0  4.120283  0
C  C67  1  0.69003667  0.16891287  0.89255537  1  0.45128  0  0.079043  0.081998  0  4.066137  0
C  C68  1  0.76222944  0.24345341  0.90838289  1  0.520966  0  0.084007  0.228376  0  4.041196  0
C  C69  1  0.15105827  0.64681821  0.04215762  1  1.366649  0  0.168589  0.483142  0  4.276702  0
C  C70  1  0.83569774  0.30566726  0.99304578  1  0.015207  0  -0.052208  -0.292253  0  3.989427  0
C  C71  1  0.06123408  0.76676659  0.22929525  1  0.415344  0  0.072468  0.084251  0  4.032757  0
C  C72  1  0.06655902  0.83874440  0.29168187  1  0.535832  0  0.070865  0.212059  0  4.065382  0
C  C73  1  0.99375159  0.82841379  0.30446468  1  0.029573  0  -0.059379  -0.315738  0  4.073472  0
C  C74  1  0.91383974  0.74724469  0.24918062  1  0.506901  0  0.071304  0.211557  0  4.063222  0
C  C75  1  0.90345099  0.67759029  0.17849341  1  0.452271  0  0.077082  0.09338  0  4.092  0
C  C76  1  0.97796920  0.68837034  0.17018008  1  0.036742  0  -0.029539  -0.199782  0  3.939606  0
C  C77  1  0.00351750  0.20637560  0.74231933  1  0.536568  0  0.076845  0.189743  0  4.023165  0
C  C78  1  0.61756027  0.02202214  0.13209271  1  1.444858  0  0.217717  0.628533  0  4.104865  0
C  C79  1  0.38455345  0.84571070  0.94941011  1  1.53631  0  0.218313  0.58363  0  4.137824  0
C  C80  1  0.37946159  0.01387938  0.88945594  1  1.458742  0  0.212879  0.614717  0  4.119425  0
C  C81  1  0.97353076  0.61679511  0.09943175  1  1.497857  0  0.226312  0.634063  0  4.114964  0
C  C82  1  0.62029474  0.09368962  0.96410288  1  1.492656  0  0.220683  0.618201  0  4.109512  0
C  C83  1  0.85992009  0.99745929  0.39518494  1  1.464792  0  0.224069  0.624258  0  4.086832  0
C  C84  1  0.03203160  0.15952645  0.61880826  1  1.465608  0  0.221176  0.621304  0  4.093144  0
C  C85  1  0.08745365  0.98465664  0.62331383  1  1.538441  0  0.235062  0.65227  0  4.099361  0
C  C86  1  0.00175724  0.89942591  0.37602924  1  1.443928  0  0.219321  0.63197  0  4.095348  0
C  C87  1  0.75455247  0.01525787  0.19365107  1  0.481589  0  0.102381  0.147543  0  4.034576  0
C  C88  1  0.02527728  0.22538345  0.68193496  1  0.011857  0  -0.038696  -0.151837  0  4.058292  0
C  C89  1  0.81699211  0.01636509  0.26384776  1  0.521162  0  0.071789  0.181394  0  4.029774  0
C  C90  1  0.79912872  0.00701243  0.32958980  1  -0.033903  0  -0.037703  -0.147666  0  4.070806  0
C  C91  1  0.72719655  0.01000716  0.33522843  1  0.086198  0  -0.123044  -0.252096  0  4.006501  0
C  C92  1  0.67374657  0.02427573  0.27573688  1  0.482665  0  0.076721  0.307142  0  4.114759  0
C  C93  1  0.90770422  0.37880687  0.00216867  1  1.458038  0  0.217983  0.621554  0  4.111431  0
C  C94  1  0.68363133  0.02185849  0.20190334  1  0.047015  0  -0.049279  -0.288904  0  3.961613  0
C  C95  1  0.24045516  0.92244156  0.74466631  1  0.432054  0  0.105105  0.157889  0  4.006412  0
C  C96  1  0.16459239  0.91362257  0.68200226  1  0.408857  0  0.066422  0.082461  0  4.034388  0
C  C97  1  0.15633727  0.98869288  0.69693141  1  0.001103  0  -0.022632  -0.176115  0  4.005967  0
C  C98  1  0.21907754  0.07206624  0.77035559  1  0.36618  0  0.055955  0.069091  0  4.043863  0
C  C99  1  0.03405085  0.30215591  0.67730113  1  0.024105  0  -0.124505  -0.255003  0  4.016191  0
C  C100  1  0.29803796  0.08330454  0.82998920  1  0.462759  0  0.098879  0.146803  0  4.069307  0
C  C101  1  0.30699430  0.00781734  0.81955913  1  0.010347  0  -0.045198  -0.253454  0  3.936208  0
C  C102  1  0.25208385  0.79785956  0.96279235  1  0.492373  0  0.046691  0.104184  0  4.017672  0
C  C103  1  0.30741645  0.77505522  0.93976096  1  0.49571  0  0.092118  0.004294  0  4.015378  0
C  C104  1  0.19560582  0.75623998  0.99145967  1  0.487543  0  0.090398  0.076009  0  4.099381  0
C  C105  1  0.21482864  0.71170697  0.03731682  1  0.517476  0  0.028982  0.005403  0  4.048812  0
C  C106  1  0.00343596  0.27125231  0.80882700  1  0.449662  0  0.102275  0.144357  0  4.032861  0
C  C107  1  0.53414137  0.05378595  0.77378601  1  0.291108  0  -0.139433  -0.203082  0  3.997189  0
C  C108  1  0.21473373  0.80247208  0.30071173  1  0.259188  0  -0.148096  -0.218363  0  3.971305  0
C  C109  1  0.80675322  0.51344455  0.08591459  1  0.249794  0  -0.144603  -0.212295  0  3.982736  0
C  C110  1  0.01889350  0.35864121  0.73190062  1  0.478354  0  0.071085  0.295889  0  4.126513  0
C  C111  1  0.81313415  0.97886563  0.09085230  1  0.326565  0  -0.138751  -0.208226  0  3.97988  0
C  C112  1  0.21815493  0.61234155  0.86861954  1  0.303998  0  -0.132743  -0.221901  0  3.988709  0
C  C113  1  0.17907145  0.76459861  0.70792993  1  0.298268  0  -0.14309  -0.212986  0  3.988891  0
C  C114  1  0.13035136  0.80695064  0.53922568  1  0.23495  0  -0.1481  -0.217518  0  3.988212  0
C  C115  1  0.19212956  0.18382631  0.85316674  1  0.268173  0  -0.153383  -0.224541  0  4.021797  0
C  C116  1  0.45675101  0.20094526  0.93011123  1  0.28367  0  -0.139325  -0.203628  0  3.980041  0
C  C117  1  0.09078437  0.78617666  0.03518141  1  0.250795  0  -0.144034  -0.212158  0  3.96536  0
C  C118  1  0.00740007  0.20116147  0.90659695  1  0.292975  0  -0.138687  -0.209635  0  3.974277  0
C  C119  1  0.90625614  0.35490401  0.22821632  1  0.324909  0  -0.131988  -0.201578  0  4.017867  0
C  C120  1  0.00854898  0.34649417  0.80050563  1  0.046453  0  -0.049194  -0.282931  0  3.974714  0
C  C121  1  0.83574482  0.29841512  0.06803172  1  0.449484  0  0.09016  0.226641  0  4.114501  0
C  C122  1  0.76133225  0.22973600  0.05300369  1  -0.002882  0  -0.127747  -0.26248  0  4.021569  0
C  C123  1  0.69110052  0.16501004  0.96760542  1  0.012009  0  -0.028991  -0.098342  0  4.005005  0
N  N124  1  0.62543212  0.11147292  0.80565700  1  -1.187274  0  -0.451201  -0.279705  0  3.594251  0
N  N125  1  0.12656130  0.77070680  0.97724031  1  -1.182935  0  -0.435041  -0.2435  0  3.627013  0
N  N126  1  0.99098879  0.25898671  0.87396390  1  -1.198372  0  -0.446571  -0.266819  0  3.54865  0
N  N127  1  0.90408604  0.36045764  0.15163801  1  -1.242099  0  -0.456955  -0.305722  0  3.621992  0
N  N128  1  0.13597233  0.77657552  0.22245466  1  -1.108809  0  -0.466323  -0.299734  0  3.493422  0
N  N129  1  0.82137506  0.60233463  0.12613154  1  -1.158103  0  -0.455709  -0.288067  0  3.557621  0
N  N130  1  0.76570656  0.01504907  0.12401273  1  -1.188938  0  -0.44646  -0.274511  0  3.549264  0
N  N131  1  0.29849100  0.69378320  0.90840025  1  -1.195019  0  -0.418364  -0.207798  0  3.66534  0
N  N132  1  0.24929610  0.84935620  0.73275091  1  -1.19104  0  -0.454241  -0.29139  0  3.56603  0
N  N133  1  0.10245364  0.83217855  0.60376085  1  -1.129756  0  -0.472989  -0.327819  0  3.504246  0
N  N134  1  0.20366781  0.14382769  0.77902222  1  -1.111978  0  -0.480443  -0.346607  0  3.555807  0
N  N135  1  0.36361769  0.16848689  0.89312168  1  -1.178153  0  -0.447689  -0.273052  0  3.603515  0
O  O136  1  0.96106893  0.45021939  0.83926447  1  -1.144505  0  -0.315712  -0.549133  0  2.216995  0
O  O137  1  0.94024009  0.03339289  0.41283852  1  -1.186673  0  -0.315883  -0.596166  0  2.408445  0
O  O138  1  0.98867556  0.07896861  0.60045840  1  -1.19117  0  -0.315749  -0.601659  0  2.432811  0
O  O139  1  0.04658129  0.43483756  0.94593270  1  -1.180512  0  -0.311135  -0.570078  0  2.38084  0
O  O140  1  0.07899982  0.18072230  0.58387387  1  -1.12455  0  -0.313286  -0.518485  0  2.180366  0
O  O141  1  0.00573247  0.93349959  0.59509099  1  -1.128241  0  -0.316871  -0.540253  0  2.220901  0
O  O142  1  0.11497535  0.02952044  0.58945562  1  -1.17044  0  -0.310397  -0.566337  0  2.365507  0
O  O143  1  0.94548905  0.88013078  0.40199168  1  -1.18458  0  -0.312753  -0.580995  0  2.361997  0
O  O144  1  0.06495651  0.97963932  0.41168377  1  -1.153342  0  -0.31052  -0.540355  0  2.278421  0
O  O145  1  0.06948911  0.62121014  0.99803967  1  -1.191991  0  -0.335896  -0.590631  0  2.502724  0
O  O146  1  0.17849535  0.61285110  0.09072023  1  -1.138963  0  -0.349902  -0.574221  0  2.223379  0
O  O147  1  0.59938856  0.98042094  0.05281139  1  -1.185757  0  -0.310878  -0.571815  0  2.377065  0
O  O148  1  0.92197660  0.58967696  0.01835348  1  -1.124715  0  -0.306988  -0.525883  0  2.232673  0
O  O149  1  0.02546684  0.58917314  0.12509912  1  -1.176668  0  -0.318575  -0.582836  0  2.36695  0
O  O150  1  0.88895019  0.40374160  0.94391941  1  -1.179189  0  -0.318109  -0.598041  0  2.386126  0
O  O151  1  0.98649165  0.41536936  0.06561112  1  -1.157454  0  -0.311439  -0.53347  0  2.259688  0
O  O152  1  0.57856604  0.06484236  0.15304207  1  -1.138464  0  -0.315581  -0.541391  0  2.255913  0
O  O153  1  0.24523495  0.86613095  0.94960033  1  -1.104389  0  -0.369455  -0.462693  0  2.304686  0
O  O154  1  0.75588203  0.24973487  0.83559460  1  -1.162661  0  -0.3579  -0.451769  0  2.296038  0
O  O155  1  0.14317870  0.91708847  0.33976789  1  -1.141071  0  -0.356574  -0.436176  0  2.307902  0
O  O156  1  0.84243250  0.73147160  0.25964574  1  -1.153913  0  -0.366151  -0.456834  0  2.286642  0
O  O157  1  0.89198550  0.02559784  0.26329756  1  -1.146815  0  -0.35877  -0.436826  0  2.314062  0
O  O158  1  0.41658460  0.92394275  0.00738316  1  -1.176843  0  -0.309105  -0.562149  0  2.394174  0
O  O159  1  0.61008756  0.03588211  0.28775575  1  -1.136543  0  -0.369011  -0.452213  0  2.239811  0
O  O160  1  0.29930229  0.72691039  0.07661871  1  -1.119387  0  -0.371008  -0.438055  0  2.302724  0
O  O161  1  0.98303278  0.12817192  0.74120260  1  -1.149021  0  -0.351414  -0.431767  0  2.329225  0
O  O162  1  0.01862475  0.42817770  0.72115627  1  -1.143195  0  -0.367445  -0.456203  0  2.247596  0
O  O163  1  0.41722114  0.82266979  0.90021228  1  -1.139365  0  -0.327855  -0.545216  0  2.212216  0
O  O164  1  0.40554707  0.06419390  0.97089707  1  -1.128409  0  -0.316882  -0.525181  0  2.26476  0
O  O165  1  0.41286974  0.96643358  0.86727360  1  -1.183134  0  -0.318663  -0.594396  0  2.381629  0
O  O166  1  0.59117607  0.11666292  0.01527240  1  -1.1623  0  -0.317033  -0.576744  0  2.336381  0
O  O167  1  0.59540460  0.01304094  0.91267693  1  -1.12895  0  -0.31485  -0.525995  0  2.265396  0
O  O168  1  0.83283793  0.95337486  0.43108399  1  -1.12571  0  -0.311404  -0.511392  0  2.204075  0
