# generated using pymatgen
data_Tb2Cu3H24(C4O5)6
_symmetry_space_group_name_H-M   'P 1'
_cell_length_a   13.07510944
_cell_length_b   13.06528964
_cell_length_c   16.20519453
_cell_angle_alpha   89.99981599
_cell_angle_beta   90.00014739
_cell_angle_gamma   120.02762842
_symmetry_Int_Tables_number   1
_chemical_formula_structural   Tb2Cu3H24(C4O5)6
_chemical_formula_sum   'Tb4 Cu6 H48 C48 O60'
_cell_volume   2396.78059183
_cell_formula_units_Z   2
loop_
 _symmetry_equiv_pos_site_id
 _symmetry_equiv_pos_as_xyz
  1  'x, y, z'
loop_
 _atom_site_type_symbol
 _atom_site_label
 _atom_site_symmetry_multiplicity
 _atom_site_fract_x
 _atom_site_fract_y
 _atom_site_fract_z
 _atom_site_occupancy
 _atom_site_pbe_bader_charge
 _atom_site_pbe_bader_spin_density
 _atom_site_pbe_cm5_charge
 _atom_site_pbe_ddec_charge
 _atom_site_pbe_ddec_spin_density
 _atom_site_pbe_ddec_sum_bond_order
 _atom_site_pbe_magmom
Tb  Tb0  1  0.33336249  0.66672766  0.74999569  1  2.205341  -0.000657  1.526566  1.967125  -0.001241  2.281417  -0.001
Tb  Tb1  1  0.66663819  0.33328338  0.75001660  1  2.205475  -0.000657  1.526597  1.96712  -0.001241  2.281445  -0.001
Tb  Tb2  1  0.66665410  0.33328716  0.25000471  1  2.205593  -0.000657  1.526626  1.967017  -0.001241  2.281623  -0.001
Tb  Tb3  1  0.33335154  0.66671224  0.25000169  1  2.205413  -0.000657  1.526647  1.967115  -0.001241  2.281364  -0.001
Cu  Cu4  1  0.99999859  0.49999861  0.50000618  1  1.116422  0.581149  0.733088  0.949035  0.738612  2.005277  0.584
Cu  Cu5  1  0.50001331  0.00000551  0.50000646  1  1.112882  0.58108  0.733127  0.949168  0.738579  2.004409  0.584
Cu  Cu6  1  0.49998914  0.49998979  0.49999125  1  1.115079  0.580837  0.732504  0.948386  0.738225  2.001995  0.583
Cu  Cu7  1  0.49999361  0.49999710  0.00000034  1  1.115429  0.581072  0.733018  0.948915  0.738608  2.005403  0.583
Cu  Cu8  1  0.49999690  0.99999851  0.00000796  1  1.116181  0.581141  0.733206  0.949284  0.738589  2.004443  0.584
Cu  Cu9  1  0.00000135  0.50001613  0.99999377  1  1.112118  0.58085  0.732527  0.948394  0.73821  2.001925  0.583
H  H10  1  0.19095122  0.84250445  0.64358959  1  0.091295  9.7e-05  0.118573  0.113269  -1.1e-05  0.958291  0.0
H  H11  1  0.06521798  0.75507601  0.70835801  1  0.05686  -0.000166  0.106127  0.083142  -0.00021  1.010474  0.0
H  H12  1  0.65141301  0.80904114  0.64358879  1  0.108724  9.8e-05  0.118586  0.113233  -1.2e-05  0.958672  0.0
H  H13  1  0.68994292  0.93491759  0.70829918  1  0.050658  -0.000167  0.106035  0.082963  -0.00021  1.010222  0.0
H  H14  1  0.15759137  0.34843493  0.64359438  1  0.114004  9.8e-05  0.11865  0.11324  -1.2e-05  0.958387  0.0
H  H15  1  0.24487518  0.31000310  0.70835637  1  0.056609  -0.000168  0.106088  0.083132  -0.00021  1.009704  0.0
H  H16  1  0.80901547  0.15751159  0.64360453  1  0.091835  9.7e-05  0.118619  0.113349  -1.1e-05  0.958253  0.0
H  H17  1  0.93477585  0.24491774  0.70835506  1  0.05698  -0.000165  0.106114  0.08317  -0.00021  1.01049  0.0
H  H18  1  0.34859811  0.19094256  0.64359483  1  0.108922  9.8e-05  0.118476  0.113046  -1.2e-05  0.958629  0.0
H  H19  1  0.31007515  0.06506782  0.70830714  1  0.050516  -0.000167  0.106062  0.083054  -0.00021  1.009894  0.0
H  H20  1  0.84240006  0.65149859  0.64358740  1  0.113513  9.9e-05  0.118658  0.113314  -1.1e-05  0.958457  0.0
H  H21  1  0.75515405  0.69002117  0.70831598  1  0.056786  -0.000168  0.10606  0.083131  -0.00021  1.009712  0.0
H  H22  1  0.34843526  0.15748592  0.85641402  1  0.113462  9.8e-05  0.118563  0.113247  -1.1e-05  0.958183  0.0
H  H23  1  0.31013510  0.24491063  0.79164704  1  0.058361  -0.000167  0.106124  0.083083  -0.00021  1.010518  0.0
H  H24  1  0.84235075  0.19090782  0.85641981  1  0.093999  9.5e-05  0.118593  0.113226  -1.2e-05  0.95851  0.0
H  H25  1  0.75496821  0.06506972  0.79168326  1  0.051878  -0.000164  0.106135  0.083055  -0.00021  1.009992  0.0
H  H26  1  0.80916252  0.65158637  0.85641055  1  0.108799  0.0001  0.118671  0.11314  -1.1e-05  0.958433  0.0
H  H27  1  0.93486689  0.69000080  0.79163624  1  0.051535  -0.000168  0.10609  0.083084  -0.00021  1.00979  0.0
H  H28  1  0.65154215  0.84249414  0.85641213  1  0.113614  9.8e-05  0.118554  0.113333  -1.1e-05  0.958206  0.0
H  H29  1  0.68985807  0.75507738  0.79165028  1  0.058418  -0.000167  0.106093  0.083108  -0.00021  1.010516  0.0
H  H30  1  0.15762671  0.80901804  0.85641498  1  0.093145  9.6e-05  0.118583  0.113294  -1.2e-05  0.958749  0.0
H  H31  1  0.24497874  0.93491325  0.79171525  1  0.056716  -0.000166  0.106064  0.08298  -0.00021  1.010239  0.0
H  H32  1  0.19087295  0.34848807  0.85641314  1  0.109215  0.0001  0.118608  0.113226  -1.1e-05  0.958576  0.0
H  H33  1  0.06512888  0.30999072  0.79165861  1  0.051631  -0.000168  0.106108  0.083188  -0.00021  1.009683  0.0
H  H34  1  0.80908228  0.15751060  0.35640032  1  0.091726  9.6e-05  0.118594  0.1133  -1.2e-05  0.958172  0.0
H  H35  1  0.93480842  0.24495942  0.29163066  1  0.057436  -0.000166  0.106073  0.083098  -0.00021  1.010353  0.0
H  H36  1  0.34859010  0.19094758  0.35641593  1  0.108785  9.8e-05  0.118552  0.113169  -1.2e-05  0.958618  0.0
H  H37  1  0.31009877  0.06508354  0.29169813  1  0.050853  -0.000168  0.106068  0.082946  -0.00021  1.010119  0.0
H  H38  1  0.84239541  0.65159060  0.35640170  1  0.11398  9.8e-05  0.118698  0.113176  -1.1e-05  0.958443  0.0
H  H39  1  0.75510418  0.68999801  0.29162984  1  0.055878  -0.000168  0.106062  0.083082  -0.00021  1.009519  0.0
H  H40  1  0.19092382  0.84248005  0.35640451  1  0.091788  9.7e-05  0.118587  0.113336  -1.2e-05  0.958155  0.0
H  H41  1  0.06519577  0.75503819  0.29163731  1  0.057533  -0.000166  0.106095  0.08318  -0.00021  1.010302  0.0
H  H42  1  0.65143700  0.80908747  0.35640989  1  0.10901  9.7e-05  0.118492  0.113135  -1.2e-05  0.958423  0.0
H  H43  1  0.68989753  0.93492920  0.29167721  1  0.063067  -0.000172  0.106142  0.083131  -0.00021  1.009939  0.0
H  H44  1  0.15759523  0.34839240  0.35638647  1  0.113997  9.8e-05  0.118691  0.113222  -1.1e-05  0.958243  0.0
H  H45  1  0.24489289  0.30999595  0.29160790  1  0.055771  -0.000168  0.106165  0.083105  -0.00021  1.009608  0.0
H  H46  1  0.65151309  0.84250601  0.14359440  1  0.114037  9.8e-05  0.118625  0.113404  -1.1e-05  0.958197  0.0
H  H47  1  0.68986437  0.75509664  0.20833485  1  0.058566  -0.000167  0.106099  0.083069  -0.00021  1.010542  0.0
H  H48  1  0.15763947  0.80903317  0.14358491  1  0.093516  9.6e-05  0.118561  0.113298  -1.2e-05  0.958686  0.0
H  H49  1  0.24498166  0.93490419  0.20830726  1  0.05708  -0.000166  0.106026  0.082969  -0.00021  1.010137  0.0
H  H50  1  0.19090252  0.34848999  0.14356641  1  0.108856  0.0001  0.118681  0.113405  -1.1e-05  0.958317  0.0
H  H51  1  0.06513581  0.30997328  0.20830307  1  0.051725  -0.000168  0.106081  0.08313  -0.00021  1.00977  0.0
H  H52  1  0.34849446  0.15749385  0.14359629  1  0.113979  9.8e-05  0.118613  0.113437  -1.1e-05  0.958208  0.0
H  H53  1  0.31014663  0.24490228  0.20834148  1  0.058974  -0.000167  0.106057  0.083012  -0.00021  1.010667  0.0
H  H54  1  0.84236779  0.19096996  0.14358295  1  0.093302  9.6e-05  0.118561  0.113279  -1.2e-05  0.958718  0.0
H  H55  1  0.75502026  0.06508997  0.20829502  1  0.056804  -0.000166  0.106051  0.082971  -0.00021  1.01014  0.0
H  H56  1  0.80911809  0.65152132  0.14358171  1  0.109042  0.0001  0.118692  0.113333  -1.1e-05  0.958344  0.0
H  H57  1  0.93486724  0.69003181  0.20833192  1  0.051634  -0.000168  0.106094  0.083123  -0.00021  1.009766  0.0
C  C58  1  0.12163584  0.65484511  0.63462087  1  1.6121  -0.000576  0.223056  0.63335  -0.001049  4.151382  -0.002
C  C59  1  0.14821276  0.76438916  0.68440548  1  0.419608  0.010142  -0.056392  -0.106678  0.007332  3.885095  0.008
C  C60  1  0.53329275  0.87841179  0.63459747  1  1.620683  -0.00061  0.22401  0.635431  -0.001053  4.150186  -0.002
C  C61  1  0.61615649  0.85184464  0.68436242  1  0.403053  0.010133  -0.056278  -0.106749  0.007325  3.885427  0.008
C  C62  1  0.34512718  0.46679291  0.63460627  1  1.614752  -0.00055  0.22332  0.633614  -0.001052  4.150313  -0.002
C  C63  1  0.23563392  0.38379399  0.68438722  1  0.400291  0.010116  -0.056303  -0.106437  0.007335  3.884201  0.008
C  C64  1  0.87836560  0.34517934  0.63463702  1  1.611159  -0.000575  0.223236  0.633982  -0.001049  4.150738  -0.002
C  C65  1  0.85178442  0.23562899  0.68441616  1  0.419698  0.010141  -0.056362  -0.106915  0.007332  3.885148  0.008
C  C66  1  0.46673753  0.12159387  0.63460982  1  1.622356  -0.000609  0.223873  0.635176  -0.001052  4.150777  -0.002
C  C67  1  0.38385753  0.14814524  0.68437036  1  0.402774  0.010136  -0.056325  -0.106704  0.007327  3.884915  0.008
C  C68  1  0.65485114  0.53318767  0.63461028  1  1.615864  -0.000547  0.223432  0.634073  -0.001054  4.149574  -0.002
C  C69  1  0.76435760  0.61619353  0.68437889  1  0.400615  0.010118  -0.056311  -0.106792  0.007338  3.884391  0.008
C  C70  1  0.46678473  0.34515292  0.86538915  1  1.615517  -0.000547  0.223189  0.633557  -0.001049  4.151207  -0.002
C  C71  1  0.38382143  0.23560764  0.81560355  1  0.399566  0.010111  -0.056409  -0.106624  0.007331  3.885315  0.008
C  C72  1  0.65486952  0.12159167  0.86541441  1  1.610056  -0.000576  0.223927  0.635457  -0.001053  4.150295  -0.002
C  C73  1  0.76429162  0.14814584  0.81564173  1  0.422799  0.010127  -0.056427  -0.106877  0.007326  3.885337  0.008
C  C74  1  0.87833799  0.53323196  0.86539575  1  1.621153  -0.000608  0.223264  0.633493  -0.001054  4.15027  -0.002
C  C75  1  0.85183457  0.61622308  0.81561180  1  0.403115  0.010149  -0.056218  -0.106072  0.007336  3.883844  0.008
C  C76  1  0.53318652  0.65482723  0.86537570  1  1.615824  -0.000543  0.223096  0.633763  -0.001049  4.151164  -0.002
C  C77  1  0.61616691  0.76437847  0.81559754  1  0.399717  0.010111  -0.056345  -0.106821  0.007332  3.885055  0.008
C  C78  1  0.34512112  0.87839835  0.86540967  1  1.610923  -0.000578  0.223958  0.635406  -0.001053  4.150492  -0.002
C  C79  1  0.23569018  0.85183454  0.81564391  1  0.418405  0.010131  -0.056426  -0.106996  0.007326  3.885739  0.008
C  C80  1  0.12165375  0.46680363  0.86538082  1  1.621648  -0.000606  0.223398  0.634092  -0.001055  4.149957  -0.002
C  C81  1  0.14815649  0.38380402  0.81561398  1  0.401945  0.01015  -0.056383  -0.106811  0.007338  3.884517  0.008
C  C82  1  0.87837211  0.34516451  0.36538138  1  1.6123  -0.000577  0.223161  0.633624  -0.001049  4.151138  -0.002
C  C83  1  0.85181158  0.23563173  0.31558875  1  0.418919  0.010142  -0.056296  -0.106674  0.007332  3.884991  0.008
C  C84  1  0.46674413  0.12161203  0.36541095  1  1.621732  -0.000611  0.223813  0.635194  -0.001052  4.150543  -0.002
C  C85  1  0.38386881  0.14816479  0.31564168  1  0.401916  0.010138  -0.056377  -0.106669  0.007327  3.885249  0.008
C  C86  1  0.65486745  0.53321301  0.36538611  1  1.614804  -0.000552  0.22325  0.633499  -0.001053  4.150155  -0.002
C  C87  1  0.76435549  0.61621998  0.31560516  1  0.40089  0.010116  -0.056252  -0.106142  0.007334  3.883683  0.008
C  C88  1  0.12163128  0.65482441  0.36538128  1  1.612294  -0.000575  0.223147  0.633797  -0.001049  4.151123  -0.002
C  C89  1  0.14819138  0.76436051  0.31559288  1  0.419057  0.010141  -0.056404  -0.107003  0.007333  3.884889  0.008
C  C90  1  0.53326423  0.87839615  0.36540354  1  1.621529  -0.000612  0.224162  0.635648  -0.001051  4.150167  -0.002
C  C91  1  0.61614050  0.85184989  0.31563312  1  0.389802  0.010142  -0.056501  -0.10702  0.007327  3.884862  0.008
C  C92  1  0.34512232  0.46677101  0.36537531  1  1.61473  -0.000552  0.223303  0.6335  -0.001053  4.149934  -0.002
C  C93  1  0.23563671  0.38376759  0.31558942  1  0.400236  0.010118  -0.056384  -0.106317  0.007334  3.883775  0.008
C  C94  1  0.53318574  0.65483119  0.13461866  1  1.615872  -0.000543  0.223149  0.63355  -0.001049  4.151226  -0.002
C  C95  1  0.61615737  0.76438047  0.18439932  1  0.399351  0.01011  -0.056442  -0.106813  0.007331  3.885004  0.008
C  C96  1  0.34513442  0.87840678  0.13460635  1  1.610688  -0.000577  0.224026  0.635336  -0.001052  4.150349  -0.002
C  C97  1  0.23569604  0.85183523  0.18436484  1  0.417886  0.01013  -0.056387  -0.107027  0.007326  3.885435  0.008
C  C98  1  0.12166432  0.46679062  0.13459416  1  1.622706  -0.000612  0.223403  0.633841  -0.001054  4.150254  -0.002
C  C99  1  0.14817058  0.38379527  0.18436269  1  0.400976  0.010152  -0.056424  -0.106868  0.007337  3.88477  0.008
C  C100  1  0.46682420  0.34516919  0.13462285  1  1.615855  -0.000542  0.223229  0.633781  -0.001048  4.150989  -0.002
C  C101  1  0.38385104  0.23561549  0.18440286  1  0.39881  0.010112  -0.056372  -0.106854  0.007333  3.88525  0.008
C  C102  1  0.65487618  0.12160049  0.13459998  1  1.611127  -0.000577  0.224188  0.635723  -0.001053  4.15006  -0.002
C  C103  1  0.76431137  0.14816771  0.18436020  1  0.418182  0.010131  -0.056396  -0.107035  0.007326  3.885627  0.008
C  C104  1  0.87835174  0.53322040  0.13461403  1  1.621916  -0.000606  0.2233  0.633672  -0.001052  4.150188  -0.002
C  C105  1  0.85184170  0.61621351  0.18438272  1  0.401873  0.010151  -0.056348  -0.10657  0.007337  3.884216  0.008
O  O106  1  0.18083224  0.60483257  0.64888614  1  -1.181611  0.001791  -0.37296  -0.62301  0.000258  2.271831  0.002
O  O107  1  0.04016616  0.62552889  0.58129808  1  -1.097823  0.091222  -0.320236  -0.539885  0.057947  2.34064  0.083
O  O108  1  0.42409689  0.81918554  0.64895908  1  -1.180424  0.001794  -0.373956  -0.624182  0.000261  2.272942  0.002
O  O109  1  0.58543804  0.95995518  0.58125368  1  -1.105838  0.09127  -0.320441  -0.540518  0.057954  2.340048  0.083
O  O110  1  0.39522909  0.57612066  0.64891377  1  -1.18296  0.001802  -0.37311  -0.623101  0.000269  2.271121  0.002
O  O111  1  0.37442118  0.41455431  0.58131179  1  -1.103045  0.091276  -0.320152  -0.539777  0.057962  2.339623  0.083
O  O112  1  0.81918230  0.39520268  0.64891754  1  -1.18155  0.00179  -0.372926  -0.623208  0.000259  2.271813  0.002
O  O113  1  0.95982096  0.37448121  0.58130574  1  -1.097413  0.091201  -0.320389  -0.540147  0.057935  2.34036  0.083
O  O114  1  0.57592965  0.18082008  0.64898220  1  -1.181467  0.001793  -0.373687  -0.623765  0.000261  2.273411  0.002
O  O115  1  0.41459693  0.04005538  0.58126066  1  -1.106418  0.09127  -0.320477  -0.540523  0.057955  2.340022  0.083
O  O116  1  0.60474989  0.42386167  0.64892631  1  -1.18289  0.001803  -0.373167  -0.62323  0.00027  2.270765  0.002
O  O117  1  0.62555893  0.58542646  0.58131485  1  -1.104297  0.091287  -0.320163  -0.539947  0.057975  2.339459  0.083
O  O118  1  0.57599583  0.39517239  0.85112806  1  -1.183016  0.001786  -0.372891  -0.622971  0.000258  2.271726  0.002
O  O119  1  0.41462532  0.37446624  0.91870775  1  -1.103795  0.091239  -0.320402  -0.540063  0.057943  2.340605  0.083
O  O120  1  0.60491073  0.18082536  0.85105866  1  -1.180855  0.001794  -0.373776  -0.624096  0.000261  2.272813  0.002
O  O121  1  0.62546796  0.04004462  0.91875737  1  -1.097146  0.091237  -0.320368  -0.540486  0.057961  2.340256  0.083
O  O122  1  0.81910149  0.42390205  0.85109549  1  -1.180955  0.001807  -0.373179  -0.623084  0.00027  2.271195  0.002
O  O123  1  0.95988100  0.58547261  0.91868167  1  -1.105645  0.091288  -0.320132  -0.539886  0.05796  2.339831  0.083
O  O124  1  0.42397780  0.60480909  0.85110395  1  -1.182885  0.001786  -0.372859  -0.623117  0.000258  2.272012  0.002
O  O125  1  0.58534099  0.62551677  0.91870129  1  -1.104359  0.091232  -0.320272  -0.540008  0.057941  2.340503  0.083
O  O126  1  0.39509160  0.81917808  0.85104131  1  -1.180788  0.001794  -0.373798  -0.624004  0.000261  2.272863  0.002
O  O127  1  0.37451629  0.95993610  0.91876029  1  -1.097877  0.091236  -0.320454  -0.540559  0.05796  2.340253  0.083
O  O128  1  0.18089215  0.57613082  0.85107050  1  -1.181152  0.001808  -0.37323  -0.623214  0.000271  2.27102  0.002
O  O129  1  0.04011064  0.41456717  0.91866752  1  -1.106015  0.091297  -0.320136  -0.539951  0.057971  2.33957  0.083
O  O130  1  0.81917874  0.39518014  0.35111117  1  -1.181572  0.001791  -0.372957  -0.623031  0.000258  2.271761  0.002
O  O131  1  0.95982630  0.37446861  0.41871405  1  -1.098099  0.091214  -0.320338  -0.540091  0.057944  2.340713  0.083
O  O132  1  0.57593560  0.18083650  0.35104564  1  -1.181174  0.001792  -0.373631  -0.623774  0.00026  2.273035  0.002
O  O133  1  0.41459552  0.04006883  0.41875844  1  -1.10547  0.091283  -0.320446  -0.540545  0.057961  2.340197  0.083
O  O134  1  0.60478318  0.42388178  0.35108416  1  -1.182919  0.001804  -0.373171  -0.623105  0.00027  2.271054  0.002
O  O135  1  0.62555845  0.58544353  0.41867441  1  -1.103169  0.091272  -0.32009  -0.539732  0.057962  2.339843  0.083
O  O136  1  0.18082630  0.60481383  0.35111125  1  -1.181889  0.00179  -0.372895  -0.623054  0.000258  2.271813  0.002
O  O137  1  0.04017091  0.62551835  0.41871009  1  -1.098003  0.091217  -0.320279  -0.540039  0.057946  2.340685  0.083
O  O138  1  0.42407225  0.81916831  0.35104226  1  -1.181086  0.001792  -0.373873  -0.624087  0.000261  2.272919  0.002
O  O139  1  0.58541437  0.95993897  0.41875024  1  -1.105571  0.091273  -0.320526  -0.540664  0.057956  2.340075  0.083
O  O140  1  0.39521198  0.57610217  0.35107656  1  -1.182824  0.001804  -0.373147  -0.623102  0.00027  2.270884  0.002
O  O141  1  0.37442452  0.41453612  0.41866518  1  -1.102825  0.091272  -0.320191  -0.539769  0.057962  2.339457  0.083
O  O142  1  0.42397945  0.60480858  0.14888591  1  -1.182851  0.001784  -0.37285  -0.622932  0.000256  2.271965  0.002
O  O143  1  0.58534868  0.62552500  0.08129265  1  -1.10446  0.091247  -0.32032  -0.540004  0.05795  2.340534  0.083
O  O144  1  0.39510855  0.81918686  0.14897630  1  -1.180963  0.001795  -0.373883  -0.624058  0.000262  2.272908  0.002
O  O145  1  0.37453003  0.95994603  0.08126031  1  -1.097511  0.09122  -0.320503  -0.540483  0.057949  2.340061  0.083
O  O146  1  0.18089445  0.57611764  0.14891108  1  -1.180823  0.001808  -0.373178  -0.623133  0.000271  2.270981  0.002
O  O147  1  0.04012683  0.41456269  0.08130330  1  -1.106168  0.091293  -0.320185  -0.539862  0.057966  2.339883  0.083
O  O148  1  0.57602966  0.39519649  0.14889151  1  -1.183229  0.001784  -0.372836  -0.62301  0.000256  2.272084  0.002
O  O149  1  0.41465759  0.37447181  0.08129911  1  -1.104123  0.091243  -0.320464  -0.540162  0.057947  2.340201  0.083
O  O150  1  0.60490377  0.18082413  0.14896958  1  -1.180881  0.001796  -0.37401  -0.624262  0.000262  2.272681  0.002
O  O151  1  0.62547617  0.04006139  0.08125431  1  -1.098021  0.091223  -0.320537  -0.540675  0.057953  2.34027  0.083
O  O152  1  0.81912074  0.42389359  0.14892619  1  -1.180926  0.001808  -0.373224  -0.623179  0.000271  2.270992  0.002
O  O153  1  0.95989153  0.58545705  0.08132610  1  -1.106382  0.091288  -0.320078  -0.539725  0.057963  2.339764  0.083
O  O154  1  0.22510466  0.77488347  0.75000377  1  -1.093341  0.00464  -0.271596  -0.250659  0.002625  2.758893  0.003
O  O155  1  0.54977936  0.77487425  0.74999279  1  -1.08945  0.004636  -0.271649  -0.250701  0.002624  2.759048  0.003
O  O156  1  0.22511138  0.45024487  0.74999298  1  -1.089449  0.004643  -0.271855  -0.250994  0.002628  2.758874  0.003
O  O157  1  0.77491869  0.22515232  0.75002828  1  -1.093953  0.004641  -0.27181  -0.250849  0.002625  2.759297  0.003
O  O158  1  0.45022315  0.22511998  0.75000469  1  -1.08933  0.004636  -0.271633  -0.250768  0.002624  2.759001  0.003
O  O159  1  0.77484037  0.54976373  0.75001746  1  -1.090142  0.004644  -0.271962  -0.251034  0.002628  2.758878  0.003
O  O160  1  0.77491072  0.22513102  0.24999478  1  -1.093928  0.00464  -0.271642  -0.250634  0.002624  2.759265  0.003
O  O161  1  0.45024255  0.22514596  0.25001625  1  -1.089341  0.004637  -0.271708  -0.250759  0.002625  2.759276  0.003
O  O162  1  0.77490054  0.54977144  0.25000680  1  -1.089365  0.004642  -0.271907  -0.251168  0.002628  2.758938  0.003
O  O163  1  0.22508867  0.77485938  0.24999619  1  -1.094014  0.004641  -0.271636  -0.25056  0.002625  2.758921  0.003
O  O164  1  0.54976621  0.77484592  0.25001545  1  -1.089485  0.004637  -0.271638  -0.250706  0.002625  2.758718  0.003
O  O165  1  0.22509408  0.45022656  0.24999590  1  -1.08884  0.004641  -0.271809  -0.250921  0.002627  2.759054  0.003
