# generated using pymatgen
data_BaPH7(CO4)2
_symmetry_space_group_name_H-M   'P 1'
_cell_length_a   6.32351715
_cell_length_b   10.68636929
_cell_length_c   11.77246275
_cell_angle_alpha   89.99989898
_cell_angle_beta   90.00009395
_cell_angle_gamma   91.39091561
_symmetry_Int_Tables_number   1
_chemical_formula_structural   BaPH7(CO4)2
_chemical_formula_sum   'Ba4 P4 H28 C8 O32'
_cell_volume   795.29494216
_cell_formula_units_Z   4
loop_
 _symmetry_equiv_pos_site_id
 _symmetry_equiv_pos_as_xyz
  1  'x, y, z'
loop_
 _atom_site_type_symbol
 _atom_site_label
 _atom_site_symmetry_multiplicity
 _atom_site_fract_x
 _atom_site_fract_y
 _atom_site_fract_z
 _atom_site_occupancy
 _atom_site_hle17_bader_spin_density
 _atom_site_hle17_ddec_charge
 _atom_site_hle17_ddec_spin_density
 _atom_site_hle17_ddec_sum_bond_order
 _atom_site_hle17_magmom
 _atom_site_hse06_10hf_bader_spin_density
 _atom_site_hse06_10hf_ddec_charge
 _atom_site_hse06_10hf_ddec_spin_density
 _atom_site_hse06_10hf_ddec_sum_bond_order
 _atom_site_hse06_10hf_magmom
 _atom_site_hse06_bader_spin_density
 _atom_site_hse06_ddec_charge
 _atom_site_hse06_ddec_spin_density
 _atom_site_hse06_ddec_sum_bond_order
 _atom_site_hse06_magmom
 _atom_site_pbe_bader_spin_density
 _atom_site_pbe_cm5_charge
 _atom_site_pbe_ddec_charge
 _atom_site_pbe_ddec_spin_density
 _atom_site_pbe_ddec_sum_bond_order
 _atom_site_pbe_magmom
Ba  Ba0  1  0.94187282  0.80498144  0.42416001  1  0  1.658392  0  1.155733  0  0  1.502376  0  1.562504  0  0  1.541809  0  1.518503  0  0  0.953065  1.473677  0  1.593244  0
Ba  Ba1  1  0.55812539  0.69502433  0.92416234  1  0  1.65836  0  1.155908  0  0  1.502348  0  1.562684  0  0  1.541762  0  1.518721  0  0  0.953032  1.473635  0  1.593416  0
Ba  Ba2  1  0.05813127  0.19501950  0.57583945  1  0  1.658383  0  1.155756  0  0  1.502363  0  1.562521  0  0  1.541766  0  1.518572  0  0  0.953066  1.473664  0  1.593259  0
Ba  Ba3  1  0.44186944  0.30498223  0.07583543  1  0  1.658378  0  1.155843  0  0  1.502329  0  1.56264  0  0  1.541747  0  1.518669  0  0  0.953041  1.473624  0  1.593375  0
P  P4  1  0.11651098  0.47519840  0.32065390  1  0  1.46867  0  4.799739  0  0  1.305044  0  5.310896  0  0  1.355884  0  5.270488  0  0  0.372104  1.269724  0  5.338081  0
P  P5  1  0.38347621  0.02480569  0.82065259  1  0  1.468711  0  4.799739  0  0  1.30508  0  5.310907  0  0  1.35593  0  5.270479  0  0  0.372173  1.269756  0  5.338094  0
P  P6  1  0.88348369  0.52480441  0.67934641  1  0  1.468909  0  4.799679  0  0  1.305314  0  5.3108  0  0  1.356157  0  5.270383  0  0  0.372239  1.26999  0  5.337991  0
P  P7  1  0.61652144  0.97519244  0.17934177  1  0  1.468612  0  4.799966  0  0  1.305029  0  5.311079  0  0  1.355884  0  5.270652  0  0  0.372108  1.269707  0  5.338265  0
H  H8  1  0.73993431  0.48383414  0.36710584  1  0  0.117489  0  0.907535  0  0  0.126067  0  0.960442  0  0  0.129591  0  0.958099  0  0  0.134614  0.123448  0  0.96256  0
H  H9  1  0.76006127  0.01616563  0.86710866  1  0  0.117463  0  0.907574  0  0  0.126054  0  0.96045  0  0  0.129582  0  0.958104  0  0  0.134565  0.123432  0  0.962569  0
H  H10  1  0.26005725  0.51616961  0.63289702  1  0  0.117457  0  0.907562  0  0  0.126048  0  0.960438  0  0  0.129574  0  0.95809  0  0  0.134564  0.123428  0  0.96256  0
H  H11  1  0.23994085  0.98382595  0.13288315  1  0  0.117487  0  0.907448  0  0  0.125995  0  0.960421  0  0  0.129522  0  0.958078  0  0  0.13455  0.123376  0  0.962535  0
H  H12  1  0.76362934  0.28102531  0.31079664  1  0  0.394184  0  0.902867  0  0  0.367412  0  0.973045  0  0  0.378724  0  0.961079  0  0  0.30578  0.359515  0  0.981164  0
H  H13  1  0.73636921  0.21897363  0.81080081  1  0  0.394111  0  0.902955  0  0  0.367327  0  0.973155  0  0  0.378641  0  0.961188  0  0  0.305737  0.35943  0  0.981273  0
H  H14  1  0.23636846  0.71897656  0.68920791  1  0  0.394257  0  0.902814  0  0  0.367487  0  0.973003  0  0  0.3788  0  0.961033  0  0  0.305793  0.359587  0  0.981123  0
H  H15  1  0.26363318  0.78102450  0.18920460  1  0  0.394162  0  0.902921  0  0  0.367397  0  0.973106  0  0  0.37871  0  0.961138  0  0  0.305758  0.359497  0  0.981224  0
H  H16  1  0.22499768  0.27675372  0.33750191  1  0  0.418181  0  0.900067  0  0  0.384095  0  0.968451  0  0  0.397523  0  0.949428  0  0  0.311371  0.37483  0  0.981561  0
H  H17  1  0.27500541  0.22325127  0.83750611  1  0  0.41814  0  0.900122  0  0  0.384024  0  0.968552  0  0  0.397438  0  0.949559  0  0  0.311351  0.37476  0  0.981659  0
H  H18  1  0.77501138  0.72325284  0.66249415  1  0  0.41819  0  0.900062  0  0  0.384055  0  0.968517  0  0  0.39747  0  0.949524  0  0  0.311348  0.374791  0  0.981624  0
H  H19  1  0.72500169  0.77674592  0.16249505  1  0  0.418104  0  0.900178  0  0  0.384049  0  0.968515  0  0  0.397463  0  0.949525  0  0  0.31137  0.374785  0  0.981622  0
H  H20  1  0.37669852  0.80331272  0.54284007  1  0  0.422254  0  0.877975  0  0  0.394117  0  0.936811  0  0  0.405145  0  0.920723  0  0  0.305714  0.386302  0  0.94821  0
H  H21  1  0.12329489  0.69668955  0.04283760  1  0  0.422406  0  0.877782  0  0  0.394186  0  0.936717  0  0  0.405212  0  0.920633  0  0  0.305737  0.386367  0  0.948122  0
H  H22  1  0.62329597  0.19668541  0.45716279  1  0  0.422313  0  0.877829  0  0  0.394074  0  0.93687  0  0  0.405101  0  0.920783  0  0  0.305712  0.386258  0  0.948269  0
H  H23  1  0.87670280  0.30330951  0.95716271  1  0  0.422363  0  0.877737  0  0  0.394131  0  0.936781  0  0  0.405157  0  0.920697  0  0  0.305712  0.386313  0  0.948184  0
H  H24  1  0.41238927  0.66320658  0.42137369  1  0  0.434658  0  0.854827  0  0  0.408614  0  0.910587  0  0  0.418954  0  0.89551  0  0  0.307688  0.401285  0  0.921263  0
H  H25  1  0.08760824  0.83679499  0.92137157  1  0  0.434691  0  0.854783  0  0  0.408643  0  0.91055  0  0  0.418984  0  0.895468  0  0  0.307681  0.401312  0  0.921228  0
H  H26  1  0.58761166  0.33679436  0.57863002  1  0  0.434681  0  0.85477  0  0  0.408641  0  0.910537  0  0  0.418981  0  0.895459  0  0  0.307716  0.401312  0  0.921212  0
H  H27  1  0.91238621  0.16320221  0.07863214  1  0  0.434691  0  0.854857  0  0  0.408666  0  0.910517  0  0  0.419001  0  0.895444  0  0  0.3077  0.401343  0  0.921183  0
H  H28  1  0.27224656  0.90150843  0.63341317  1  0  0.439162  0  0.864342  0  0  0.407029  0  0.929053  0  0  0.418135  0  0.913049  0  0  0.305707  0.399196  0  0.940317  0
H  H29  1  0.22774552  0.59849462  0.13341011  1  0  0.43918  0  0.864305  0  0  0.407055  0  0.929004  0  0  0.418156  0  0.913008  0  0  0.305726  0.399223  0  0.940268  0
H  H30  1  0.72774962  0.09849251  0.36658969  1  0  0.439153  0  0.864344  0  0  0.407026  0  0.929045  0  0  0.418132  0  0.913042  0  0  0.305737  0.399192  0  0.94031  0
H  H31  1  0.77225552  0.40150913  0.86659189  1  0  0.439192  0  0.864299  0  0  0.407065  0  0.929002  0  0  0.418168  0  0.913001  0  0  0.30573  0.399231  0  0.940266  0
H  H32  1  0.44769016  0.78874491  0.36063695  1  0  0.405455  0  0.901924  0  0  0.373003  0  0.974204  0  0  0.384021  0  0.957979  0  0  0.303378  0.365134  0  0.985765  0
H  H33  1  0.05230566  0.71125771  0.86063415  1  0  0.405528  0  0.901863  0  0  0.373064  0  0.974132  0  0  0.384082  0  0.957907  0  0  0.303385  0.365196  0  0.985691  0
H  H34  1  0.55231081  0.21125696  0.63936760  1  0  0.405527  0  0.901812  0  0  0.373072  0  0.974097  0  0  0.384087  0  0.957876  0  0  0.303392  0.365206  0  0.985653  0
H  H35  1  0.94769361  0.28874136  0.13936871  1  0  0.405526  0  0.901809  0  0  0.373061  0  0.974113  0  0  0.384078  0  0.95789  0  0  0.303388  0.365194  0  0.985671  0
C  C36  1  0.76944873  0.56443762  0.20029362  1  0  0.713765  0  3.839644  0  0  0.656558  0  4.148711  0  0  0.691758  0  4.138164  0  0  0.239941  0.63251  0  4.155483  0
C  C37  1  0.73055388  0.93557324  0.70027789  1  0  0.714076  0  3.839456  0  0  0.656815  0  4.148605  0  0  0.692017  0  4.138044  0  0  0.239989  0.63277  0  4.155382  0
C  C38  1  0.23054437  0.43556519  0.79971009  1  0  0.713868  0  3.839412  0  0  0.656513  0  4.148698  0  0  0.691713  0  4.138148  0  0  0.239949  0.632466  0  4.155466  0
C  C39  1  0.26947733  0.06443331  0.29969524  1  0  0.713979  0  3.839175  0  0  0.656552  0  4.14856  0  0  0.691753  0  4.138009  0  0  0.239929  0.632508  0  4.155332  0
C  C40  1  0.82707633  0.46489192  0.28785060  1  0  -0.203186  0  3.649428  0  0  -0.208684  0  3.910044  0  0  -0.214056  0  3.912396  0  0  0.002134  -0.205426  0  3.909006  0
C  C41  1  0.67291269  0.03510706  0.78785331  1  0  -0.203364  0  3.649458  0  0  -0.208827  0  3.910038  0  0  -0.214207  0  3.912409  0  0  0.002158  -0.205566  0  3.908994  0
C  C42  1  0.17291195  0.53510902  0.71215140  1  0  -0.203351  0  3.649511  0  0  -0.208765  0  3.9101  0  0  -0.214145  0  3.912466  0  0  0.002183  -0.205504  0  3.90906  0
C  C43  1  0.32708971  0.96489107  0.21214105  1  0  -0.203236  0  3.649689  0  0  -0.208546  0  3.910233  0  0  -0.21393  0  3.912613  0  0  0.002254  -0.205285  0  3.909184  0
O  O44  1  0.80945117  0.67780226  0.23085045  1  0  -0.689034  0  2.074066  0  0  -0.626235  0  2.318184  0  0  -0.654045  0  2.306252  0  0  -0.349164  -0.607022  0  2.325904  0
O  O45  1  0.69055393  0.82219075  0.73085101  1  0  -0.689436  0  2.073215  0  0  -0.62658  0  2.317414  0  0  -0.654393  0  2.305477  0  0  -0.349366  -0.60736  0  2.325132  0
O  O46  1  0.19053390  0.32219775  0.76915071  1  0  -0.689223  0  2.073794  0  0  -0.626322  0  2.317973  0  0  -0.65413  0  2.30604  0  0  -0.349259  -0.607109  0  2.325691  0
O  O47  1  0.30947037  0.17780176  0.26914421  1  0  -0.6893  0  2.073695  0  0  -0.626425  0  2.31797  0  0  -0.65424  0  2.306024  0  0  -0.349259  -0.607211  0  2.325692  0
O  O48  1  0.69111187  0.53222989  0.10602192  1  0  -0.685351  0  1.935467  0  0  -0.622295  0  2.173728  0  0  -0.64783  0  2.163739  0  0  -0.355493  -0.604571  0  2.180328  0
O  O49  1  0.80887109  0.96777085  0.60602915  1  0  -0.68514  0  1.936301  0  0  -0.622159  0  2.174763  0  0  -0.647686  0  2.164762  0  0  -0.355313  -0.604445  0  2.181375  0
O  O50  1  0.30888265  0.46776918  0.89397500  1  0  -0.685247  0  1.935454  0  0  -0.622198  0  2.173893  0  0  -0.647733  0  2.163903  0  0  -0.355452  -0.604478  0  2.180491  0
O  O51  1  0.19114391  0.03222634  0.39396862  1  0  -0.685336  0  1.935083  0  0  -0.622276  0  2.173576  0  0  -0.64781  0  2.163582  0  0  -0.355455  -0.604556  0  2.180183  0
O  O52  1  0.77281611  0.34368093  0.24471272  1  0  -0.578251  0  2.228272  0  0  -0.515441  0  2.449417  0  0  -0.53367  0  2.440047  0  0  -0.398898  -0.502221  0  2.455432  0
O  O53  1  0.72718240  0.15632094  0.74471443  1  0  -0.578198  0  2.228301  0  0  -0.515387  0  2.449448  0  0  -0.533612  0  2.440084  0  0  -0.398911  -0.502168  0  2.45546  0
O  O54  1  0.22717853  0.65632094  0.75529524  1  0  -0.578254  0  2.22827  0  0  -0.515509  0  2.449453  0  0  -0.533736  0  2.440082  0  0  -0.398928  -0.502288  0  2.45547  0
O  O55  1  0.27282496  0.84368281  0.25528588  1  0  -0.578175  0  2.228381  0  0  -0.515429  0  2.449502  0  0  -0.533656  0  2.440135  0  0  -0.398889  -0.502207  0  2.45552  0
O  O56  1  0.22900577  0.47081332  0.20592691  1  0  -0.902182  0  1.947879  0  0  -0.81198  0  2.196474  0  0  -0.838917  0  2.177667  0  0  -0.419311  -0.792887  0  2.209232  0
O  O57  1  0.27098719  0.02918443  0.70592802  1  0  -0.902174  0  1.948009  0  0  -0.811973  0  2.196608  0  0  -0.838921  0  2.177807  0  0  -0.419338  -0.792881  0  2.209368  0
O  O58  1  0.77099365  0.52918949  0.79407765  1  0  -0.902279  0  1.94773  0  0  -0.812093  0  2.196342  0  0  -0.839029  0  2.177531  0  0  -0.419361  -0.793002  0  2.209101  0
O  O59  1  0.72900555  0.97080996  0.29406974  1  0  -0.902215  0  1.94799  0  0  -0.812029  0  2.196603  0  0  -0.838991  0  2.17781  0  0  -0.419395  -0.792936  0  2.209362  0
O  O60  1  0.16358187  0.34980885  0.38781500  1  0  -0.798874  0  2.07425  0  0  -0.720232  0  2.318994  0  0  -0.74378  0  2.29254  0  0  -0.41178  -0.703707  0  2.336853  0
O  O61  1  0.33641486  0.15019230  0.88781683  1  0  -0.798791  0  2.07417  0  0  -0.720171  0  2.318979  0  0  -0.743727  0  2.292562  0  0  -0.411761  -0.703646  0  2.336836  0
O  O62  1  0.83641585  0.65019115  0.61218446  1  0  -0.798912  0  2.074134  0  0  -0.720279  0  2.318963  0  0  -0.743829  0  2.292515  0  0  -0.411774  -0.703755  0  2.336823  0
O  O63  1  0.66358907  0.84980489  0.11217838  1  0  -0.798736  0  2.074152  0  0  -0.72021  0  2.318992  0  0  -0.743764  0  2.292564  0  0  -0.411741  -0.703685  0  2.336847  0
O  O64  1  0.16346888  0.58641121  0.39712297  1  0  -0.88743  0  1.928536  0  0  -0.808641  0  2.187157  0  0  -0.835314  0  2.167737  0  0  -0.408931  -0.789734  0  2.199594  0
O  O65  1  0.33652548  0.91359228  0.89712947  1  0  -0.887511  0  1.928473  0  0  -0.808669  0  2.187015  0  0  -0.835365  0  2.167655  0  0  -0.408993  -0.789759  0  2.199446  0
O  O66  1  0.83654000  0.41359066  0.60288329  1  0  -0.887497  0  1.928584  0  0  -0.808737  0  2.187244  0  0  -0.835409  0  2.167836  0  0  -0.409083  -0.789829  0  2.199677  0
O  O67  1  0.66347386  0.08640866  0.10287339  1  0  -0.887508  0  1.928582  0  0  -0.8087  0  2.187141  0  0  -0.835383  0  2.167762  0  0  -0.408983  -0.789792  0  2.199572  0
O  O68  1  0.25370626  0.81812430  0.59371890  1  0  -0.867157  0  1.899893  0  0  -0.806233  0  2.07921  0  0  -0.828408  0  2.048845  0  0  -0.599043  -0.790433  0  2.100257  0
O  O69  1  0.24628727  0.68187788  0.09371573  1  0  -0.86729  0  1.899773  0  0  -0.806327  0  2.079217  0  0  -0.828493  0  2.048861  0  0  -0.599112  -0.790527  0  2.100266  0
O  O70  1  0.74629289  0.18187196  0.40628821  1  0  -0.867148  0  1.899766  0  0  -0.806166  0  2.079258  0  0  -0.828335  0  2.048894  0  0  -0.599082  -0.790366  0  2.100306  0
O  O71  1  0.75370899  0.31812493  0.90628543  1  0  -0.867198  0  1.899701  0  0  -0.806208  0  2.079196  0  0  -0.828378  0  2.048839  0  0  -0.599061  -0.79041  0  2.100242  0
O  O72  1  0.50390976  0.74030265  0.42587995  1  0  -0.860699  0  1.862239  0  0  -0.804438  0  2.037799  0  0  -0.825354  0  2.007092  0  0  -0.598774  -0.789475  0  2.059322  0
O  O73  1  0.99608514  0.75969937  0.92587838  1  0  -0.860812  0  1.862198  0  0  -0.804543  0  2.037765  0  0  -0.825454  0  2.007058  0  0  -0.598781  -0.789584  0  2.05929  0
O  O74  1  0.49609117  0.25969829  0.57412375  1  0  -0.860801  0  1.86217  0  0  -0.804521  0  2.03777  0  0  -0.825431  0  2.007065  0  0  -0.598794  -0.789563  0  2.059296  0
O  O75  1  0.00391092  0.24029876  0.07412363  1  0  -0.860811  0  1.862228  0  0  -0.804547  0  2.037793  0  0  -0.825451  0  2.007098  0  0  -0.598786  -0.789593  0  2.059307  0
