# generated using pymatgen
data_ZnH22C32N4O7
_symmetry_space_group_name_H-M   'P 1'
_cell_length_a   9.80959520
_cell_length_b   11.81994365
_cell_length_c   14.07000000
_cell_angle_alpha   89.62508143
_cell_angle_beta   69.82684347
_cell_angle_gamma   66.92869243
_symmetry_Int_Tables_number   1
_chemical_formula_structural   ZnH22C32N4O7
_chemical_formula_sum   'Zn2 H44 C64 N8 O14'
_cell_volume   1393.13509892
_cell_formula_units_Z   2
loop_
 _symmetry_equiv_pos_site_id
 _symmetry_equiv_pos_as_xyz
  1  'x, y, z'
loop_
 _atom_site_type_symbol
 _atom_site_label
 _atom_site_symmetry_multiplicity
 _atom_site_fract_x
 _atom_site_fract_y
 _atom_site_fract_z
 _atom_site_occupancy
 _atom_site_hle17_bader_spin_density
 _atom_site_hle17_ddec_charge
 _atom_site_hle17_ddec_spin_density
 _atom_site_hle17_ddec_sum_bond_order
 _atom_site_hle17_magmom
 _atom_site_hse06_10hf_bader_spin_density
 _atom_site_hse06_10hf_ddec_charge
 _atom_site_hse06_10hf_ddec_spin_density
 _atom_site_hse06_10hf_ddec_sum_bond_order
 _atom_site_hse06_10hf_magmom
 _atom_site_hse06_bader_spin_density
 _atom_site_hse06_ddec_charge
 _atom_site_hse06_ddec_spin_density
 _atom_site_hse06_ddec_sum_bond_order
 _atom_site_hse06_magmom
 _atom_site_pbe_bader_charge
 _atom_site_pbe_bader_spin_density
 _atom_site_pbe_cm5_charge
 _atom_site_pbe_ddec_charge
 _atom_site_pbe_ddec_spin_density
 _atom_site_pbe_ddec_sum_bond_order
 _atom_site_pbe_magmom
Zn  Zn0  1  0.98792286  0.46080134  0.71628527  1  0  1.030941  0  1.815521  0  0  0.834648  0  2.292811  0  0  0.883323  0  2.237192  0  1.269275  0  0.701686  0.798165  0  2.333697  0
Zn  Zn1  1  0.01207730  0.53919766  0.28371569  1  0  1.030946  0  1.815481  0  0  0.834644  0  2.292767  0  0  0.883323  0  2.237151  0  1.269272  0  0.70168  0.798159  0  2.333648  0
H  H2  1  0.32174240  0.26327241  0.93533533  1  0  0.29145  0  0.879344  0  0  0.284086  0  0.926116  0  0  0.290201  0  0.922162  0  0.45525  0  0.32612  0.279623  0  0.929251  0
H  H3  1  0.67825668  0.73672660  0.06466376  1  0  0.291454  0  0.879339  0  0  0.284088  0  0.926111  0  0  0.290202  0  0.92216  0  0.455247  0  0.326118  0.279624  0  0.929247  0
H  H4  1  0.01390100  0.19367338  0.40923415  1  0  0.30794  0  0.922699  0  0  0.287264  0  0.992242  0  0  0.295542  0  0.985579  0  0.516422  0  0.307229  0.281368  0  0.996887  0
H  H5  1  0.98610044  0.80632935  0.59076719  1  0  0.307983  0  0.922609  0  0  0.287271  0  0.992174  0  0  0.295548  0  0.985511  0  0.51643  0  0.307282  0.281381  0  0.996816  0
H  H6  1  0.28969608  0.72223432  0.50320613  1  0  0.101505  0  0.944293  0  0  0.111209  0  1.005469  0  0  0.114985  0  1.002543  0  0.101282  0  0.105623  0.108495  0  1.007372  0
H  H7  1  0.71030548  0.27776004  0.49679381  1  0  0.10149  0  0.944272  0  0  0.111184  0  1.005455  0  0  0.114962  0  1.002524  0  0.101245  0  0.105596  0.108456  0  1.007374  0
H  H8  1  0.52807429  0.76668481  0.47145468  1  0  0.080657  0  0.977647  0  0  0.092602  0  1.037642  0  0  0.094985  0  1.037658  0  0.068822  0  0.094519  0.090979  0  1.037693  0
H  H9  1  0.47192687  0.23331233  0.52854534  1  0  0.080604  0  0.977642  0  0  0.092544  0  1.037654  0  0  0.094927  0  1.03767  0  0.068919  0  0.094479  0.090922  0  1.037706  0
H  H10  1  0.70871009  0.67090873  0.56657912  1  0  0.097008  0  0.964561  0  0  0.105629  0  1.029049  0  0  0.108577  0  1.027475  0  0.082465  0  0.100926  0.103671  0  1.02975  0
H  H11  1  0.29129056  0.32908935  0.43342172  1  0  0.097027  0  0.964534  0  0  0.105648  0  1.02901  0  0  0.108596  0  1.027435  0  0.082433  0  0.100935  0.10369  0  1.029711  0
H  H12  1  0.41623164  0.48459773  0.72059631  1  0  0.103242  0  0.951538  0  0  0.110388  0  1.01776  0  0  0.115  0  1.013306  0  0.09724  0  0.102094  0.107052  0  1.021236  0
H  H13  1  0.58377060  0.51539941  0.27940487  1  0  0.103113  0  0.951574  0  0  0.110268  0  1.017802  0  0  0.114879  0  1.013348  0  0.097297  0  0.102032  0.106933  0  1.021275  0
H  H14  1  0.19282777  0.37207890  0.83197375  1  0  0.098658  0  0.937931  0  0  0.109633  0  0.998112  0  0  0.112903  0  0.994935  0  0.093293  0  0.124032  0.107004  0  1.000926  0
H  H15  1  0.80717131  0.62792011  0.16802676  1  0  0.098641  0  0.937935  0  0  0.109614  0  0.998118  0  0  0.112888  0  0.994936  0  0.093576  0  0.124032  0.106986  0  1.000929  0
H  H16  1  0.91894872  0.33030107  0.13346562  1  0  0.128821  0  0.962167  0  0  0.13649  0  1.022512  0  0  0.139845  0  1.02012  0  0.157677  0  0.116205  0.134057  0  1.024205  0
H  H17  1  0.08104986  0.66969887  0.86653500  1  0  0.128826  0  0.962166  0  0  0.136498  0  1.022502  0  0  0.139853  0  1.020111  0  0.157691  0  0.116208  0.134064  0  1.024196  0
H  H18  1  0.67583689  0.42162736  0.08734230  1  0  0.118154  0  0.93774  0  0  0.12899  0  0.992675  0  0  0.132105  0  0.991911  0  0.116339  0  0.114085  0.12668  0  0.993462  0
H  H19  1  0.32416178  0.57837444  0.91265829  1  0  0.118179  0  0.937713  0  0  0.129017  0  0.992643  0  0  0.132132  0  0.991882  0  0.116358  0  0.114092  0.126707  0  0.99343  0
H  H20  1  0.71003575  0.47190862  0.90739624  1  0  0.101221  0  0.960024  0  0  0.108852  0  1.02134  0  0  0.112275  0  1.018152  0  0.177828  0  0.118219  0.106416  0  1.023422  0
H  H21  1  0.28996243  0.52809411  0.09260518  1  0  0.101233  0  0.959935  0  0  0.108873  0  1.021248  0  0  0.112296  0  1.01806  0  0.17784  0  0.118208  0.106437  0  1.02333  0
H  H22  1  0.52700248  0.12046337  0.91996195  1  0  0.090715  0  0.941133  0  0  0.10383  0  0.996415  0  0  0.106612  0  0.994831  0  0.055199  0  0.106666  0.101841  0  0.997675  0
H  H23  1  0.47299759  0.87953378  0.08003620  1  0  0.090735  0  0.941145  0  0  0.103846  0  0.996426  0  0  0.106633  0  0.994836  0  0.055232  0  0.106674  0.101856  0  0.997688  0
H  H24  1  0.78861419  0.99485547  0.92814596  1  0  0.11497  0  0.972754  0  0  0.123363  0  1.036638  0  0  0.125672  0  1.037781  0  0.106978  0  0.104374  0.121448  0  1.036461  0
H  H25  1  0.21138587  0.00514167  0.07185220  1  0  0.115018  0  0.972776  0  0  0.123409  0  1.036659  0  0  0.125719  0  1.0378  0  0.107005  0  0.104358  0.121494  0  1.036483  0
H  H26  1  0.59720565  0.10947977  0.25457443  1  0  0.108375  0  0.974145  0  0  0.117491  0  1.037519  0  0  0.120203  0  1.03763  0  0.083321  0  0.103725  0.115507  0  1.037785  0
H  H27  1  0.40279579  0.89052295  0.74542336  1  0  0.108463  0  0.974041  0  0  0.117544  0  1.037446  0  0  0.120254  0  1.037561  0  0.083348  0  0.103737  0.115558  0  1.037718  0
H  H28  1  0.32997350  0.23432969  0.24744146  1  0  0.116068  0  0.948608  0  0  0.122404  0  1.012409  0  0  0.12606  0  1.009706  0  0.134401  0  0.110223  0.119772  0  1.014278  0
H  H29  1  0.67002676  0.76567117  0.75255662  1  0  0.11603  0  0.948643  0  0  0.122406  0  1.012393  0  0  0.126066  0  1.00969  0  0.134372  0  0.110216  0.119769  0  1.014275  0
H  H30  1  0.05566644  0.78553575  0.13798353  1  0  0.103092  0  0.995628  0  0  0.111164  0  1.060934  0  0  0.112862  0  1.062811  0  0.091446  0  0.100461  0.109992  0  1.059747  0
H  H31  1  0.94432966  0.21446883  0.86201838  1  0  0.103101  0  0.995579  0  0  0.111156  0  1.060905  0  0  0.112856  0  1.062779  0  0.091399  0  0.100428  0.109984  0  1.059719  0
H  H32  1  0.19325271  0.80125649  0.25360332  1  0  0.113278  0  0.945037  0  0  0.11948  0  1.009351  0  0  0.123397  0  1.006002  0  0.134443  0  0.106594  0.116634  0  1.0117  0
H  H33  1  0.80674349  0.19874995  0.74639855  1  0  0.113212  0  0.945154  0  0  0.119445  0  1.00944  0  0  0.123361  0  1.006091  0  0.134424  0  0.106577  0.116597  0  1.011791  0
H  H34  1  0.94785645  0.20075492  0.29435241  1  0  0.096507  0  1.002136  0  0  0.105773  0  1.065744  0  0  0.108088  0  1.064499  0  0.112098  0  0.10631  0.104141  0  1.066723  0
H  H35  1  0.05214291  0.79924967  0.70564729  1  0  0.096581  0  1.002114  0  0  0.105837  0  1.06573  0  0  0.108153  0  1.064486  0  0.112042  0  0.106347  0.104199  0  1.066713  0
H  H36  1  0.80815004  0.18414794  0.18359763  1  0  0.111992  0  0.956859  0  0  0.123109  0  1.016236  0  0  0.125589  0  1.016509  0  0.064099  0  0.106549  0.121599  0  1.015565  0
H  H37  1  0.19184774  0.81585758  0.81640173  1  0  0.112065  0  0.956896  0  0  0.123117  0  1.016314  0  0  0.125597  0  1.016586  0  0.064147  0  0.106545  0.121607  0  1.015644  0
H  H38  1  0.33244071  0.94987305  0.47810604  1  0  0.119639  0  0.9933  0  0  0.126912  0  1.056245  0  0  0.130806  0  1.052944  0  0.156677  0  0.109691  0.124132  0  1.058532  0
H  H39  1  0.66755886  0.05012503  0.52189507  1  0  0.119596  0  0.993345  0  0  0.126872  0  1.05629  0  0  0.130767  0  1.052989  0  0.156709  0  0.10966  0.124099  0  1.05857  0
H  H40  1  0.40597343  0.00630596  0.61937710  1  0  0.098885  0  0.955309  0  0  0.110983  0  1.012388  0  0  0.113552  0  1.012241  0  0.082889  0  0.106917  0.109219  0  1.012465  0
H  H41  1  0.59402664  0.99369118  0.38062389  1  0  0.098883  0  0.95527  0  0  0.110973  0  1.01236  0  0  0.11354  0  1.012216  0  0.082936  0  0.106932  0.109208  0  1.012438  0
H  H42  1  0.25755695  0.22254449  0.71490138  1  0  0.070357  0  0.951435  0  0  0.080981  0  1.01334  0  0  0.083538  0  1.010874  0  0.069754  0  0.112396  0.079081  0  1.01529  0
H  H43  1  0.74244529  0.77745266  0.28509980  1  0  0.070396  0  0.951399  0  0  0.081015  0  1.013309  0  0  0.083573  0  1.010842  0  0.069821  0  0.112407  0.079115  0  1.015259  0
H  H44  1  0.97289125  0.32632183  0.54115890  1  0  0.117937  0  0.951139  0  0  0.123312  0  1.014693  0  0  0.126869  0  1.011653  0  0.166864  0  0.126837  0.120723  0  1.016839  0
H  H45  1  0.02711109  0.67367718  0.45884225  1  0  0.117903  0  0.951145  0  0  0.123279  0  1.014699  0  0  0.126835  0  1.011658  0  0.166829  0  0.126822  0.120689  0  1.01684  0
C  C46  1  0.19348988  0.57496525  0.63253154  1  0  0.650979  0  3.909662  0  0  0.600269  0  4.202285  0  0  0.634511  0  4.195064  0  1.560547  0  0.205286  0.576832  0  4.206355  0
C  C47  1  0.80651127  0.42503189  0.36746920  1  0  0.651063  0  3.909433  0  0  0.600407  0  4.201972  0  0  0.63465  0  4.194749  0  1.560601  0  0.205335  0.576969  0  4.206046  0
C  C48  1  0.33638488  0.60195694  0.61498852  1  0  -0.087289  0  3.782941  0  0  -0.059802  0  4.01355  0  0  -0.070324  0  4.03927  0  0.010925  0  -0.023596  -0.053069  0  3.996337  0
C  C49  1  0.66361677  0.39803928  0.38501210  1  0  -0.08726  0  3.782975  0  0  -0.059805  0  4.013586  0  0  -0.070331  0  4.039311  0  0.010953  0  -0.023579  -0.05307  0  3.996363  0
C  C50  1  0.36815011  0.68190813  0.54506080  1  0  -0.055428  0  3.723187  0  0  -0.082318  0  3.972489  0  0  -0.08018  0  3.991994  0  -0.086969  0  -0.080115  -0.082349  0  3.958211  0
C  C51  1  0.63185312  0.31808715  0.45493945  1  0  -0.055457  0  3.723077  0  0  -0.082325  0  3.972366  0  0  -0.080183  0  3.991866  0  -0.086995  0  -0.080093  -0.082342  0  3.958093  0
C  C52  1  0.50117276  0.70732077  0.52780630  1  0  -0.077246  0  3.767099  0  0  -0.087801  0  4.020815  0  0  -0.092526  0  4.04239  0  -0.056678  0  -0.094583  -0.085007  0  4.005563  0
C  C53  1  0.49882939  0.29267452  0.47219278  1  0  -0.077144  0  3.766998  0  0  -0.087703  0  4.020711  0  0  -0.09243  0  4.042291  0  -0.056607  0  -0.094535  -0.084908  0  4.005449  0
C  C54  1  0.60256725  0.65405159  0.58034933  1  0  -0.051688  0  3.709856  0  0  -0.078802  0  3.958594  0  0  -0.075962  0  3.977437  0  -0.043042  0  -0.082138  -0.07934  0  3.944653  0
C  C55  1  0.39743391  0.34594555  0.41965212  1  0  -0.051794  0  3.709798  0  0  -0.078894  0  3.958552  0  0  -0.076069  0  3.977388  0  -0.043251  0  -0.082196  -0.079413  0  3.94463  0
C  C56  1  0.57117697  0.57475416  0.65112787  1  0  -0.073362  0  3.762123  0  0  -0.04575  0  3.991383  0  0  -0.056281  0  4.016755  0  -0.034182  0  -0.020734  -0.039365  0  3.975199  0
C  C57  1  0.42882576  0.42524206  0.34887249  1  0  -0.073223  0  3.762079  0  0  -0.045627  0  3.991366  0  0  -0.056116  0  4.016686  0  -0.034273  0  -0.020636  -0.039304  0  3.975266  0
C  C58  1  0.43839914  0.54861709  0.66763665  1  0  -0.069545  0  3.711868  0  0  -0.102558  0  3.953629  0  0  -0.099986  0  3.973182  0  -0.024898  0  -0.079228  -0.104925  0  3.941925  0
C  C59  1  0.56160142  0.45137913  0.33236423  1  0  -0.069442  0  3.711951  0  0  -0.102442  0  3.953698  0  0  -0.099882  0  3.973242  0  -0.024751  0  -0.079193  -0.104791  0  3.942008  0
C  C60  1  0.68116769  0.51630332  0.70728215  1  0  0.636236  0  3.937497  0  0  0.587351  0  4.231572  0  0  0.621064  0  4.225604  0  1.561743  0  0.200233  0.56434  0  4.234769  0
C  C61  1  0.31883405  0.48369476  0.29271844  1  0  0.636233  0  3.937391  0  0  0.587313  0  4.231524  0  0  0.621015  0  4.225555  0  1.561723  0  0.200172  0.564318  0  4.234728  0
C  C62  1  0.08200868  0.37592144  0.88952209  1  0  0.005125  0  3.684637  0  0  -0.03569  0  3.946154  0  0  -0.032004  0  3.963127  0  0.543737  0  0.039356  -0.038022  0  3.934993  0
C  C63  1  0.91798990  0.62407850  0.11047854  1  0  0.005196  0  3.684521  0  0  -0.035609  0  3.946026  0  0  -0.031925  0  3.962998  0  0.54341  0  0.039398  -0.037942  0  3.934865  0
C  C64  1  0.07749809  0.33618298  0.98414984  1  0  0.221641  0  3.788925  0  0  0.217604  0  4.04293  0  0  0.222376  0  4.064083  0  0.336059  0  0.107568  0.213745  0  4.029282  0
C  C65  1  0.92250148  0.66381510  0.01584913  1  0  0.221572  0  3.788893  0  0  0.217524  0  4.042898  0  0  0.222296  0  4.064051  0  0.336113  0  0.107533  0.213666  0  4.02925  0
C  C66  1  0.92785739  0.35435413  0.05772165  1  0  -0.091224  0  3.644074  0  0  -0.120306  0  3.898877  0  0  -0.118446  0  3.914426  0  0.003502  0  -0.067467  -0.121064  0  3.888146  0
C  C67  1  0.07214119  0.64564581  0.94227897  1  0  -0.091262  0  3.644233  0  0  -0.120334  0  3.89902  0  0  -0.118474  0  3.914571  0  0.003437  0  -0.0675  -0.121091  0  3.888288  0
C  C68  1  0.79359232  0.40604704  0.03174227  1  0  -0.100441  0  3.729794  0  0  -0.110511  0  3.981107  0  0  -0.116119  0  4.001175  0  -0.041557  0  -0.077949  -0.106973  0  3.967317  0
C  C69  1  0.20640576  0.59395382  0.96825847  1  0  -0.100449  0  3.729788  0  0  -0.110517  0  3.981096  0  0  -0.116127  0  4.001169  0  -0.041535  0  -0.077959  -0.106978  0  3.967306  0
C  C70  1  0.80899041  0.43782423  0.93422285  1  0  0.101929  0  3.689786  0  0  0.066233  0  3.944801  0  0  0.072927  0  3.960638  0  0.42229  0  0.037902  0.062354  0  3.933518  0
C  C71  1  0.19100718  0.56217756  0.06577872  1  0  0.101855  0  3.689691  0  0  0.066127  0  3.944753  0  0  0.072835  0  3.960564  0  0.422312  0  0.0379  0.062247  0  3.933469  0
C  C72  1  0.24269047  0.25841251  0.09025234  1  0  0.543624  0  3.82971  0  0  0.495816  0  4.122213  0  0  0.525004  0  4.122045  0  1.375483  0  0.241546  0.475913  0  4.12195  0
C  C73  1  0.75731028  0.74158743  0.90974634  1  0  0.543611  0  3.829732  0  0  0.4958  0  4.122233  0  0  0.524992  0  4.12206  0  1.375545  0  0.241525  0.475893  0  4.121975  0
C  C74  1  0.40890081  0.18818484  0.08448298  1  0  -0.100952  0  3.805564  0  0  -0.083177  0  4.047829  0  0  -0.093083  0  4.07328  0  -0.015394  0  -0.030176  -0.076666  0  4.030624  0
C  C75  1  0.59110044  0.81181417  0.91551630  1  0  -0.100817  0  3.805565  0  0  -0.083032  0  4.047803  0  0  -0.092939  0  4.073256  0  -0.015489  0  -0.030111  -0.07652  0  4.030598  0
C  C76  1  0.53922496  0.12156349  0.99415151  1  0  -0.052052  0  3.762496  0  0  -0.073963  0  4.012232  0  0  -0.071696  0  4.032519  0  -0.068411  0  -0.080968  -0.075242  0  3.998214  0
C  C77  1  0.46077628  0.87843551  0.00584634  1  0  -0.05215  0  3.762631  0  0  -0.074058  0  4.012374  0  0  -0.071796  0  4.032661  0  -0.068368  0  -0.081014  -0.075338  0  3.998356  0
C  C78  1  0.68802379  0.04947128  0.99728876  1  0  -0.175358  0  3.739158  0  0  -0.199303  0  3.997458  0  0  -0.205816  0  4.018004  0  0.026666  0  -0.103184  -0.194428  0  3.983366  0
C  C79  1  0.31197587  0.95052866  0.00271018  1  0  -0.175418  0  3.739112  0  0  -0.199393  0  3.997372  0  0  -0.205911  0  4.017928  0  0.02661  0  -0.103189  -0.194518  0  3.983279  0
C  C80  1  0.70882838  0.04475180  0.09092947  1  0  0.288094  0  3.773005  0  0  0.276532  0  4.034425  0  0  0.289808  0  4.047837  0  0.378593  0  0.089933  0.267577  0  4.024854  0
C  C81  1  0.29117138  0.95525000  0.90906873  1  0  0.288032  0  3.772866  0  0  0.276567  0  4.034153  0  0  0.289844  0  4.047564  0  0.378746  0  0.089955  0.267619  0  4.024575  0
C  C82  1  0.58092894  0.11197110  0.18176208  1  0  -0.198647  0  3.758519  0  0  -0.215964  0  4.006696  0  0  -0.223584  0  4.027453  0  -0.027608  0  -0.103197  -0.211775  0  3.993782  0
C  C83  1  0.41907241  0.88802977  0.81823575  1  0  -0.198722  0  3.758375  0  0  -0.21604  0  4.006542  0  0  -0.22366  0  4.0273  0  -0.027729  0  -0.1032  -0.211851  0  3.993624  0
C  C84  1  0.43203677  0.18220435  0.17789487  1  0  -0.02741  0  3.713092  0  0  -0.050836  0  3.958763  0  0  -0.048247  0  3.978447  0  -0.003673  0  -0.076657  -0.052397  0  3.945886  0
C  C85  1  0.56796467  0.81779837  0.82210292  1  0  -0.027385  0  3.713114  0  0  -0.050836  0  3.958762  0  0  -0.048253  0  3.978451  0  -0.003658  0  -0.076657  -0.052399  0  3.945882  0
C  C86  1  0.92168496  0.98278477  0.15603903  1  0  0.283362  0  3.780864  0  0  0.269637  0  4.046829  0  0  0.282871  0  4.059288  0  0.35573  0  0.086764  0.260452  0  4.03828  0
C  C87  1  0.07831391  0.01722074  0.84396079  1  0  0.283516  0  3.780593  0  0  0.26974  0  4.046611  0  0  0.282973  0  4.059072  0  0.355675  0  0.086844  0.260564  0  4.038054  0
C  C88  1  0.03132450  0.87554245  0.17463424  1  0  -0.180375  0  3.760896  0  0  -0.200421  0  4.016971  0  0  -0.206962  0  4.037883  0  0.007812  0  -0.103463  -0.196731  0  4.003353  0
C  C89  1  0.96867269  0.12446213  0.82536741  1  0  -0.180461  0  3.760701  0  0  -0.200493  0  4.016827  0  0  -0.207035  0  4.037737  0  0.007781  0  -0.103469  -0.196802  0  4.003205  0
C  C90  1  0.10822980  0.88486516  0.23855707  1  0  -0.045256  0  3.73316  0  0  -0.068365  0  3.981266  0  0  -0.066388  0  4.000834  0  -0.037938  0  -0.078306  -0.068948  0  3.967942  0
C  C91  1  0.89176522  0.11513942  0.76144438  1  0  -0.045174  0  3.733088  0  0  -0.068307  0  3.981156  0  0  -0.066332  0  4.000729  0  -0.037969  0  -0.078287  -0.068889  0  3.967835  0
C  C92  1  0.07646874  0.00209517  0.28488843  1  0  -0.090208  0  3.784463  0  0  -0.071595  0  4.023881  0  0  -0.080996  0  4.048699  0  -0.008056  0  -0.026883  -0.066422  0  4.007941  0
C  C93  1  0.92353013  0.99791035  0.71511139  1  0  -0.090147  0  3.784251  0  0  -0.071491  0  4.023642  0  0  -0.080891  0  4.048458  0  -0.008106  0  -0.02682  -0.066324  0  4.00771  0
C  C94  1  0.96885131  0.10883625  0.26354540  1  0  -0.049406  0  3.748159  0  0  -0.076277  0  4.001956  0  0  -0.07365  0  4.022286  0  -0.103455  0  -0.083066  -0.07769  0  3.988252  0
C  C95  1  0.03114647  0.89116927  0.73645468  1  0  -0.049511  0  3.748061  0  0  -0.07639  0  4.001821  0  0  -0.073762  0  4.022149  0  -0.10329  0  -0.083109  -0.077793  0  3.988126  0
C  C96  1  0.89094497  0.10026308  0.19958336  1  0  -0.198045  0  3.753014  0  0  -0.217899  0  4.009923  0  0  -0.22455  0  4.029212  0  0.043968  0  -0.106241  -0.212651  0  3.996078  0
C  C97  1  0.10905331  0.89974151  0.80041660  1  0  -0.198213  0  3.753034  0  0  -0.217972  0  4.009927  0  0  -0.224622  0  4.029213  0  0.043942  0  -0.106295  -0.212726  0  3.99608  0
C  C98  1  0.15997817  0.00416802  0.35523767  1  0  0.543162  0  3.823803  0  0  0.500049  0  4.10664  0  0  0.529261  0  4.106729  0  1.378387  0  0.236629  0.48041  0  4.106247  0
C  C99  1  0.84002051  0.99583378  0.64476222  1  0  0.543351  0  3.823579  0  0  0.500152  0  4.106477  0  0  0.529364  0  4.106563  0  1.378197  0  0.236689  0.480525  0  4.106084  0
C  C100  1  0.14897092  0.13381925  0.49719637  1  0  0.227919  0  3.761  0  0  0.224741  0  4.005428  0  0  0.229532  0  4.027909  0  0.356488  0  0.1123  0.221204  0  3.99051  0
C  C101  1  0.85103032  0.86617975  0.50280433  1  0  0.227779  0  3.761213  0  0  0.224601  0  4.0056  0  0  0.229392  0  4.028083  0  0.356634  0  0.112236  0.221071  0  3.990683  0
C  C102  1  0.27098647  0.04261385  0.52150306  1  0  -0.117303  0  3.678834  0  0  -0.143375  0  3.928529  0  0  -0.143846  0  3.94699  0  0.011019  0  -0.075287  -0.142894  0  3.916117  0
C  C103  1  0.72901419  0.95738422  0.47849708  1  0  -0.117232  0  3.679055  0  0  -0.143309  0  3.928731  0  0  -0.143779  0  3.947194  0  0.011113  0  -0.075266  -0.142833  0  3.916314  0
C  C104  1  0.30989125  0.07458354  0.60041816  1  0  -0.101731  0  3.784313  0  0  -0.114028  0  4.041191  0  0  -0.119575  0  4.063808  0  -0.016123  0  -0.083962  -0.110471  0  4.025968  0
C  C105  1  0.69010990  0.92541360  0.39958258  1  0  -0.101693  0  3.784348  0  0  -0.113984  0  4.041221  0  0  -0.11953  0  4.063837  0  -0.016654  0  -0.083968  -0.110427  0  4.026002  0
C  C106  1  0.22774448  0.19430667  0.65402628  1  0  0.097805  0  3.744262  0  0  0.062044  0  4.003679  0  0  0.067911  0  4.021891  0  0.42768  0  0.031774  0.05797  0  3.99151  0
C  C107  1  0.77225776  0.80569048  0.34597491  1  0  0.097801  0  3.744246  0  0  0.062043  0  4.003657  0  0  0.067903  0  4.021881  0  0.428132  0  0.031831  0.057968  0  3.99149  0
C  C108  1  0.06877176  0.25262452  0.55684090  1  0  0.037868  0  3.612792  0  0  0.004061  0  3.860184  0  0  0.008338  0  3.875711  0  0.528314  0  0.054145  0.001139  0  3.849723  0
C  C109  1  0.93123008  0.74737541  0.44316036  1  0  0.037941  0  3.612758  0  0  0.004122  0  3.860153  0  0  0.008398  0  3.875682  0  0.528341  0  0.054147  0.001209  0  3.84968  0
N  N110  1  0.95205738  0.42340077  0.86489173  1  0  -0.313449  0  3.34938  0  0  -0.230781  0  3.635131  0  0  -0.248059  0  3.649954  0  -1.259836  0  -0.330003  -0.218814  0  3.62447  0
N  N111  1  0.04794120  0.57659917  0.13510818  1  0  -0.313368  0  3.349309  0  0  -0.230695  0  3.635048  0  0  -0.247978  0  3.649886  0  -1.259843  0  -0.329975  -0.218727  0  3.624384  0
N  N112  1  0.22201110  0.28126129  0.99845913  1  0  -0.443445  0  3.355712  0  0  -0.393766  0  3.598421  0  0  -0.415323  0  3.608785  0  -1.244434  0  -0.397547  -0.379096  0  3.591427  0
N  N113  1  0.77798848  0.71873679  0.00153985  1  0  -0.443452  0  3.35563  0  0  -0.393772  0  3.59835  0  0  -0.415331  0  3.608713  0  -1.244404  0  -0.39754  -0.379099  0  3.591356  0
N  N114  1  0.10001194  0.11465306  0.41923878  1  0  -0.44183  0  3.322891  0  0  -0.383565  0  3.551469  0  0  -0.407115  0  3.561765  0  -1.278872  0  -0.390344  -0.367312  0  3.544121  0
N  N115  1  0.89998950  0.88534966  0.58076185  1  0  -0.441962  0  3.322796  0  0  -0.383601  0  3.551356  0  0  -0.407148  0  3.561649  0  -1.27888  0  -0.390407  -0.367375  0  3.544028  0
N  N116  1  0.10804353  0.28108460  0.63275032  1  0  -0.315961  0  3.345081  0  0  -0.234198  0  3.6227  0  0  -0.252187  0  3.639885  0  -1.255926  0  -0.325269  -0.221677  0  3.611021  0
N  N117  1  0.89195821  0.71891348  0.36725169  1  0  -0.315967  0  3.344996  0  0  -0.234208  0  3.622627  0  0  -0.252196  0  3.639813  0  -1.25613  0  -0.325286  -0.221688  0  3.610945  0
O  O118  1  0.18140449  0.49005745  0.68939160  1  0  -0.658424  0  2.070089  0  0  -0.583855  0  2.349027  0  0  -0.614476  0  2.335866  0  -1.169883  0  -0.332675  -0.5613  0  2.357107  0
O  O119  1  0.81859508  0.50994063  0.31061022  1  0  -0.658525  0  2.070037  0  0  -0.583942  0  2.348931  0  0  -0.614562  0  2.335765  0  -1.169879  0  -0.332733  -0.561387  0  2.357016  0
O  O120  1  0.09249944  0.63483612  0.59450326  1  0  -0.61967  0  1.96154  0  0  -0.570916  0  2.192933  0  0  -0.592927  0  2.181707  0  -1.193649  0  -0.315304  -0.554697  0  2.200506  0
O  O121  1  0.90750181  0.36516289  0.40549886  1  0  -0.619626  0  1.961345  0  0  -0.57094  0  2.192755  0  0  -0.592953  0  2.18153  0  -1.193724  0  -0.315271  -0.554721  0  2.20033  0
O  O122  1  0.64781945  0.45353753  0.77630554  1  0  -0.619608  0  1.891626  0  0  -0.576529  0  2.102981  0  0  -0.598042  0  2.093131  0  -1.191893  0  -0.33326  -0.561104  0  2.109104  0
O  O123  1  0.35218220  0.54645868  0.22369437  1  0  -0.619632  0  1.891587  0  0  -0.576528  0  2.10294  0  0  -0.598045  0  2.093097  0  -1.191829  0  -0.333244  -0.561103  0  2.109059  0
O  O124  1  0.80816664  0.53898378  0.67647606  1  0  -0.653667  0  2.093587  0  0  -0.575511  0  2.380784  0  0  -0.604466  0  2.362626  0  -1.160268  0  -0.334923  -0.554955  0  2.393697  0
O  O125  1  0.19183244  0.46101523  0.32352588  1  0  -0.653715  0  2.093537  0  0  -0.575544  0  2.380747  0  0  -0.604499  0  2.362587  0  -1.160288  0  -0.334922  -0.554985  0  2.393651  0
O  O126  1  0.12777124  0.29367886  0.17294425  1  0  -0.525381  0  1.985336  0  0  -0.478804  0  2.219227  0  0  -0.499489  0  2.213671  0  -1.146436  0  -0.270806  -0.46474  0  2.223375  0
O  O127  1  0.87222942  0.70631922  0.82705376  1  0  -0.525385  0  1.985403  0  0  -0.478824  0  2.219317  0  0  -0.499508  0  2.213759  0  -1.146477  0  -0.270814  -0.464758  0  2.223468  0
O  O128  1  0.85733454  0.96375342  0.08750558  1  0  -0.286865  0  2.361977  0  0  -0.21826  0  2.588475  0  0  -0.236828  0  2.59049  0  -1.101779  0  -0.145962  -0.204471  0  2.586288  0
O  O129  1  0.14266591  0.03625116  0.91249315  1  0  -0.286831  0  2.361929  0  0  -0.218247  0  2.588419  0  0  -0.23681  0  2.590434  0  -1.101665  0  -0.145988  -0.204462  0  2.586232  0
O  O130  1  0.27370049  0.90926974  0.35720228  1  0  -0.537934  0  1.887299  0  0  -0.498028  0  2.090082  0  0  -0.517485  0  2.083571  0  -1.152096  0  -0.301636  -0.484966  0  2.094311  0
O  O131  1  0.72629828  0.09073392  0.64279544  1  0  -0.537967  0  1.887152  0  0  -0.498059  0  2.089981  0  0  -0.517518  0  2.083471  0  -1.151991  0  -0.301652  -0.484997  0  2.094203  0
