# generated using pymatgen
data_CdH36C32Br2(N3O)4
_symmetry_space_group_name_H-M   'P 1'
_cell_length_a   9.99325444
_cell_length_b   16.42082597
_cell_length_c   17.16805275
_cell_angle_alpha   101.03751821
_cell_angle_beta   106.92783368
_cell_angle_gamma   89.99938267
_symmetry_Int_Tables_number   1
_chemical_formula_structural   CdH36C32Br2(N3O)4
_chemical_formula_sum   'Cd2 H72 C64 Br4 N24 O8'
_cell_volume   2640.65081849
_cell_formula_units_Z   2
loop_
 _symmetry_equiv_pos_site_id
 _symmetry_equiv_pos_as_xyz
  1  'x, y, z'
loop_
 _atom_site_type_symbol
 _atom_site_label
 _atom_site_symmetry_multiplicity
 _atom_site_fract_x
 _atom_site_fract_y
 _atom_site_fract_z
 _atom_site_occupancy
 _atom_site_pbe_bader_charge
 _atom_site_pbe_bader_spin_density
 _atom_site_pbe_cm5_charge
 _atom_site_pbe_ddec_charge
 _atom_site_pbe_ddec_spin_density
 _atom_site_pbe_ddec_sum_bond_order
 _atom_site_pbe_magmom
Cd  Cd0  1  0.00000490  0.99999472  0.99999438  1  1.146755  0  0.719406  0.694925  0  2.227833  0
Cd  Cd1  1  0.99996824  0.49999929  0.00001274  1  1.145386  0  0.720221  0.69474  0  2.228754  0
H  H2  1  0.17309628  0.84138677  0.97422364  1  0.105969  0  0.097263  0.073943  0  1.038641  0
H  H3  1  0.76124632  0.87466180  0.85031258  1  0.108937  0  0.092672  0.069509  0  1.054197  0
H  H4  1  0.74056869  0.74026819  0.74893504  1  0.161693  0  0.111088  0.141666  0  1.019285  0
H  H5  1  0.16985679  0.70501522  0.87965080  1  0.106935  0  0.095632  0.118324  0  1.027772  0
H  H6  1  0.02343697  0.43638380  0.61628270  1  0.066181  0  0.115712  0.099413  0  0.973043  0
H  H7  1  0.07115081  0.49479861  0.71787176  1  0.099111  0  0.09238  0.073862  0  1.051073  0
H  H8  1  0.08983151  0.58413035  0.58102300  1  0.04036  0  0.10912  0.088474  0  1.003035  0
H  H9  1  0.19951627  0.59976694  0.68288437  1  0.047264  0  0.112827  0.091016  0  0.987247  0
H  H10  1  0.91494253  0.56977389  0.49638130  1  0.003348  0  0.098808  0.062414  0  1.033945  0
H  H11  1  0.74382546  0.60325949  0.48994308  1  0.121748  0  0.118596  0.111407  0  0.984758  0
H  H12  1  0.68788383  0.49918939  0.55538968  1  0.095738  0  0.119444  0.115051  0  0.972223  0
H  H13  1  0.81857692  0.43363390  0.53264121  1  0.02499  0  0.108878  0.084153  0  0.979459  0
H  H14  1  0.65954153  0.48440495  0.70164952  1  0.139248  0  0.112773  0.141041  0  1.035248  0
H  H15  1  0.46235225  0.57133135  0.89350005  1  0.094405  0  0.094335  0.119906  0  1.039752  0
H  H16  1  0.69671837  0.57466294  0.99777071  1  0.092643  0  0.106809  0.084688  0  1.00602  0
H  H17  1  0.88475809  0.49146367  0.81407802  1  0.100205  0  0.100502  0.069488  0  1.041551  0
H  H18  1  0.03615032  0.60019762  0.77848684  1  0.470641  0  0.281629  0.249955  0  1.034058  0
H  H19  1  0.33072342  0.53578997  0.75706619  1  0.471318  0  0.308517  0.266811  0  0.973899  0
H  H20  1  0.19886450  0.65851533  0.02592951  1  0.114333  0  0.097252  0.073663  0  1.039999  0
H  H21  1  0.91063670  0.62522567  0.14961059  1  0.095824  0  0.09289  0.070036  0  1.05422  0
H  H22  1  0.99144583  0.75955532  0.25113995  1  0.129541  0  0.11134  0.141175  0  1.019111  0
H  H23  1  0.29033870  0.79479513  0.12066528  1  0.109924  0  0.095538  0.117327  0  1.027712  0
H  H24  1  0.40708206  0.06352103  0.38365940  1  0.067387  0  0.115469  0.098815  0  0.973831  0
H  H25  1  0.35325603  0.00502925  0.28210322  1  0.056066  0  0.092003  0.072523  0  1.052333  0
H  H26  1  0.50887713  0.91590262  0.41913474  1  0.064832  0  0.108994  0.085521  0  1.006464  0
H  H27  1  0.51670845  0.90011809  0.31727749  1  0.059297  0  0.112782  0.090453  0  0.987005  0
H  H28  1  0.41845203  0.93018540  0.50355678  1  0.021514  0  0.09879  0.063177  0  1.034055  0
H  H29  1  0.25374536  0.89677601  0.51002034  1  0.124871  0  0.11847  0.111718  0  0.984718  0
H  H30  1  0.13243296  0.00087130  0.44456789  1  0.107025  0  0.120027  0.116133  0  0.971256  0
H  H31  1  0.28595842  0.06635780  0.46729459  1  0.025264  0  0.108775  0.083674  0  0.980005  0
H  H32  1  0.95765398  0.01572826  0.29830270  1  0.189035  0  0.112821  0.141296  0  1.03505  0
H  H33  1  0.56841155  0.92888593  0.10654961  1  0.084312  0  0.093794  0.118573  0  1.041893  0
H  H34  1  0.69832648  0.92556079  0.00221966  1  0.106902  0  0.107088  0.08493  0  1.005179  0
H  H35  1  0.07026629  0.00864660  0.18583992  1  0.07325  0  0.100458  0.069371  0  1.042033  0
H  H36  1  0.25758620  0.89958906  0.22161295  1  0.468365  0  0.281829  0.249762  0  1.034327  0
H  H37  1  0.57345113  0.96429271  0.24304329  1  0.475376  0  0.308605  0.266217  0  0.976215  0
H  H38  1  0.82688969  0.15860871  0.02577161  1  0.105654  0  0.097189  0.073823  0  1.038699  0
H  H39  1  0.23874511  0.12533116  0.14967118  1  0.109298  0  0.092731  0.069566  0  1.054144  0
H  H40  1  0.25942383  0.25972104  0.25104838  1  0.161561  0  0.111151  0.141712  0  1.019296  0
H  H41  1  0.83013726  0.29497965  0.12034828  1  0.106913  0  0.095619  0.118294  0  1.027869  0
H  H42  1  0.97656840  0.56360546  0.38371354  1  0.066145  0  0.11565  0.099367  0  0.973096  0
H  H43  1  0.92885741  0.50519625  0.28212371  1  0.099031  0  0.092392  0.073879  0  1.050987  0
H  H44  1  0.91016942  0.41585579  0.41896434  1  0.040517  0  0.109169  0.088574  0  1.002981  0
H  H45  1  0.80048845  0.40022541  0.31710214  1  0.047282  0  0.112815  0.091033  0  0.987286  0
H  H46  1  0.08506779  0.43020729  0.50360864  1  0.003451  0  0.098776  0.062312  0  1.034034  0
H  H47  1  0.25619252  0.39673163  0.51005027  1  0.12155  0  0.118641  0.111356  0  0.984749  0
H  H48  1  0.31212083  0.50080484  0.44460217  1  0.095831  0  0.119437  0.115004  0  0.972251  0
H  H49  1  0.18142485  0.56635723  0.46735477  1  0.02524  0  0.108853  0.084124  0  0.979456  0
H  H50  1  0.34045590  0.51560049  0.29835397  1  0.139115  0  0.112813  0.141132  0  1.035338  0
H  H51  1  0.53760862  0.42865356  0.10649314  1  0.094233  0  0.094339  0.11989  0  1.039898  0
H  H52  1  0.30323788  0.42533628  0.00223075  1  0.092484  0  0.106846  0.08479  0  1.005901  0
H  H53  1  0.11524088  0.50855671  0.18593684  1  0.099519  0  0.100566  0.06952  0  1.04161  0
H  H54  1  0.96385326  0.39979413  0.22150890  1  0.470411  0  0.281658  0.250088  0  1.033899  0
H  H55  1  0.66925776  0.46419495  0.24293055  1  0.471301  0  0.308464  0.266799  0  0.973706  0
H  H56  1  0.80110971  0.34147768  0.97407464  1  0.113821  0  0.09718  0.073489  0  1.039946  0
H  H57  1  0.08935051  0.37478355  0.85041127  1  0.095639  0  0.092925  0.070037  0  1.054309  0
H  H58  1  0.00856697  0.24045512  0.74887833  1  0.130008  0  0.111334  0.141098  0  1.019057  0
H  H59  1  0.70965865  0.20520037  0.87934028  1  0.109707  0  0.095489  0.117324  0  1.027734  0
H  H60  1  0.59293454  0.93648563  0.61633411  1  0.067834  0  0.115407  0.098662  0  0.973967  0
H  H61  1  0.64675750  0.99496624  0.71789761  1  0.056141  0  0.09203  0.072531  0  1.052326  0
H  H62  1  0.49114628  0.08410719  0.58087631  1  0.06452  0  0.109015  0.085556  0  1.006455  0
H  H63  1  0.48331660  0.09988488  0.68273244  1  0.058563  0  0.112776  0.090501  0  0.986975  0
H  H64  1  0.58156155  0.06981941  0.49644607  1  0.021376  0  0.098699  0.06298  0  1.03409  0
H  H65  1  0.74626763  0.10323440  0.48998456  1  0.124799  0  0.11844  0.111638  0  0.984761  0
H  H66  1  0.86759014  0.99914161  0.55543899  1  0.106792  0  0.119958  0.115962  0  0.971282  0
H  H67  1  0.71406814  0.93365199  0.53271230  1  0.02539  0  0.108796  0.083619  0  0.979975  0
H  H68  1  0.04235529  0.98428027  0.70169412  1  0.189009  0  0.112852  0.141288  0  1.035069  0
H  H69  1  0.43159100  0.07112758  0.89345249  1  0.084329  0  0.093884  0.118776  0  1.041744  0
H  H70  1  0.30166994  0.07444650  0.99777883  1  0.106949  0  0.10714  0.08498  0  1.005169  0
H  H71  1  0.92973893  0.99135322  0.81415514  1  0.0734  0  0.100483  0.069285  0  1.041966  0
H  H72  1  0.74242147  0.10041141  0.77839087  1  0.468378  0  0.281834  0.249778  0  1.034314  0
H  H73  1  0.42655826  0.03571646  0.75696207  1  0.47524  0  0.30852  0.266053  0  0.976515  0
C  C74  1  0.07890937  0.81637295  0.92375489  1  0.469757  0  0.031796  0.101225  0  3.988979  0
C  C75  1  0.84951065  0.83476560  0.85470118  1  0.458516  0  0.030638  0.096608  0  3.998757  0
C  C76  1  0.83759882  0.76045530  0.79806382  1  -0.012188  0  -0.098853  -0.234781  0  3.924537  0
C  C77  1  0.07714611  0.74122696  0.87069954  1  -0.007105  0  -0.099852  -0.236287  0  3.945497  0
C  C78  1  0.95454131  0.71156791  0.80532056  1  0.347041  0  0.119248  0.307493  0  4.008277  0
C  C79  1  0.85911501  0.60444414  0.67682126  1  1.78363  0  0.326559  0.566884  0  4.185243  0
C  C80  1  0.03332510  0.50025128  0.65210803  1  0.241762  0  -0.064764  -0.090319  0  3.909589  0
C  C81  1  0.14377083  0.55087921  0.63004771  1  0.329711  0  -0.060805  -0.084518  0  3.921232  0
C  C82  1  0.80535627  0.54841139  0.48469439  1  0.30974  0  -0.059848  -0.075874  0  3.912822  0
C  C83  1  0.79512006  0.49869412  0.55077155  1  0.318188  0  -0.057485  -0.075314  0  3.88897  0
C  C84  1  0.37711349  0.48718650  0.64660335  1  1.822851  0  0.330065  0.571526  0  4.189737  0
C  C85  1  0.66381015  0.50557459  0.76614488  1  0.071988  0  -0.096539  -0.231446  0  3.926267  0
C  C86  1  0.54168099  0.52690035  0.78841222  1  0.34899  0  0.122839  0.31085  0  4.020832  0
C  C87  1  0.55441623  0.55447437  0.87331047  1  0.01753  0  -0.101096  -0.246762  0  3.947665  0
C  C88  1  0.68430899  0.55650397  0.93140304  1  0.473636  0  0.037628  0.106663  0  3.990051  0
C  C89  1  0.78850344  0.50943413  0.82877587  1  0.435012  0  0.0339  0.103691  0  4.001431  0
C  C90  1  0.15513702  0.68349562  0.07639919  1  0.466695  0  0.031743  0.100828  0  3.991416  0
C  C91  1  0.99461940  0.66511608  0.14532935  1  0.47097  0  0.030468  0.095427  0  4.001712  0
C  C92  1  0.03939978  0.73938185  0.20204106  1  0.010927  0  -0.099344  -0.234247  0  3.924604  0
C  C93  1  0.20650300  0.75858671  0.12952485  1  -0.009468  0  -0.099526  -0.235332  0  3.947851  0
C  C94  1  0.14918695  0.78824122  0.19484787  1  0.332749  0  0.11966  0.308526  0  4.008097  0
C  C95  1  0.18223371  0.89546328  0.32326515  1  1.830094  0  0.327155  0.562971  0  4.186002  0
C  C96  1  0.38116123  0.99963630  0.34787898  1  0.286698  0  -0.065126  -0.093505  0  3.906272  0
C  C97  1  0.51373643  0.94905819  0.37004606  1  0.280226  0  -0.060607  -0.082371  0  3.92126  0
C  C98  1  0.32058766  0.95159049  0.51525596  1  0.289341  0  -0.060024  -0.078084  0  3.914643  0
C  C99  1  0.24429530  0.00131289  0.44918885  1  0.328427  0  -0.05765  -0.079896  0  3.886809  0
C  C100  1  0.73050428  0.01276582  0.35347441  1  1.79865  0  0.330168  0.571152  0  4.190184  0
C  C101  1  0.89733804  0.99461315  0.23381284  1  -0.02431  0  -0.096761  -0.232707  0  3.926654  0
C  C102  1  0.75294492  0.97327823  0.21159158  1  0.337178  0  0.122272  0.31011  0  4.020868  0
C  C103  1  0.68066603  0.94576113  0.12670442  1  0.005736  0  -0.100178  -0.243953  0  3.948443  0
C  C104  1  0.75239344  0.94372677  0.06858353  1  0.469065  0  0.036894  0.105403  0  3.990618  0
C  C105  1  0.95930384  0.99073013  0.17115086  1  0.51261  0  0.034151  0.104184  0  4.000685  0
C  C106  1  0.92107514  0.18361943  0.07624069  1  0.46997  0  0.031962  0.101411  0  3.989302  0
C  C107  1  0.15047588  0.16522737  0.14528498  1  0.458125  0  0.030571  0.096558  0  3.998885  0
C  C108  1  0.16239564  0.23953581  0.20192382  1  -0.012633  0  -0.098909  -0.234875  0  3.924607  0
C  C109  1  0.92284124  0.25876479  0.12929672  1  -0.007267  0  -0.099835  -0.236281  0  3.945641  0
C  C110  1  0.04545343  0.28842259  0.19467251  1  0.347913  0  0.119188  0.307469  0  4.008241  0
C  C111  1  0.14089125  0.39554884  0.32316999  1  1.782665  0  0.326454  0.566816  0  4.185583  0
C  C112  1  0.96667957  0.49974295  0.34788592  1  0.241895  0  -0.064815  -0.090322  0  3.909251  0
C  C113  1  0.85623210  0.44910942  0.36994187  1  0.329146  0  -0.060801  -0.084637  0  3.921368  0
C  C114  1  0.19465687  0.45157786  0.51529603  1  0.3097  0  -0.059962  -0.075737  0  3.912934  0
C  C115  1  0.20488467  0.50129763  0.44922325  1  0.317998  0  -0.057429  -0.07519  0  3.888956  0
C  C116  1  0.62289085  0.51279841  0.35339145  1  1.822626  0  0.330221  0.571867  0  4.189311  0
C  C117  1  0.33617754  0.49442898  0.23385811  1  0.073002  0  -0.096546  -0.231388  0  3.926536  0
C  C118  1  0.45830745  0.47309327  0.21158844  1  0.34795  0  0.122589  0.310319  0  4.021142  0
C  C119  1  0.44555873  0.44551801  0.12668706  1  0.018243  0  -0.100992  -0.246534  0  3.947724  0
C  C120  1  0.31565960  0.44349712  0.06859840  1  0.473107  0  0.037623  0.106599  0  3.989619  0
C  C121  1  0.21148571  0.49057815  0.17123151  1  0.435242  0  0.033925  0.103698  0  4.001728  0
C  C122  1  0.84484456  0.31650115  0.92361269  1  0.466809  0  0.031977  0.101302  0  3.990807  0
C  C123  1  0.00537853  0.33489064  0.85468626  1  0.471352  0  0.030241  0.095271  0  4.001866  0
C  C124  1  0.96060142  0.26062549  0.79797682  1  0.010772  0  -0.099209  -0.233961  0  3.924589  0
C  C125  1  0.79349608  0.24140879  0.87048035  1  -0.066262  0  -0.099478  -0.235382  0  3.947965  0
C  C126  1  0.85081313  0.21176113  0.80516213  1  0.389216  0  0.119561  0.308286  0  4.008655  0
C  C127  1  0.81777565  0.10454838  0.67674146  1  1.829036  0  0.327161  0.562996  0  4.185589  0
C  C128  1  0.61885458  0.00036788  0.65211976  1  0.286979  0  -0.06498  -0.093165  0  3.906255  0
C  C129  1  0.48628397  0.05094788  0.62996058  1  0.280434  0  -0.06072  -0.082567  0  3.921265  0
C  C130  1  0.67942966  0.04841682  0.48474877  1  0.289736  0  -0.05981  -0.077769  0  3.914637  0
C  C131  1  0.75572232  0.99869752  0.55081650  1  0.328055  0  -0.057577  -0.079497  0  3.886506  0
C  C132  1  0.26951815  0.98724335  0.64653038  1  1.79893  0  0.330036  0.571233  0  4.189891  0
C  C133  1  0.10266921  0.00539538  0.76618510  1  -0.024088  0  -0.096673  -0.232553  0  3.926749  0
C  C134  1  0.24706130  0.02673155  0.78840755  1  0.336461  0  0.122288  0.310155  0  4.020911  0
C  C135  1  0.31933761  0.05425176  0.87329662  1  0.006516  0  -0.10026  -0.244257  0  3.948496  0
C  C136  1  0.24760918  0.05628176  0.93141606  1  0.468907  0  0.036746  0.105296  0  3.990323  0
C  C137  1  0.04070262  0.00927342  0.82884476  1  0.512724  0  0.034043  0.104106  0  4.000962  0
Br  Br138  1  0.29172804  0.96666574  0.11252676  1  -0.703129  0  -0.317771  -0.583877  0  0.995024  0
Br  Br139  1  0.17955618  0.53337188  0.88748738  1  -0.701902  0  -0.318133  -0.584569  0  0.994034  0
Br  Br140  1  0.70822350  0.03333776  0.88744852  1  -0.703233  0  -0.317774  -0.583865  0  0.994766  0
Br  Br141  1  0.82043498  0.46662859  0.11251772  1  -0.701849  0  -0.318089  -0.584526  0  0.99427  0
N  N142  1  0.96720492  0.86357086  0.91655272  1  -1.260566  0  -0.344023  -0.263587  0  3.515758  0
N  N143  1  0.89336589  0.53171170  0.63295031  1  -1.119601  0  -0.294528  -0.17472  0  3.584091  0
N  N144  1  0.95809220  0.63650752  0.75293070  1  -1.260595  0  -0.409164  -0.417891  0  3.56591  0
N  N145  1  0.80032837  0.53344170  0.91006375  1  -1.256721  0  -0.355833  -0.25831  0  3.563973  0
N  N146  1  0.24349403  0.49889781  0.60030972  1  -1.161529  0  -0.293796  -0.168958  0  3.629896  0
N  N147  1  0.41014064  0.52246951  0.73147445  1  -1.263784  0  -0.402603  -0.408448  0  3.540643  0
N  N148  1  0.05050772  0.63634382  0.08349979  1  -1.244231  0  -0.3438  -0.262714  0  3.5175  0
N  N149  1  0.26035175  0.96821772  0.36704021  1  -1.175946  0  -0.294596  -0.159747  0  3.568456  0
N  N150  1  0.20511710  0.86330923  0.24719669  1  -1.265027  0  -0.409044  -0.418097  0  3.566476  0
N  N151  1  0.88976201  0.96674344  0.08986712  1  -1.247586  0  -0.355761  -0.258689  0  3.563461  0
N  N152  1  0.64315589  0.00109013  0.39975153  1  -1.147643  0  -0.293272  -0.166558  0  3.626405  0
N  N153  1  0.67847206  0.97763870  0.26857812  1  -1.231496  0  -0.402854  -0.407735  0  3.541204  0
N  N154  1  0.03277793  0.13642274  0.08343714  1  -1.260953  0  -0.344095  -0.263605  0  3.516129  0
N  N155  1  0.10664416  0.46828129  0.36704367  1  -1.11954  0  -0.294394  -0.174745  0  3.583983  0
N  N156  1  0.04190858  0.36348547  0.24706237  1  -1.259146  0  -0.409184  -0.418014  0  3.565754  0
N  N157  1  0.19964332  0.46656996  0.08994287  1  -1.255973  0  -0.355862  -0.25834  0  3.56387  0
N  N158  1  0.75650946  0.50109331  0.39968380  1  -1.160994  0  -0.293876  -0.168903  0  3.63025  0
N  N159  1  0.58984276  0.47751728  0.26852364  1  -1.263694  0  -0.40259  -0.408395  0  3.540649  0
N  N160  1  0.94947652  0.36365917  0.91651641  1  -1.243952  0  -0.343853  -0.262868  0  3.517377  0
N  N161  1  0.73966751  0.03179146  0.63296664  1  -1.175819  0  -0.294684  -0.160049  0  3.568258  0
N  N162  1  0.79488607  0.13669559  0.75280830  1  -1.264658  0  -0.408979  -0.418028  0  3.566499  0
N  N163  1  0.11023823  0.03325887  0.91012739  1  -1.247918  0  -0.355732  -0.258513  0  3.5633  0
N  N164  1  0.35686219  0.99891594  0.60025489  1  -1.14782  0  -0.293071  -0.166507  0  3.626184  0
N  N165  1  0.32153436  0.02236984  0.73142421  1  -1.232015  0  -0.402835  -0.407615  0  3.541454  0
O  O166  1  0.74900603  0.63778377  0.64938694  1  -1.153845  0  -0.308565  -0.514962  0  2.089814  0
O  O167  1  0.46008429  0.44792770  0.61503896  1  -1.153919  0  -0.303868  -0.506787  0  2.096715  0
O  O168  1  0.09956878  0.86216759  0.35072965  1  -1.159203  0  -0.309452  -0.516037  0  2.092012  0
O  O169  1  0.84514609  0.05190073  0.38507497  1  -1.157466  0  -0.303384  -0.506849  0  2.100078  0
O  O170  1  0.25100476  0.36221107  0.35060379  1  -1.154061  0  -0.308549  -0.514923  0  2.089994  0
O  O171  1  0.53991579  0.55206595  0.38496914  1  -1.15372  0  -0.303907  -0.507062  0  2.096151  0
O  O172  1  0.90043348  0.13785153  0.64927794  1  -1.158774  0  -0.309545  -0.516057  0  2.091803  0
O  O173  1  0.15486250  0.94810346  0.61492596  1  -1.157018  0  -0.303257  -0.506831  0  2.099659  0
