# generated using pymatgen
data_LuH24C24(NO2)6
_symmetry_space_group_name_H-M   'P 1'
_cell_length_a   15.76925773
_cell_length_b   15.76926393
_cell_length_c   16.84664766
_cell_angle_alpha   89.99997800
_cell_angle_beta   89.99999511
_cell_angle_gamma   120.00002455
_symmetry_Int_Tables_number   1
_chemical_formula_structural   LuH24C24(NO2)6
_chemical_formula_sum   'Lu4 H96 C96 N24 O48'
_cell_volume   3627.99508765
_cell_formula_units_Z   4
loop_
 _symmetry_equiv_pos_site_id
 _symmetry_equiv_pos_as_xyz
  1  'x, y, z'
loop_
 _atom_site_type_symbol
 _atom_site_label
 _atom_site_symmetry_multiplicity
 _atom_site_fract_x
 _atom_site_fract_y
 _atom_site_fract_z
 _atom_site_occupancy
 _atom_site_pbe_bader_charge
 _atom_site_pbe_bader_spin_density
 _atom_site_pbe_cm5_charge
 _atom_site_pbe_ddec_charge
 _atom_site_pbe_ddec_spin_density
 _atom_site_pbe_ddec_sum_bond_order
 _atom_site_pbe_magmom
Lu  Lu0  1  0.66666711  0.33333318  0.32856202  1  2.144532  0  1.320671  1.452379  0  2.997645  0
Lu  Lu1  1  0.33333207  0.66666423  0.17143932  1  2.144429  0  1.320702  1.452352  0  2.997724  0
Lu  Lu2  1  0.33333368  0.66666871  0.67143909  1  2.144575  0  1.320729  1.452332  0  2.997764  0
Lu  Lu3  1  0.66666918  0.33333593  0.82856060  1  2.144429  0  1.320705  1.452342  0  2.997724  0
H  H4  1  0.73743813  0.48664237  0.50545950  1  0.09719  0  0.106833  0.126419  0  1.011963  0
H  H5  1  0.51335704  0.25079559  0.50545895  1  0.086268  0  0.10681  0.126379  0  1.011982  0
H  H6  1  0.74920495  0.26256251  0.50545954  1  0.088339  0  0.106847  0.126422  0  1.011976  0
H  H7  1  0.48664139  0.73743740  0.99454015  1  0.097239  0  0.106847  0.126405  0  1.011978  0
H  H8  1  0.25079581  0.51335764  0.99454138  1  0.086262  0  0.106837  0.126427  0  1.011946  0
H  H9  1  0.26256177  0.74920379  0.99454015  1  0.088348  0  0.106829  0.126408  0  1.011927  0
H  H10  1  0.26256149  0.51335688  0.49453983  1  0.097196  0  0.106812  0.126412  0  1.011961  0
H  H11  1  0.48664384  0.74920493  0.49454037  1  0.086259  0  0.106817  0.126414  0  1.011955  0
H  H12  1  0.25079557  0.73743838  0.49453979  1  0.08835  0  0.106825  0.126402  0  1.011941  0
H  H13  1  0.51335786  0.26256221  0.00545977  1  0.097187  0  0.106823  0.126396  0  1.011941  0
H  H14  1  0.74920471  0.48664325  0.00545913  1  0.086265  0  0.106833  0.126419  0  1.011968  0
H  H15  1  0.73743812  0.25079646  0.00546036  1  0.088352  0  0.106824  0.126411  0  1.011937  0
H  H16  1  0.84223567  0.65036603  0.56667639  1  0.081119  0  0.103062  0.10047  0  1.008241  0
H  H17  1  0.34963497  0.19186915  0.56667649  1  0.065972  0  0.103063  0.100479  0  1.008219  0
H  H18  1  0.80813046  0.15776549  0.56667648  1  0.103145  0  0.103076  0.100486  0  1.008254  0
H  H19  1  0.65036477  0.84223532  0.93332438  1  0.081141  0  0.103086  0.100513  0  1.008194  0
H  H20  1  0.19187015  0.34963493  0.93332390  1  0.066225  0  0.103087  0.100509  0  1.008238  0
H  H21  1  0.15776435  0.80812964  0.93332441  1  0.10359  0  0.103078  0.100505  0  1.008217  0
H  H22  1  0.15776295  0.34963295  0.43332412  1  0.081205  0  0.103073  0.100501  0  1.008242  0
H  H23  1  0.65036629  0.80813100  0.43332402  1  0.066082  0  0.103082  0.10051  0  1.00823  0
H  H24  1  0.19186870  0.84223549  0.43332403  1  0.103138  0  0.103071  0.100472  0  1.008252  0
H  H25  1  0.34963512  0.15776493  0.06667613  1  0.081128  0  0.103089  0.100497  0  1.008223  0
H  H26  1  0.80813074  0.65036559  0.06667602  1  0.066105  0  0.103078  0.100495  0  1.008241  0
H  H27  1  0.84223590  0.19187025  0.06667611  1  0.103578  0  0.103082  0.100486  0  1.008267  0
H  H28  1  0.02037402  0.74899468  0.53354875  1  0.097955  0  0.099207  0.101213  0  1.005435  0
H  H29  1  0.25100442  0.27137762  0.53355001  1  0.052252  0  0.099218  0.101279  0  1.005349  0
H  H30  1  0.72862179  0.97962722  0.53354927  1  0.052472  0  0.099215  0.101213  0  1.005422  0
H  H31  1  0.74899340  0.02037312  0.96645218  1  0.098055  0  0.09919  0.101207  0  1.005553  0
H  H32  1  0.27137830  0.25100481  0.96645098  1  0.05227  0  0.099216  0.101212  0  1.005457  0
H  H33  1  0.97962651  0.72862121  0.96645145  1  0.052255  0  0.099216  0.101228  0  1.005432  0
H  H34  1  0.97962559  0.25100457  0.46645236  1  0.09799  0  0.099199  0.101183  0  1.005478  0
H  H35  1  0.74899620  0.72862189  0.46645050  1  0.052242  0  0.099226  0.101266  0  1.005366  0
H  H36  1  0.27137836  0.02037403  0.46645065  1  0.052393  0  0.09924  0.101287  0  1.005329  0
H  H37  1  0.25100485  0.97962623  0.03354892  1  0.098014  0  0.099209  0.10122  0  1.005445  0
H  H38  1  0.72862258  0.74899571  0.03354954  1  0.052253  0  0.099233  0.101288  0  1.005352  0
H  H39  1  0.02037374  0.27137867  0.03354846  1  0.052421  0  0.099201  0.101195  0  1.005457  0
H  H40  1  0.09343305  0.67813117  0.44255024  1  0.119135  0  0.103217  0.100227  0  1.041273  0
H  H41  1  0.32186759  0.41530078  0.44255146  1  0.07054  0  0.103189  0.100181  0  1.04134  0
H  H42  1  0.58469866  0.90656738  0.44255077  1  0.064  0  0.103192  0.100184  0  1.041311  0
H  H43  1  0.67812936  0.09343171  0.05744996  1  0.119164  0  0.103213  0.100243  0  1.041262  0
H  H44  1  0.41530130  0.32186860  0.05744934  1  0.070546  0  0.103174  0.100163  0  1.041356  0
H  H45  1  0.90656720  0.58469803  0.05744986  1  0.063998  0  0.103218  0.100237  0  1.041271  0
H  H46  1  0.90656784  0.32186935  0.55745028  1  0.119146  0  0.103206  0.100216  0  1.041289  0
H  H47  1  0.67813230  0.58469947  0.55744905  1  0.070546  0  0.103193  0.10019  0  1.041328  0
H  H48  1  0.41530059  0.09343223  0.55744974  1  0.063999  0  0.103194  0.100196  0  1.041321  0
H  H49  1  0.32186990  0.90656791  0.94254996  1  0.119158  0  0.103212  0.100231  0  1.041286  0
H  H50  1  0.58469922  0.67813229  0.94255058  1  0.070539  0  0.103199  0.100189  0  1.04131  0
H  H51  1  0.09343342  0.41530149  0.94255065  1  0.064  0  0.103197  0.10019  0  1.041297  0
H  H52  1  0.08561455  0.55268664  0.36584716  1  0.16952  0  0.128346  0.09632  0  1.013992  0
H  H53  1  0.44731285  0.53292855  0.36584715  1  0.165354  0  0.128336  0.096334  0  1.013943  0
H  H54  1  0.46707157  0.91438459  0.36584768  1  0.164102  0  0.128334  0.096338  0  1.013968  0
H  H55  1  0.55268599  0.08561442  0.13415306  1  0.169523  0  0.128345  0.09634  0  1.013998  0
H  H56  1  0.53292779  0.44731252  0.13415300  1  0.165365  0  0.128331  0.096314  0  1.013979  0
H  H57  1  0.91438403  0.46707133  0.13415298  1  0.164083  0  0.128335  0.096333  0  1.013962  0
H  H58  1  0.91438507  0.44731261  0.63415276  1  0.169518  0  0.12834  0.096325  0  1.013992  0
H  H59  1  0.55268767  0.46707234  0.63415277  1  0.165373  0  0.128352  0.096356  0  1.013938  0
H  H60  1  0.53292832  0.08561566  0.63415224  1  0.164095  0  0.128336  0.096374  0  1.013916  0
H  H61  1  0.44731363  0.91438483  0.86584745  1  0.169511  0  0.128338  0.09631  0  1.014004  0
H  H62  1  0.46707209  0.55268773  0.86584752  1  0.165368  0  0.128339  0.096364  0  1.01389  0
H  H63  1  0.08561596  0.53292756  0.86584694  1  0.164079  0  0.128349  0.096318  0  1.01396  0
H  H64  1  0.98885972  0.30874132  0.31924443  1  0.10849  0  0.123915  0.10888  0  0.949958  0
H  H65  1  0.69125694  0.68011777  0.31924497  1  0.10891  0  0.123905  0.108843  0  0.950025  0
H  H66  1  0.31988231  0.01114027  0.31924510  1  0.094665  0  0.123907  0.108865  0  0.949969  0
H  H67  1  0.30874129  0.98885929  0.18075565  1  0.108501  0  0.123922  0.108905  0  0.949947  0
H  H68  1  0.68011765  0.69125713  0.18075569  1  0.108919  0  0.123888  0.108838  0  0.950015  0
H  H69  1  0.01114088  0.31988279  0.18075519  1  0.094778  0  0.123894  0.108833  0  0.950016  0
H  H70  1  0.01114026  0.69125756  0.68075549  1  0.108504  0  0.123913  0.108891  0  0.949982  0
H  H71  1  0.30874295  0.31988247  0.68075495  1  0.108917  0  0.12391  0.108872  0  0.950011  0
H  H72  1  0.68011758  0.98885998  0.68075541  1  0.09468  0  0.123912  0.108876  0  0.949976  0
H  H73  1  0.69125797  0.01114032  0.81924427  1  0.108516  0  0.123908  0.108883  0  0.949995  0
H  H74  1  0.31988287  0.30874375  0.81924482  1  0.108927  0  0.123867  0.108804  0  0.950058  0
H  H75  1  0.98885937  0.68011710  0.81924473  1  0.094775  0  0.123912  0.108891  0  0.949975  0
H  H76  1  0.09142543  0.42713524  0.30331546  1  0.059291  0  0.118757  0.100478  0  1.00213  0
H  H77  1  0.57286335  0.66428940  0.30331480  1  0.095099  0  0.118783  0.100527  0  1.00202  0
H  H78  1  0.33570933  0.90857355  0.30331596  1  0.102388  0  0.11876  0.100477  0  1.00214  0
H  H79  1  0.42713550  0.09142550  0.19668479  1  0.059296  0  0.118755  0.100469  0  1.002132  0
H  H80  1  0.66428965  0.57286322  0.19668529  1  0.095093  0  0.118768  0.100477  0  1.002048  0
H  H81  1  0.90857399  0.33570939  0.19668473  1  0.102394  0  0.118771  0.100511  0  1.002079  0
H  H82  1  0.90857419  0.57286401  0.69668506  1  0.059291  0  0.118765  0.100499  0  1.002094  0
H  H83  1  0.42713654  0.33571085  0.69668512  1  0.095097  0  0.118766  0.10051  0  1.002019  0
H  H84  1  0.66429029  0.09142570  0.69668456  1  0.1024  0  0.11876  0.100473  0  1.002104  0
H  H85  1  0.57286412  0.90857375  0.80331512  1  0.059274  0  0.118756  0.100485  0  1.002107  0
H  H86  1  0.33571061  0.42713666  0.80331463  1  0.095088  0  0.118766  0.100481  0  1.002039  0
H  H87  1  0.09142626  0.66429049  0.80331519  1  0.102394  0  0.118755  0.100481  0  1.002105  0
H  H88  1  0.88747450  0.38247899  0.34509704  1  0.519773  0  0.317774  0.27119  0  0.99269  0
H  H89  1  0.61751897  0.50499430  0.34509822  1  0.512947  0  0.317777  0.271194  0  0.992628  0
H  H90  1  0.49500484  0.11252542  0.34509770  1  0.514687  0  0.317771  0.271183  0  0.992703  0
H  H91  1  0.38247903  0.88747416  0.15490245  1  0.519853  0  0.317776  0.271184  0  0.992674  0
H  H92  1  0.50499447  0.61751880  0.15490250  1  0.512953  0  0.317785  0.27121  0  0.992609  0
H  H93  1  0.11252469  0.49500536  0.15490194  1  0.514697  0  0.317766  0.271191  0  0.99267  0
H  H94  1  0.11252548  0.61751990  0.65490229  1  0.519771  0  0.317773  0.271197  0  0.992669  0
H  H95  1  0.38248091  0.49500595  0.65490170  1  0.512927  0  0.317777  0.271204  0  0.992619  0
H  H96  1  0.50499531  0.88747583  0.65490163  1  0.514706  0  0.31777  0.271191  0  0.99267  0
H  H97  1  0.61751986  0.11252582  0.84509747  1  0.519771  0  0.317776  0.271192  0  0.99268  0
H  H98  1  0.49500578  0.38248108  0.84509742  1  0.512946  0  0.317782  0.271197  0  0.992617  0
H  H99  1  0.88747492  0.50499389  0.84509857  1  0.5147  0  0.317775  0.271215  0  0.992632  0
C  C100  1  0.85411781  0.48878386  0.43790184  1  0.737877  0  0.109094  0.353739  0  4.060423  0
C  C101  1  0.51121627  0.36533481  0.43790247  1  0.674171  0  0.109114  0.353714  0  4.060435  0
C  C102  1  0.63466472  0.14588195  0.43790250  1  0.695588  0  0.109118  0.353764  0  4.060389  0
C  C103  1  0.48878201  0.85411702  0.06209883  1  0.74541  0  0.109121  0.35386  0  4.060321  0
C  C104  1  0.36533435  0.51121553  0.06209830  1  0.674342  0  0.109076  0.353712  0  4.060477  0
C  C105  1  0.14588199  0.63466450  0.06209769  1  0.697863  0  0.109185  0.353854  0  4.060298  0
C  C106  1  0.14588298  0.51121802  0.56209749  1  0.737925  0  0.10911  0.353785  0  4.060365  0
C  C107  1  0.48878235  0.63466417  0.56209686  1  0.674179  0  0.109133  0.353826  0  4.060383  0
C  C108  1  0.36533616  0.85411856  0.56209564  1  0.695586  0  0.109141  0.353804  0  4.060419  0
C  C109  1  0.51121787  0.14588323  0.93790168  1  0.745423  0  0.109171  0.353918  0  4.060236  0
C  C110  1  0.63466527  0.48878372  0.93790221  1  0.674361  0  0.109096  0.353699  0  4.060469  0
C  C111  1  0.85411853  0.36533639  0.93790341  1  0.697867  0  0.109129  0.353754  0  4.060445  0
C  C112  1  0.81543640  0.52939681  0.49231740  1  -0.081008  0  -0.107167  -0.226379  0  3.948374  0
C  C113  1  0.47060248  0.28603931  0.49231746  1  -0.051638  0  -0.107193  -0.226376  0  3.94837  0
C  C114  1  0.71396062  0.18456372  0.49231747  1  -0.064334  0  -0.10719  -0.2264  0  3.948368  0
C  C115  1  0.52939603  0.81543594  0.00768267  1  -0.088609  0  -0.107213  -0.226407  0  3.948298  0
C  C116  1  0.28603912  0.47060277  0.00768333  1  -0.05183  0  -0.107178  -0.226392  0  3.948377  0
C  C117  1  0.18456351  0.71395939  0.00768270  1  -0.066593  0  -0.107241  -0.226456  0  3.948255  0
C  C118  1  0.18456285  0.47060280  0.50768192  1  -0.081036  0  -0.107166  -0.226397  0  3.948363  0
C  C119  1  0.52939714  0.71395994  0.50768127  1  -0.051604  0  -0.107194  -0.226429  0  3.948335  0
C  C120  1  0.28603990  0.81543717  0.50768126  1  -0.064291  0  -0.107178  -0.226398  0  3.948276  0
C  C121  1  0.47060359  0.18456331  0.99231725  1  -0.088538  0  -0.107232  -0.226458  0  3.948278  0
C  C122  1  0.71396077  0.52939748  0.99231718  1  -0.051824  0  -0.107173  -0.226391  0  3.948359  0
C  C123  1  0.81543738  0.28604113  0.99231841  1  -0.066565  0  -0.10717  -0.226393  0  3.94829  0
C  C124  1  0.87439901  0.62103229  0.52536728  1  -0.104647  0  -0.081385  -0.035358  0  4.014604  0
C  C125  1  0.37896757  0.25336646  0.52536796  1  -0.049583  0  -0.081344  -0.035293  0  4.014682  0
C  C126  1  0.74663353  0.12560169  0.52536738  1  -0.094696  0  -0.08138  -0.035347  0  4.014677  0
C  C127  1  0.62103099  0.87439862  0.97463289  1  -0.104658  0  -0.081386  -0.035376  0  4.014654  0
C  C128  1  0.25336646  0.37896725  0.97463300  1  -0.049826  0  -0.081397  -0.035394  0  4.014637  0
C  C129  1  0.12560090  0.74663235  0.97463294  1  -0.095125  0  -0.081391  -0.035373  0  4.014555  0
C  C130  1  0.12560024  0.37896733  0.47463264  1  -0.104732  0  -0.081426  -0.035453  0  4.014693  0
C  C131  1  0.62103368  0.74663369  0.47463196  1  -0.049692  0  -0.081394  -0.035384  0  4.014612  0
C  C132  1  0.25336662  0.87439956  0.47463195  1  -0.094742  0  -0.081396  -0.035351  0  4.014628  0
C  C133  1  0.37896827  0.12560100  0.02536762  1  -0.104656  0  -0.081379  -0.035321  0  4.01458  0
C  C134  1  0.74663342  0.62103300  0.02536752  1  -0.049701  0  -0.081424  -0.035395  0  4.014677  0
C  C135  1  0.87439972  0.25336717  0.02536758  1  -0.095159  0  -0.081423  -0.03539  0  4.014562  0
C  C136  1  0.97514284  0.67673848  0.50746935  1  -0.021282  0  -0.114626  -0.13912  0  4.065508  0
C  C137  1  0.32326081  0.29840306  0.50747063  1  -0.020138  0  -0.114663  -0.139259  0  4.065532  0
C  C138  1  0.70159620  0.02485791  0.50747007  1  0.023891  0  -0.11466  -0.139159  0  4.065538  0
C  C139  1  0.67673754  0.97514204  0.99253080  1  -0.023245  0  -0.114644  -0.139167  0  4.065735  0
C  C140  1  0.29840373  0.32326115  0.99253033  1  -0.020901  0  -0.114637  -0.139131  0  4.065516  0
C  C141  1  0.02485707  0.70159501  0.99253087  1  0.023805  0  -0.114652  -0.139164  0  4.065515  0
C  C142  1  0.02485677  0.32326077  0.49253057  1  -0.021223  0  -0.11457  -0.138983  0  4.065453  0
C  C143  1  0.67673981  0.70159645  0.49252988  1  -0.020148  0  -0.114662  -0.139179  0  4.065471  0
C  C144  1  0.29840332  0.97514270  0.49253044  1  0.023613  0  -0.114658  -0.139179  0  4.065471  0
C  C145  1  0.32326171  0.02485757  0.00746972  1  -0.023249  0  -0.114672  -0.139218  0  4.065611  0
C  C146  1  0.70159679  0.67673973  0.00747018  1  -0.020925  0  -0.114681  -0.139249  0  4.065547  0
C  C147  1  0.97514292  0.29840388  0.00746964  1  0.023612  0  -0.114604  -0.139081  0  4.065438  0
C  C148  1  0.01582232  0.63785044  0.45715553  1  -0.033114  0  -0.081129  -0.079696  0  3.993072  0
C  C149  1  0.36214835  0.37797135  0.45715734  1  0.059306  0  -0.081104  -0.079628  0  3.993097  0
C  C150  1  0.62202861  0.98417753  0.45715663  1  -0.085317  0  -0.081089  -0.079587  0  3.993037  0
C  C151  1  0.63784927  0.01582166  0.04284410  1  -0.031229  0  -0.081134  -0.079661  0  3.992939  0
C  C152  1  0.37797122  0.36214871  0.04284346  1  0.060083  0  -0.08107  -0.079568  0  3.993119  0
C  C153  1  0.98417738  0.62202798  0.04284457  1  -0.085002  0  -0.081105  -0.079674  0  3.993068  0
C  C154  1  0.98417793  0.36214944  0.54284380  1  -0.033257  0  -0.081126  -0.079683  0  3.993104  0
C  C155  1  0.63785153  0.62202890  0.54284258  1  0.059296  0  -0.081109  -0.079631  0  3.993119  0
C  C156  1  0.37797128  0.01582272  0.54284329  1  -0.085011  0  -0.081118  -0.07967  0  3.993124  0
C  C157  1  0.36214961  0.98417833  0.95715582  1  -0.031217  0  -0.081116  -0.079639  0  3.99306  0
C  C158  1  0.62202931  0.63785218  0.95715646  1  0.060093  0  -0.081082  -0.079597  0  3.993073  0
C  C159  1  0.01582224  0.37797126  0.95715594  1  -0.085025  0  -0.081106  -0.079618  0  3.993069  0
C  C160  1  0.95776567  0.54453100  0.42193188  1  -0.048778  0  -0.034226  -0.0983  0  4.023977  0
C  C161  1  0.45546807  0.41323479  0.42193370  1  -0.050636  0  -0.034167  -0.098251  0  4.024096  0
C  C162  1  0.58676480  0.04223385  0.42193317  1  0.054832  0  -0.034239  -0.098394  0  4.024081  0
C  C163  1  0.54453014  0.95776510  0.07806756  1  -0.050329  0  -0.034178  -0.098393  0  4.023968  0
C  C164  1  0.41323464  0.45546836  0.07806707  1  -0.050897  0  -0.034231  -0.098358  0  4.024079  0
C  C165  1  0.04223383  0.58676456  0.07806706  1  0.053795  0  -0.034237  -0.098348  0  4.024047  0
C  C166  1  0.04223458  0.45546889  0.57806685  1  -0.048774  0  -0.034192  -0.098333  0  4.024039  0
C  C167  1  0.54453118  0.58676482  0.57806562  1  -0.050612  0  -0.034165  -0.098355  0  4.024167  0
C  C168  1  0.41323508  0.95776640  0.57806615  1  0.054835  0  -0.034153  -0.098319  0  4.02411  0
C  C169  1  0.45546911  0.04223451  0.92193236  1  -0.050229  0  -0.034169  -0.098321  0  4.023978  0
C  C170  1  0.58676525  0.54453189  0.92193345  1  -0.050895  0  -0.034199  -0.098272  0  4.024056  0
C  C171  1  0.95776679  0.41323495  0.92193346  1  0.053809  0  -0.034245  -0.098412  0  4.024068  0
C  C172  1  0.00630672  0.50829679  0.37364635  1  0.522245  0  0.103924  0.138283  0  3.852883  0
C  C173  1  0.49170144  0.49801032  0.37364752  1  0.532291  0  0.103882  0.138249  0  3.852798  0
C  C174  1  0.50198981  0.99369239  0.37364743  1  0.532684  0  0.103909  0.13827  0  3.852861  0
C  C175  1  0.50829614  0.00630662  0.12635331  1  0.523797  0  0.103894  0.138264  0  3.852951  0
C  C176  1  0.49801017  0.49170171  0.12635322  1  0.532534  0  0.103911  0.138293  0  3.852835  0
C  C177  1  0.99369187  0.50198957  0.12635320  1  0.533799  0  0.103896  0.138248  0  3.852863  0
C  C178  1  0.99369353  0.49170310  0.62635357  1  0.522263  0  0.103878  0.138231  0  3.852928  0
C  C179  1  0.50829808  0.50199030  0.62635240  1  0.532249  0  0.10384  0.138208  0  3.852928  0
C  C180  1  0.49801108  0.00630812  0.62635249  1  0.532816  0  0.103838  0.138139  0  3.852912  0
C  C181  1  0.49170311  0.99369300  0.87364661  1  0.52371  0  0.10388  0.138246  0  3.852949  0
C  C182  1  0.50199008  0.50829817  0.87364729  1  0.53253  0  0.103916  0.138226  0  3.852759  0
C  C183  1  0.00630801  0.49801068  0.87364672  1  0.533836  0  0.103934  0.138353  0  3.852802  0
C  C184  1  0.01228193  0.38151698  0.29429587  1  0.330393  0  -0.045204  -0.053688  0  3.889727  0
C  C185  1  0.61848234  0.63076486  0.29429580  1  0.274279  0  -0.045174  -0.053606  0  3.88958  0
C  C186  1  0.36923412  0.98771736  0.29429634  1  0.318971  0  -0.045184  -0.053625  0  3.889703  0
C  C187  1  0.38151623  0.01228175  0.20570441  1  0.330378  0  -0.045172  -0.053667  0  3.889705  0
C  C188  1  0.63076445  0.61848154  0.20570429  1  0.306306  0  -0.04519  -0.053614  0  3.889606  0
C  C189  1  0.98771746  0.36923455  0.20570432  1  0.318873  0  -0.045159  -0.053585  0  3.889663  0
C  C190  1  0.98771833  0.61848290  0.70570405  1  0.330385  0  -0.045198  -0.053701  0  3.889797  0
C  C191  1  0.38151818  0.36923602  0.70570412  1  0.30631  0  -0.04521  -0.053717  0  3.889718  0
C  C192  1  0.63076513  0.01228226  0.70570417  1  0.291628  0  -0.045175  -0.053623  0  3.889727  0
C  C193  1  0.61848303  0.98771787  0.79429610  1  0.357725  0  -0.045201  -0.053701  0  3.889839  0
C  C194  1  0.36923581  0.38151835  0.79429563  1  0.274277  0  -0.045166  -0.053546  0  3.889627  0
C  C195  1  0.01228216  0.63076470  0.79429619  1  0.318887  0  -0.0452  -0.053689  0  3.889822  0
N  N196  1  0.96252210  0.42325299  0.33770802  1  -1.257557  0  -0.374614  -0.168645  0  3.624225  0
N  N197  1  0.57674694  0.53926885  0.33770861  1  -1.237701  0  -0.374604  -0.168672  0  3.624079  0
N  N198  1  0.46073092  0.03747777  0.33770811  1  -1.250511  0  -0.374596  -0.168643  0  3.624184  0
N  N199  1  0.42325203  0.96252146  0.16229204  1  -1.257642  0  -0.37461  -0.168596  0  3.624225  0
N  N200  1  0.53926906  0.57674679  0.16229210  1  -1.237727  0  -0.374597  -0.168665  0  3.624119  0
N  N201  1  0.03747738  0.46073107  0.16229214  1  -1.250621  0  -0.374579  -0.168634  0  3.624183  0
N  N202  1  0.03747788  0.57674590  0.66229249  1  -1.257544  0  -0.374583  -0.168582  0  3.624238  0
N  N203  1  0.42325395  0.46073166  0.66229190  1  -1.237711  0  -0.374572  -0.168618  0  3.624174  0
N  N204  1  0.53926860  0.96252284  0.66229181  1  -1.250658  0  -0.374579  -0.16859  0  3.624195  0
N  N205  1  0.57674623  0.03747789  0.83770788  1  -1.25755  0  -0.374586  -0.168613  0  3.62425  0
N  N206  1  0.46073183  0.42325373  0.83770782  1  -1.237716  0  -0.374569  -0.168606  0  3.624141  0
N  N207  1  0.96252324  0.53926844  0.83770837  1  -1.250663  0  -0.374599  -0.168665  0  3.624242  0
N  N208  1  0.79126707  0.50689191  0.23804902  1  0.843434  0  0.088418  0.718235  0  4.394963  0
N  N209  1  0.49310856  0.28437392  0.23805026  1  0.836991  0  0.088316  0.718108  0  4.395069  0
N  N210  1  0.71562503  0.20873451  0.23804670  1  0.841725  0  0.088376  0.718056  0  4.395379  0
N  N211  1  0.50689072  0.79126548  0.26195047  1  0.843975  0  0.08832  0.718157  0  4.395156  0
N  N212  1  0.28437342  0.49310634  0.26195113  1  0.837006  0  0.088454  0.718254  0  4.39487  0
N  N213  1  0.20873309  0.71562477  0.26195050  1  0.843184  0  0.08832  0.717953  0  4.395377  0
N  N214  1  0.20873472  0.49311024  0.76195031  1  0.843293  0  0.088248  0.717912  0  4.395343  0
N  N215  1  0.50689133  0.71562633  0.76194788  1  0.836846  0  0.088322  0.718173  0  4.394936  0
N  N216  1  0.28437486  0.79126574  0.76195144  1  0.842243  0  0.088377  0.718115  0  4.395297  0
N  N217  1  0.49311090  0.20873430  0.73805004  1  0.843806  0  0.088363  0.718129  0  4.395004  0
N  N218  1  0.71562656  0.50689254  0.73804820  1  0.837062  0  0.088419  0.718122  0  4.395008  0
N  N219  1  0.79126717  0.28437511  0.73805061  1  0.843186  0  0.088289  0.718023  0  4.395403  0
O  O220  1  0.79895633  0.40388802  0.40381970  1  -1.198446  0  -0.405095  -0.566826  0  2.376292  0
O  O221  1  0.59611183  0.39506867  0.40381971  1  -1.194808  0  -0.405098  -0.566791  0  2.376256  0
O  O222  1  0.60493103  0.20104359  0.40382034  1  -1.195417  0  -0.405101  -0.566777  0  2.376234  0
O  O223  1  0.40388786  0.79895506  0.09618159  1  -1.198548  0  -0.405112  -0.566859  0  2.376303  0
O  O224  1  0.39506793  0.59611004  0.09618103  1  -1.1948  0  -0.405076  -0.566785  0  2.376313  0
O  O225  1  0.20104301  0.60493018  0.09617985  1  -1.195432  0  -0.405098  -0.56679  0  2.376255  0
O  O226  1  0.20104456  0.59611249  0.59617962  1  -1.198519  0  -0.405112  -0.566824  0  2.376275  0
O  O227  1  0.40388733  0.60493231  0.59617902  1  -1.194799  0  -0.405104  -0.566811  0  2.376261  0
O  O228  1  0.39506985  0.79895693  0.59617721  1  -1.195411  0  -0.405126  -0.566786  0  2.376311  0
O  O229  1  0.59611239  0.20104482  0.90381952  1  -1.19856  0  -0.405109  -0.566876  0  2.376276  0
O  O230  1  0.60493206  0.40388885  0.90381948  1  -1.194809  0  -0.405104  -0.566784  0  2.376267  0
O  O231  1  0.79895751  0.39507070  0.90382185  1  -1.195436  0  -0.40511  -0.566768  0  2.376264  0
O  O232  1  0.78446372  0.42323699  0.22467070  1  -0.597126  0  -0.228831  -0.477026  0  2.040283  0
O  O233  1  0.57676296  0.36122426  0.22467072  1  -0.593709  0  -0.228795  -0.476999  0  2.04035  0
O  O234  1  0.63877525  0.21554037  0.22466481  1  -0.597325  0  -0.228763  -0.476902  0  2.040188  0
O  O235  1  0.42323512  0.78446148  0.27532821  1  -0.59704  0  -0.22886  -0.477078  0  2.040316  0
O  O236  1  0.36122514  0.57676061  0.27532884  1  -0.593672  0  -0.228889  -0.477078  0  2.040164  0
O  O237  1  0.21553570  0.63877322  0.27533062  1  -0.597716  0  -0.228781  -0.476859  0  2.040235  0
O  O238  1  0.21553843  0.57676479  0.77533100  1  -0.597158  0  -0.228787  -0.476898  0  2.040254  0
O  O239  1  0.42323666  0.63877499  0.77532682  1  -0.593698  0  -0.228829  -0.477012  0  2.040263  0
O  O240  1  0.36122581  0.78446251  0.77533333  1  -0.597837  0  -0.228778  -0.476893  0  2.040186  0
O  O241  1  0.57676640  0.21553967  0.72467112  1  -0.597078  0  -0.228809  -0.476957  0  2.04021  0
O  O242  1  0.63877694  0.42323744  0.72466751  1  -0.593768  0  -0.228856  -0.477019  0  2.04019  0
O  O243  1  0.78446556  0.36122693  0.72467108  1  -0.597688  0  -0.228806  -0.476965  0  2.040352  0
O  O244  1  0.84015506  0.57878199  0.19519775  1  -0.483683  0  -0.157462  -0.394397  0  1.930806  0
O  O245  1  0.42121717  0.26137180  0.19519901  1  -0.481712  0  -0.157467  -0.394377  0  1.930744  0
O  O246  1  0.73863008  0.15984750  0.19519605  1  -0.479068  0  -0.157444  -0.394341  0  1.930941  0
O  O247  1  0.57878187  0.84015745  0.30480171  1  -0.484064  0  -0.157406  -0.394349  0  1.930776  0
O  O248  1  0.26137192  0.42121560  0.30480299  1  -0.481827  0  -0.157453  -0.394396  0  1.930822  0
O  O249  1  0.15984475  0.73862851  0.30480175  1  -0.479882  0  -0.157426  -0.39429  0  1.930914  0
O  O250  1  0.15984719  0.42121843  0.80480158  1  -0.483623  0  -0.157387  -0.39426  0  1.93088  0
O  O251  1  0.57878162  0.73862955  0.80480032  1  -0.481616  0  -0.157394  -0.39435  0  1.930776  0
O  O252  1  0.26136727  0.84015021  0.80480387  1  -0.479042  0  -0.157414  -0.394342  0  1.930902  0
O  O253  1  0.42122028  0.15984434  0.69519880  1  -0.483984  0  -0.157413  -0.394304  0  1.930783  0
O  O254  1  0.73862870  0.57878392  0.69519752  1  -0.48179  0  -0.157433  -0.394314  0  1.930916  0
O  O255  1  0.84015386  0.26137047  0.69519758  1  -0.479872  0  -0.157427  -0.394359  0  1.930926  0
O  O256  1  0.74372250  0.51028469  0.29852574  1  -0.586125  0  -0.213052  -0.460207  0  2.062229  0
O  O257  1  0.48971462  0.23343807  0.29852758  1  -0.585582  0  -0.212993  -0.46014  0  2.062296  0
O  O258  1  0.76655732  0.25627355  0.29852697  1  -0.588922  0  -0.213095  -0.460201  0  2.062485  0
O  O259  1  0.51028454  0.74372124  0.20147494  1  -0.586244  0  -0.212973  -0.460095  0  2.062324  0
O  O260  1  0.23343585  0.48971289  0.20147441  1  -0.585538  0  -0.213055  -0.460195  0  2.062283  0
O  O261  1  0.25627507  0.76655925  0.20147317  1  -0.589075  0  -0.213057  -0.46018  0  2.062463  0
O  O262  1  0.25627492  0.48971676  0.70147181  1  -0.585986  0  -0.213  -0.460121  0  2.062454  0
O  O263  1  0.51028500  0.76656118  0.70146996  1  -0.585528  0  -0.213039  -0.460215  0  2.062291  0
O  O264  1  0.23344456  0.74372724  0.70147057  1  -0.588957  0  -0.213141  -0.460274  0  2.062537  0
O  O265  1  0.48971554  0.25627628  0.79852735  1  -0.586095  0  -0.213067  -0.460235  0  2.062286  0
O  O266  1  0.76656113  0.51028519  0.79852670  1  -0.585522  0  -0.213069  -0.460183  0  2.06226  0
O  O267  1  0.74372618  0.23344090  0.79852853  1  -0.589123  0  -0.213  -0.4601  0  2.062452  0
