# generated using pymatgen
data_Cu2H32C45(IN2)2
_symmetry_space_group_name_H-M   'P 1'
_cell_length_a   7.01661503
_cell_length_b   19.76617221
_cell_length_c   19.75919895
_cell_angle_alpha   88.17703042
_cell_angle_beta   79.75704424
_cell_angle_gamma   79.78676578
_symmetry_Int_Tables_number   1
_chemical_formula_structural   Cu2H32C45(IN2)2
_chemical_formula_sum   'Cu4 H64 C90 I4 N8'
_cell_volume   2654.02868932
_cell_formula_units_Z   2
loop_
 _symmetry_equiv_pos_site_id
 _symmetry_equiv_pos_as_xyz
  1  'x, y, z'
loop_
 _atom_site_type_symbol
 _atom_site_label
 _atom_site_symmetry_multiplicity
 _atom_site_fract_x
 _atom_site_fract_y
 _atom_site_fract_z
 _atom_site_occupancy
 _atom_site_pbe_bader_charge
 _atom_site_pbe_bader_spin_density
 _atom_site_pbe_cm5_charge
 _atom_site_pbe_ddec_charge
 _atom_site_pbe_ddec_spin_density
 _atom_site_pbe_ddec_sum_bond_order
 _atom_site_pbe_magmom
Cu  Cu0  1  0.87472096  0.05404643  0.44601188  1  0.539264  0  0.36806  0.237568  0  2.563832  0
Cu  Cu1  1  0.37484961  0.94600350  0.55408950  1  0.535266  0  0.370009  0.241421  0  2.560104  0
Cu  Cu2  1  0.67871525  0.44603152  0.94595569  1  0.536671  0  0.370108  0.240955  0  2.560997  0
Cu  Cu3  1  0.07085360  0.55398539  0.05403641  1  0.53623  0  0.370523  0.241819  0  2.560699  0
H  H4  1  0.88081400  0.20585676  0.42985818  1  0.093137  0  0.112698  0.082936  0  0.993006  0
H  H5  1  0.63369078  0.31326665  0.44085277  1  0.062856  0  0.101091  0.106727  0  1.026222  0
H  H6  1  0.18568626  0.18609220  0.49704386  1  0.097286  0  0.092996  0.10263  0  1.05804  0
H  H7  1  0.44921340  0.08549911  0.48413520  1  0.135127  0  0.086917  0.067983  0  1.095985  0
H  H8  1  0.04307291  0.27698198  0.56192160  1  0.089556  0  0.105784  0.108988  0  0.997364  0
H  H9  1  0.77490166  0.37598656  0.57591481  1  0.088638  0  0.098452  0.104168  0  1.029599  0
H  H10  1  0.10449396  0.48187470  0.41468556  1  0.076674  0  0.097108  0.094172  0  1.044035  0
H  H11  1  0.37002527  0.38228141  0.39887013  1  0.083766  0  0.09855  0.098602  0  1.024512  0
H  H12  1  0.51676397  0.79416503  0.57028041  1  0.081569  0  0.111791  0.081737  0  0.992706  0
H  H13  1  0.38807600  0.68669576  0.55932755  1  0.063793  0  0.101135  0.106534  0  1.025801  0
H  H14  1  0.86941273  0.81387954  0.50291116  1  0.090978  0  0.09275  0.102054  0  1.058994  0
H  H15  1  0.01943019  0.91445119  0.51590195  1  0.132461  0  0.086599  0.066792  0  1.097169  0
H  H16  1  0.88266609  0.72308995  0.43809475  1  0.03789  0  0.10553  0.108824  0  0.997894  0
H  H17  1  0.72733660  0.62414760  0.42398414  1  0.066058  0  0.099683  0.105707  0  1.029858  0
H  H18  1  0.00137183  0.51801104  0.58502296  1  0.09263  0  0.096278  0.094228  0  1.045074  0
H  H19  1  0.15144830  0.61756883  0.60102587  1  0.046701  0  0.097876  0.097321  0  1.024272  0
H  H20  1  0.68934247  0.42986089  0.79402296  1  0.085368  0  0.110928  0.081467  0  0.992627  0
H  H21  1  0.92582564  0.44096361  0.68661749  1  0.052511  0  0.101226  0.105739  0  1.025468  0
H  H22  1  0.31685330  0.49720679  0.81404256  1  0.101753  0  0.092353  0.103147  0  1.058781  0
H  H23  1  0.06592828  0.48418187  0.91457296  1  0.13379  0  0.086406  0.067575  0  1.096232  0
H  H24  1  0.39488802  0.56214586  0.72297055  1  0.080878  0  0.105253  0.10792  0  0.997778  0
H  H25  1  0.64927286  0.57610939  0.62389838  1  0.074249  0  0.100129  0.106131  0  1.02975  0
H  H26  1  0.48118060  0.41489084  0.51808529  1  0.099577  0  0.096786  0.093915  0  1.044032  0
H  H27  1  0.23135177  0.39908136  0.61774910  1  0.061156  0  0.098813  0.098288  0  1.024469  0
H  H28  1  0.91285788  0.57028676  0.20593927  1  0.074675  0  0.111399  0.081505  0  0.993246  0
H  H29  1  0.05255100  0.55932283  0.31339649  1  0.069375  0  0.100692  0.106412  0  1.025515  0
H  H30  1  0.62750650  0.50269710  0.18612390  1  0.063959  0  0.091679  0.101664  0  1.06013  0
H  H31  1  0.46444294  0.51566657  0.08554496  1  0.138805  0  0.086772  0.067254  0  1.096887  0
H  H32  1  0.67906963  0.43799613  0.27697223  1  0.090218  0  0.105312  0.108665  0  0.997475  0
H  H33  1  0.84895968  0.42406322  0.37583232  1  0.077015  0  0.098917  0.104732  0  1.030283  0
H  H34  1  0.41442098  0.58528397  0.48185137  1  0.091037  0  0.09684  0.093564  0  1.044186  0
H  H35  1  0.24792976  0.60107850  0.38238087  1  0.077561  0  0.098874  0.098354  0  1.026168  0
H  H36  1  0.86900785  0.07036441  0.29405674  1  0.053954  0  0.112799  0.082592  0  0.99202  0
H  H37  1  0.11633832  0.05917773  0.18661862  1  0.062196  0  0.101343  0.107093  0  1.025827  0
H  H38  1  0.56372298  0.00258905  0.31397638  1  0.101021  0  0.092865  0.102313  0  1.058166  0
H  H39  1  0.29992524  0.01577864  0.41454029  1  0.137748  0  0.087127  0.068276  0  1.096553  0
H  H40  1  0.70655790  0.93779479  0.22304929  1  0.086545  0  0.105483  0.108616  0  0.997259  0
H  H41  1  0.97510754  0.92387414  0.12408115  1  0.088151  0  0.098739  0.104728  0  1.028943  0
H  H42  1  0.64622761  0.08493845  0.01803438  1  0.072372  0  0.097189  0.094112  0  1.044251  0
H  H43  1  0.38036206  0.10079766  0.11758195  1  0.045958  0  0.098947  0.098905  0  1.025037  0
H  H44  1  0.23324090  0.92975893  0.70602947  1  0.081681  0  0.111562  0.081414  0  0.992928  0
H  H45  1  0.36196167  0.94090912  0.81342615  1  0.064403  0  0.101186  0.106669  0  1.026077  0
H  H46  1  0.88035593  0.99739723  0.68601950  1  0.091975  0  0.092659  0.102225  0  1.059508  0
H  H47  1  0.73028034  0.98425860  0.58548529  1  0.132177  0  0.08647  0.066569  0  1.097422  0
H  H48  1  0.86771739  0.06216072  0.77696244  1  0.08526  0  0.105422  0.10904  0  0.996843  0
H  H49  1  0.02349774  0.07594053  0.87589386  1  0.06642  0  0.099371  0.105452  0  1.029869  0
H  H50  1  0.74938370  0.91476664  0.98184430  1  0.093436  0  0.096357  0.093822  0  1.045004  0
H  H51  1  0.59862846  0.89913821  0.88233694  1  0.048774  0  0.097996  0.097468  0  1.024219  0
H  H52  1  0.06075362  0.70580385  0.07042588  1  0.075222  0  0.111415  0.08192  0  0.99354  0
H  H53  1  0.82473388  0.81321773  0.05934500  1  0.059751  0  0.101221  0.105641  0  1.025628  0
H  H54  1  0.43371398  0.68604990  0.00269088  1  0.073874  0  0.092059  0.102254  0  1.058595  0
H  H55  1  0.68416227  0.58549829  0.01575791  1  0.135455  0  0.086488  0.067753  0  1.096281  0
H  H56  1  0.35545559  0.77683709  0.93807429  1  0.080926  0  0.105315  0.108333  0  0.997934  0
H  H57  1  0.10100380  0.87576372  0.92410249  1  0.077024  0  0.099439  0.105366  0  1.029903  0
H  H58  1  0.26952653  0.98181259  0.08507871  1  0.102314  0  0.096685  0.093945  0  1.045108  0
H  H59  1  0.51934675  0.88227742  0.10095611  1  0.062973  0  0.098093  0.097268  0  1.024414  0
H  H60  1  0.83626821  0.29427587  0.92975918  1  0.081799  0  0.111566  0.081775  0  0.993624  0
H  H61  1  0.69650460  0.18683168  0.94077763  1  0.076185  0  0.100903  0.105865  0  1.025263  0
H  H62  1  0.12157577  0.31399318  0.99713663  1  0.061511  0  0.091537  0.100981  0  1.061095  0
H  H63  1  0.28458174  0.41455293  0.98416226  1  0.138451  0  0.08726  0.067799  0  1.097414  0
H  H64  1  0.06980954  0.22294217  0.06204439  1  0.089359  0  0.10522  0.108603  0  0.997847  0
H  H65  1  0.90091602  0.12381712  0.07605104  1  0.072409  0  0.098907  0.104665  0  1.029231  0
H  H66  1  0.33660817  0.01814215  0.91484655  1  0.092706  0  0.097056  0.093787  0  1.044002  0
H  H67  1  0.50224352  0.11783050  0.89896097  1  0.07765  0  0.098903  0.09842  0  1.025427  0
C  C68  1  0.72424497  0.20396528  0.44432848  1  0.454073  0  0.031159  0.077717  0  3.963231  0
C  C69  1  0.58456731  0.26390402  0.45028955  1  -0.034798  0  -0.091151  -0.181982  0  3.965307  0
C  C70  1  0.38392242  0.26016235  0.47018873  1  -0.066326  0  0.000517  0.098145  0  4.001647  0
C  C71  1  0.33719694  0.19418169  0.48216168  1  -0.016201  0  -0.090835  -0.171481  0  3.946805  0
C  C72  1  0.48477896  0.13689805  0.47471548  1  0.449939  0  0.030858  0.099335  0  3.923744  0
C  C73  1  0.22695516  0.32116430  0.47885028  1  -0.065836  0  -0.009753  0.057179  0  4.007956  0
C  C74  1  0.05622110  0.32143002  0.52837457  1  -0.002982  0  -0.09045  -0.123808  0  3.97885  0
C  C75  1  0.90363124  0.37796828  0.53642314  1  -0.123174  0  -0.095703  -0.1398  0  4.009232  0
C  C76  1  0.91542012  0.43640817  0.49507119  1  -0.030378  0  -0.006014  0.062082  0  3.913739  0
C  C77  1  0.08818239  0.43661198  0.44657132  1  -0.052919  0  -0.091595  -0.121808  0  3.988505  0
C  C78  1  0.24050091  0.38039582  0.43820499  1  -0.041768  0  -0.08809  -0.120587  0  3.968333  0
C  C79  1  0.37283936  0.79601292  0.55579453  1  0.519851  0  0.034753  0.08037  0  3.962037  0
C  C80  1  0.29908203  0.73605191  0.54983249  1  -0.096763  0  -0.092498  -0.182891  0  3.965399  0
C  C81  1  0.11467035  0.73981308  0.52987347  1  -0.051103  0  0.001223  0.098124  0  4.002331  0
C  C82  1  0.01401890  0.80578181  0.51785315  1  -0.032761  0  -0.091701  -0.172472  0  3.950195  0
C  C83  1  0.09685931  0.86305898  0.52531164  1  0.470828  0  0.033198  0.102794  0  3.924841  0
C  C84  1  0.02736992  0.67881254  0.52113117  1  0.001286  0  -0.010942  0.057991  0  4.007837  0
C  C85  1  0.90660402  0.67859581  0.47157696  1  -0.029655  0  -0.091337  -0.124846  0  3.980968  0
C  C86  1  0.81855009  0.62207631  0.46345665  1  -0.085986  0  -0.096843  -0.142453  0  4.014324  0
C  C87  1  0.84725156  0.56359300  0.50474183  1  -0.029335  0  -0.005329  0.063442  0  3.913633  0
C  C88  1  0.97174569  0.56332035  0.55321552  1  -0.04184  0  -0.089765  -0.12257  0  3.98621  0
C  C89  1  0.05944577  0.61951721  0.56169140  1  -0.045385  0  -0.087773  -0.118986  0  3.964483  0
C  C90  1  0.83135901  0.44436707  0.79596486  1  0.448313  0  0.03364  0.079788  0  3.962918  0
C  C91  1  0.96522784  0.45041531  0.73602993  1  -0.049481  0  -0.092552  -0.182871  0  3.96663  0
C  C92  1  0.14586827  0.47034822  0.73983812  1  0.033567  0  0.002526  0.099429  0  4.001008  0
C  C93  1  0.18037051  0.48230370  0.80586746  1  -0.103122  0  -0.091284  -0.173666  0  3.948443  0
C  C94  1  0.04005250  0.47479308  0.86313204  1  0.469018  0  0.033217  0.101886  0  3.923648  0
C  C95  1  0.29435462  0.47903475  0.67885007  1  -0.026536  0  -0.010981  0.057407  0  4.007018  0
C  C96  1  0.41544662  0.52857844  0.67854074  1  -0.060597  0  -0.089859  -0.121189  0  3.979811  0
C  C97  1  0.56010245  0.53659906  0.62197511  1  -0.08688  0  -0.097661  -0.144491  0  4.015189  0
C  C98  1  0.58982995  0.49524201  0.56355294  1  0.004293  0  -0.004866  0.063485  0  3.916339  0
C  C99  1  0.46551355  0.44677577  0.56335108  1  -0.122442  0  -0.090803  -0.121381  0  3.98869  0
C  C100  1  0.32155379  0.43839124  0.61961306  1  -0.010405  0  -0.088658  -0.120369  0  3.967151  0
C  C101  1  0.07124338  0.55572004  0.20406408  1  0.442962  0  0.034098  0.082171  0  3.96241  0
C  C102  1  0.15099142  0.54975578  0.26402176  1  -0.038885  0  -0.093179  -0.185377  0  3.964983  0
C  C103  1  0.35534503  0.52976711  0.26024827  1  0.006184  0  0.000765  0.098728  0  3.999146  0
C  C104  1  0.46796617  0.51770224  0.19424452  1  -0.036361  0  -0.091617  -0.172858  0  3.948104  0
C  C105  1  0.37763835  0.52514890  0.13696109  1  0.470632  0  0.032719  0.101654  0  3.924678  0
C  C106  1  0.45157262  0.52110799  0.32121314  1  -0.041181  0  -0.008549  0.059691  0  4.006676  0
C  C107  1  0.62195274  0.47159065  0.32140322  1  -0.083647  0  -0.091003  -0.124213  0  3.978466  0
C  C108  1  0.71832984  0.46355464  0.37788591  1  -0.056815  0  -0.096153  -0.141545  0  4.012579  0
C  C109  1  0.64849882  0.50488779  0.43634253  1  -0.004252  0  -0.005258  0.062776  0  3.913263  0
C  C110  1  0.47561384  0.55337943  0.43659879  1  -0.093272  0  -0.090755  -0.119936  0  3.988583  0
C  C111  1  0.37922338  0.56175518  0.38045165  1  -0.036961  0  -0.088467  -0.120963  0  3.972099  0
C  C112  1  0.02550359  0.05574213  0.29596833  1  0.494426  0  0.031423  0.078929  0  3.962496  0
C  C113  1  0.16533432  0.04964107  0.23600382  1  -0.035323  0  -0.091927  -0.183514  0  3.964747  0
C  C114  1  0.36588158  0.02961582  0.23981217  1  -0.065548  0  0.001003  0.098552  0  4.000962  0
C  C115  1  0.41235578  0.01761146  0.30583795  1  -0.017731  0  -0.090767  -0.170635  0  3.946325  0
C  C116  1  0.26463514  0.02519263  0.36310830  1  0.448618  0  0.030956  0.098534  0  3.924995  0
C  C117  1  0.52304665  0.02088033  0.17882427  1  -0.058247  0  -0.010193  0.057508  0  4.006504  0
C  C118  1  0.69366477  0.97137187  0.17860410  1  -0.007839  0  -0.090085  -0.123427  0  3.977274  0
C  C119  1  0.84644197  0.96333582  0.12206819  1  -0.128566  0  -0.09605  -0.140683  0  4.009668  0
C  C120  1  0.83497610  0.00464781  0.06358618  1  0.018489  0  -0.006216  0.061967  0  3.914146  0
C  C121  1  0.66220749  0.05307526  0.06332977  1  -0.087957  0  -0.091585  -0.122088  0  3.991019  0
C  C122  1  0.50974909  0.06147738  0.11952858  1  -0.007341  0  -0.088057  -0.120663  0  3.969428  0
C  C123  1  0.37705427  0.94436026  0.70410104  1  0.519437  0  0.034045  0.079773  0  3.962287  0
C  C124  1  0.45084446  0.95043119  0.76403485  1  -0.092875  0  -0.091525  -0.182249  0  3.964774  0
C  C125  1  0.63521866  0.97042870  0.76021933  1  -0.054059  0  0.000833  0.097911  0  4.000657  0
C  C126  1  0.73580030  0.98240901  0.69418655  1  -0.033894  0  -0.091757  -0.172533  0  3.949743  0
C  C127  1  0.65292054  0.97485744  0.63692645  1  0.472985  0  0.03297  0.102348  0  3.923923  0
C  C128  1  0.72282682  0.97908314  0.82116764  1  -0.00917  0  -0.009735  0.059316  0  4.00629  0
C  C129  1  0.84385622  0.02856190  0.82139462  1  -0.062451  0  -0.092007  -0.126434  0  3.978041  0
C  C130  1  0.93218242  0.03649466  0.87790140  1  -0.032377  0  -0.096447  -0.141621  0  4.012461  0
C  C131  1  0.90351790  0.99512484  0.93634825  1  -0.105847  0  -0.005353  0.062683  0  3.912045  0
C  C132  1  0.77891831  0.94667961  0.93658050  1  -0.055056  0  -0.090453  -0.121801  0  3.984813  0
C  C133  1  0.69092088  0.93839159  0.88039873  1  -0.018771  0  -0.088267  -0.120072  0  3.964164  0
C  C134  1  0.91887889  0.70392972  0.05580227  1  0.452892  0  0.033472  0.079516  0  3.964115  0
C  C135  1  0.78520660  0.76387585  0.04976645  1  -0.0549  0  -0.092052  -0.18226  0  3.966711  0
C  C136  1  0.60462184  0.76012969  0.02977534  1  0.0331  0  0.001748  0.098554  0  4.000669  0
C  C137  1  0.57006035  0.69415972  0.01772982  1  -0.067032  0  -0.090138  -0.171467  0  3.947464  0
C  C138  1  0.71012570  0.63688985  0.02521719  1  0.464912  0  0.032531  0.100901  0  3.925149  0
C  C139  1  0.45624850  0.82109561  0.02107885  1  -0.022544  0  -0.011528  0.05753  0  4.005775  0
C  C140  1  0.33502883  0.82130161  0.97158792  1  -0.061571  0  -0.089333  -0.122003  0  3.977825  0
C  C141  1  0.19038422  0.87781521  0.96352790  1  -0.083485  0  -0.097178  -0.143097  0  4.013977  0
C  C142  1  0.16077718  0.93629252  0.00479274  1  0.015125  0  -0.004849  0.063068  0  3.915339  0
C  C143  1  0.28513085  0.93653907  0.05324484  1  -0.124504  0  -0.090601  -0.121752  0  3.988719  0
C  C144  1  0.42912557  0.88035492  0.06165707  1  -0.028568  0  -0.08802  -0.119519  0  3.967297  0
C  C145  1  0.67781946  0.29614885  0.94426907  1  0.434055  0  0.03394  0.080547  0  3.961933  0
C  C146  1  0.59806358  0.23619124  0.95025334  1  -0.036474  0  -0.093719  -0.183724  0  3.964988  0
C  C147  1  0.39371333  0.23991270  0.97021369  1  0.013047  0  0.000586  0.097709  0  4.001198  0
C  C148  1  0.28109916  0.30588257  0.98221052  1  -0.04743  0  -0.090058  -0.170369  0  3.947849  0
C  C149  1  0.37142716  0.36316961  0.97473533  1  0.471692  0  0.030411  0.098474  0  3.926628  0
C  C150  1  0.29783779  0.17887519  0.97891537  1  -0.039087  0  -0.008906  0.059679  0  4.005997  0
C  C151  1  0.12745371  0.17853078  0.02847197  1  -0.081576  0  -0.090206  -0.12393  0  3.977297  0
C  C152  1  0.03157711  0.12192616  0.03654877  1  -0.057812  0  -0.096319  -0.141049  0  4.01032  0
C  C153  1  0.10191011  0.06351546  0.99519508  1  -0.002495  0  -0.005277  0.062854  0  3.912597  0
C  C154  1  0.27490750  0.06338077  0.94671345  1  -0.064946  0  -0.091021  -0.121315  0  3.988028  0
C  C155  1  0.37082754  0.11965437  0.93829428  1  -0.072137  0  -0.08851  -0.120517  0  3.969574  0
C  C156  1  0.75029354  0.50003056  0.49991612  1  0.053404  0  0.014776  -0.001224  0  3.781674  0
C  C157  1  0.00035062  0.99988334  0.99998360  1  0.045048  0  0.015244  0.000395  0  3.777954  0
I  I158  1  0.67526929  0.94966572  0.44971903  1  -0.517715  0  -0.233576  -0.448795  0  1.853581  0
I  I159  1  0.07449810  0.05029619  0.55032445  1  -0.517783  0  -0.233467  -0.448906  0  1.85457  0
I  I160  1  0.87457425  0.44968097  0.05034600  1  -0.518543  0  -0.234171  -0.449713  0  1.852981  0
I  I161  1  0.37489378  0.55038696  0.94969477  1  -0.515573  0  -0.234139  -0.449913  0  1.854253  0
N  N162  1  0.67735875  0.14060073  0.45614133  1  -1.215371  0  -0.363971  -0.195678  0  3.656862  0
N  N163  1  0.27447888  0.85935893  0.54393678  1  -1.215231  0  -0.366208  -0.19762  0  3.65748  0
N  N164  1  0.86619483  0.45613989  0.85937892  1  -1.213424  0  -0.365802  -0.197182  0  3.659645  0
N  N165  1  0.18140605  0.54381257  0.14068217  1  -1.232353  0  -0.364971  -0.197856  0  3.658504  0
N  N166  1  0.07213828  0.04393243  0.35937498  1  -1.218184  0  -0.364388  -0.195952  0  3.65794  0
N  N167  1  0.47533835  0.95617360  0.64068844  1  -1.216211  0  -0.366171  -0.196819  0  3.65676  0
N  N168  1  0.88391384  0.64057272  0.04393151  1  -1.213523  0  -0.366288  -0.197619  0  3.660472  0
N  N169  1  0.56766500  0.35949965  0.95610633  1  -1.226759  0  -0.363801  -0.195562  0  3.656204  0
