# generated using pymatgen
data_Zn8H69C61NO26
_symmetry_space_group_name_H-M   'P 1'
_cell_length_a   18.22991186
_cell_length_b   18.23292596
_cell_length_c   18.26016401
_cell_angle_alpha   119.92298359
_cell_angle_beta   90.09213533
_cell_angle_gamma   119.92924554
_symmetry_Int_Tables_number   1
_chemical_formula_structural   Zn8H69C61NO26
_chemical_formula_sum   'Zn8 H69 C61 N1 O26'
_cell_volume   4297.84029995
_cell_formula_units_Z   1
loop_
 _symmetry_equiv_pos_site_id
 _symmetry_equiv_pos_as_xyz
  1  'x, y, z'
loop_
 _atom_site_type_symbol
 _atom_site_label
 _atom_site_symmetry_multiplicity
 _atom_site_fract_x
 _atom_site_fract_y
 _atom_site_fract_z
 _atom_site_occupancy
 _atom_site_pbe_bader_charge
 _atom_site_pbe_bader_spin_density
 _atom_site_pbe_cm5_charge
 _atom_site_pbe_ddec_charge
 _atom_site_pbe_ddec_spin_density
 _atom_site_pbe_ddec_sum_bond_order
 _atom_site_pbe_magmom
Zn  Zn0  1  0.04467188  0.91362300  0.45553821  1  1.301257  0  0.663782  0.949918  0  2.403917  0
Zn  Zn1  1  0.86764278  0.91083704  0.45460666  1  1.301525  0  0.666472  0.955737  0  2.377209  0
Zn  Zn2  1  0.04360585  0.08734760  0.45801168  1  1.307834  0  0.666805  0.9495  0  2.41506  0
Zn  Zn3  1  0.04412645  0.08984826  0.63385993  1  1.298142  0  0.666578  0.962809  0  2.356569  0
Zn  Zn4  1  0.45836084  0.08966159  0.04539560  1  1.301539  0  0.664349  0.950651  0  2.403946  0
Zn  Zn5  1  0.45519164  0.91071378  0.04475063  1  1.297658  0  0.665922  0.959467  0  2.357682  0
Zn  Zn6  1  0.63095609  0.08607893  0.04146835  1  1.297264  0  0.666264  0.951741  0  2.399258  0
Zn  Zn7  1  0.45553991  0.91353563  0.86960005  1  1.292016  0  0.665201  0.950511  0  2.408474  0
H  H8  1  0.39221025  0.04635986  0.72047401  1  0.05941  0  0.098746  0.083677  0  0.994007  0
H  H9  1  0.17699340  0.87077956  0.08720925  1  -0.00593  0  0.089494  0.083038  0  0.980946  0
H  H10  1  0.14423725  0.41105285  0.80416491  1  0.059203  0  0.109394  0.06358  0  0.958262  0
H  H11  1  0.32586247  0.17199291  0.77963875  1  0.056745  0  0.099077  0.084243  0  0.993564  0
H  H12  1  0.17502712  0.58715880  0.80744323  1  0.022062  0  0.090786  0.088412  0  0.989986  0
H  H13  1  0.22791716  0.59166814  0.89242737  1  0.047031  0  0.093558  0.101339  0  0.988103  0
H  H14  1  0.27618305  0.40905199  0.79710052  1  0.040787  0  0.09352  0.094151  0  0.986004  0
H  H15  1  0.36587971  0.59044414  0.88859380  1  0.033991  0  0.093235  0.094656  0  0.983617  0
H  H16  1  0.25030427  0.41053663  0.59536323  1  0.027751  0  0.091677  0.092871  0  0.978901  0
H  H17  1  0.15382563  0.40913070  0.59549857  1  0.032135  0  0.091143  0.088145  0  0.988406  0
H  H18  1  0.24302035  0.59081706  0.68788703  1  0.012196  0  0.088232  0.085209  0  0.985216  0
H  H19  1  0.36423359  0.97360444  0.27348319  1  0.044756  0  0.092908  0.093169  0  0.984202  0
H  H20  1  0.33946336  0.59138952  0.68492269  1  0.047956  0  0.090821  0.091405  0  0.980799  0
H  H21  1  0.32285672  0.41078783  0.71269910  1  -4.2e-05  0  0.09121  0.087712  0  0.977188  0
H  H22  1  0.28119787  0.12725826  0.90840885  1  0.099571  0  0.100195  0.089766  0  0.992194  0
H  H23  1  0.41314610  0.59080184  0.80425537  1  0.009467  0  0.090361  0.085376  0  0.979513  0
H  H24  1  0.89032919  0.02584687  0.79930537  1  0.035491  0  0.092787  0.093155  0  0.98449  0
H  H25  1  0.80629988  0.89334812  0.71620624  1  0.030936  0  0.089703  0.083461  0  0.981122  0
H  H26  1  0.71642458  0.89344434  0.80626669  1  0.031053  0  0.089517  0.082982  0  0.981184  0
H  H27  1  0.79967719  0.02593851  0.89001115  1  0.032934  0  0.092615  0.092881  0  0.984168  0
H  H28  1  0.89063277  0.16381439  0.79957394  1  0.054649  0  0.092268  0.091121  0  0.989  0
H  H29  1  0.79987583  0.16386312  0.89022441  1  0.058828  0  0.092584  0.093252  0  0.984137  0
H  H30  1  0.13571036  0.83619593  0.22653909  1  0.054203  0  0.092754  0.093086  0  0.984476  0
H  H31  1  0.68595441  0.93956860  0.59561219  1  0.020792  0  0.089994  0.088473  0  0.981985  0
H  H32  1  0.68571184  0.84303031  0.59528958  1  0.002455  0  0.089776  0.087779  0  0.982938  0
H  H33  1  0.59523203  0.84293179  0.68565717  1  0.000972  0  0.089488  0.087386  0  0.982504  0
H  H34  1  0.10763587  0.95385088  0.77967466  1  0.056209  0  0.098757  0.083765  0  0.993938  0
H  H35  1  0.59540257  0.93939551  0.68591708  1  0.019649  0  0.089823  0.088168  0  0.982203  0
H  H36  1  0.80691516  0.13004455  0.71666644  1  0.000933  0  0.09013  0.083663  0  0.982497  0
H  H37  1  0.71677758  0.12995691  0.80657471  1  0.0366  0  0.089398  0.08316  0  0.981111  0
H  H38  1  0.70051897  0.83619886  0.22660253  1  0.022186  0  0.092911  0.093364  0  0.984339  0
H  H39  1  0.78379454  0.87074048  0.17733066  1  -0.003022  0  0.089677  0.08349  0  0.980822  0
H  H40  1  0.69375376  0.87088883  0.08726675  1  -0.002478  0  0.089794  0.083557  0  0.980522  0
H  H41  1  0.22641484  0.83609018  0.13583155  1  0.054871  0  0.092514  0.092815  0  0.984903  0
H  H42  1  0.60972866  0.83628779  0.13576266  1  0.056724  0  0.092691  0.093551  0  0.983931  0
H  H43  1  0.70038918  0.97384830  0.36416482  1  0.049102  0  0.092739  0.093035  0  0.984438  0
H  H44  1  0.60954610  0.97389556  0.27331634  1  0.026295  0  0.092791  0.093191  0  0.984379  0
H  H45  1  0.90463307  0.15745294  0.34338691  1  0.002701  0  0.08974  0.088195  0  0.981874  0
H  H46  1  0.17402489  0.82825893  0.72048068  1  0.05825  0  0.097915  0.082401  0  0.995387  0
H  H47  1  0.90482429  0.06147492  0.24743122  1  0.017084  0  0.089745  0.087541  0  0.983012  0
H  H48  1  0.81424241  0.06144300  0.15684599  1  0.033591  0  0.089495  0.087287  0  0.98293  0
H  H49  1  0.81410491  0.15752286  0.25276405  1  0.035324  0  0.08931  0.086872  0  0.983208  0
H  H50  1  0.78354568  0.10637916  0.41279535  1  -0.001583  0  0.08991  0.084099  0  0.980066  0
H  H51  1  0.69341607  0.10646988  0.32268757  1  -0.001875  0  0.08935  0.082836  0  0.98136  0
H  H52  1  0.15662679  0.06143448  0.24702600  1  0.019695  0  0.089742  0.087829  0  0.982346  0
H  H53  1  0.70034079  0.59060806  0.36408127  1  0.050774  0  0.092685  0.093619  0  0.983729  0
H  H54  1  0.78364098  0.58983752  0.41276878  1  0.034978  0  0.089681  0.083353  0  0.980798  0
H  H55  1  0.69368375  0.40986116  0.32283953  1  0.014  0  0.089346  0.082759  0  0.981089  0
H  H56  1  0.60971942  0.40919357  0.27334247  1  0.053228  0  0.092707  0.093587  0  0.983649  0
H  H57  1  0.70024959  0.59077447  0.22649410  1  0.041483  0  0.093181  0.094303  0  0.983094  0
H  H58  1  0.21865561  0.87307778  0.59177893  1  0.060286  0  0.100252  0.089625  0  0.991815  0
H  H59  1  0.60966856  0.40941921  0.13590555  1  0.044627  0  0.093005  0.094121  0  0.982835  0
H  H60  1  0.90487563  0.59068652  0.24736560  1  0.030865  0  0.089893  0.088603  0  0.982386  0
H  H61  1  0.90480016  0.59050626  0.34339396  1  0.026691  0  0.089696  0.087711  0  0.982636  0
H  H62  1  0.81450439  0.40962535  0.25296051  1  0.016808  0  0.089346  0.08741  0  0.982592  0
H  H63  1  0.25285303  0.15749972  0.34306582  1  0.049923  0  0.08961  0.087665  0  0.982302  0
H  H64  1  0.81456348  0.40983621  0.15693514  1  0.00637  0  0.089759  0.088379  0  0.982357  0
H  H65  1  0.78351440  0.59020313  0.17713887  1  0.023242  0  0.090128  0.084257  0  0.980216  0
H  H66  1  0.69358610  0.41025144  0.08719053  1  0.033652  0  0.089818  0.083619  0  0.98047  0
H  H67  1  0.27347184  0.97364547  0.36407930  1  0.038713  0  0.09325  0.093841  0  0.983469  0
H  H68  1  0.32301546  0.10625851  0.41276727  1  0.002579  0  0.089637  0.083498  0  0.979994  0
H  H69  1  0.41301800  0.10623209  0.32284173  1  0.006552  0  0.089948  0.083553  0  0.980746  0
H  H70  1  0.06051685  0.42173116  0.67698307  1  0.354752  0  0.285312  0.223859  0  0.972559  0
H  H71  1  0.93303607  0.35477031  0.71844525  1  0.01445  0  0.095454  0.100895  0  0.989903  0
H  H72  1  0.02228604  0.47075235  0.81961571  1  -0.004289  0  0.077258  0.069043  0  1.011699  0
H  H73  1  0.99183229  0.34718205  0.78888562  1  0.03411  0  0.09748  0.105809  0  0.992024  0
H  H74  1  0.34331778  0.15738652  0.25268699  1  0.043654  0  0.089643  0.087997  0  0.982195  0
H  H75  1  0.24709526  0.06131911  0.15665552  1  0.021395  0  0.089735  0.087521  0  0.982545  0
H  H76  1  0.08693710  0.87073857  0.17709113  1  -0.006807  0  0.089365  0.082731  0  0.981524  0
C  C77  1  0.86008967  0.00048710  0.64063086  1  1.589028  0  0.234289  0.603706  0  4.098824  0
C  C78  1  0.22002664  0.08039260  0.27982910  1  -0.079436  0  -0.164745  -0.175943  0  3.887118  0
C  C79  1  0.19932908  0.00145920  0.30053691  1  0.070241  0  -0.016905  0.020053  0  3.811008  0
C  C80  1  0.14028818  0.99970643  0.35955434  1  1.541365  0  0.233557  0.601195  0  4.101846  0
C  C81  1  0.30061662  0.00135559  0.19939396  1  0.061729  0  -0.017117  0.019877  0  3.812003  0
C  C82  1  0.21138428  0.89258239  0.15145916  1  -0.062919  0  -0.157569  -0.171295  0  3.857519  0
C  C83  1  0.27993570  0.08032215  0.21998409  1  0.0191  0  -0.165187  -0.176284  0  3.886867  0
C  C84  1  0.15125690  0.43862823  0.76128934  1  0.339729  0  0.007852  0.113724  0  3.794798  0
C  C85  1  0.21174526  0.55957720  0.82070270  1  -0.075908  0  -0.159994  -0.244136  0  3.835171  0
C  C86  1  0.28930599  0.44032318  0.75681084  1  -0.060726  0  -0.15692  -0.171693  0  3.865201  0
C  C87  1  0.21754337  0.44062856  0.64004906  1  -0.051308  0  -0.164939  -0.174184  0  3.884546  0
C  C88  1  0.26680116  0.07101700  0.83778645  1  -0.059401  0  -0.078492  -0.06814  0  3.648739  0
C  C89  1  0.19878062  0.39900140  0.69805599  1  0.030238  0  -0.015612  -0.02695  0  3.795706  0
C  C90  1  0.29990796  0.60137453  0.79943824  1  0.07899  0  -0.01749  0.02874  0  3.809647  0
C  C91  1  0.34925254  0.56035981  0.81735319  1  0.025182  0  -0.15723  -0.17279  0  3.859141  0
C  C92  1  0.85932401  0.71937796  0.35925094  1  1.580295  0  0.234216  0.601899  0  4.101515  0
C  C93  1  0.27700386  0.56033952  0.70001279  1  0.001348  0  -0.166408  -0.180353  0  3.889875  0
C  C94  1  0.81882202  0.97014220  0.75857633  1  0.003341  0  -0.157417  -0.171486  0  3.856418  0
C  C95  1  0.75879345  0.97018461  0.81864798  1  -0.077428  0  -0.157001  -0.169816  0  3.855006  0
C  C96  1  0.81911129  0.10770109  0.75883873  1  0.020199  0  -0.157297  -0.171963  0  3.857119  0
C  C97  1  0.69960234  0.92018661  0.63972519  1  0.064169  0  -0.165196  -0.176826  0  3.887153  0
C  C98  1  0.79922036  0.99875086  0.69785251  1  0.023476  0  -0.016863  0.02003  0  3.811538  0
C  C99  1  0.17152198  0.97441035  0.76733258  1  -0.025071  0  -0.071539  -0.061493  0  3.627251  0
C  C100  1  0.69790795  0.99872097  0.79902863  1  0.060156  0  -0.016883  0.019909  0  3.811178  0
C  C101  1  0.75903600  0.10769305  0.81884975  1  -0.106236  0  -0.157305  -0.171123  0  3.856644  0
C  C102  1  0.63966886  0.92011697  0.69955583  1  -0.029891  0  -0.165168  -0.176168  0  3.885961  0
C  C103  1  0.74131816  0.89262671  0.21157244  1  0.049975  0  -0.157222  -0.170788  0  3.856863  0
C  C104  1  0.13987614  0.28087216  0.64095139  1  1.590901  0  0.233352  0.604764  0  4.127718  0
C  C105  1  0.68123420  0.89269757  0.15147542  1  -0.054242  0  -0.15741  -0.171484  0  3.856693  0
C  C106  1  0.74116964  0.02969055  0.34854192  1  -0.041431  0  -0.157027  -0.17094  0  3.855117  0
C  C107  1  0.86037579  0.08040369  0.28007947  1  0.012947  0  -0.165251  -0.176328  0  3.886715  0
C  C108  1  0.80214980  0.00141941  0.30068343  1  0.018784  0  -0.016692  0.019868  0  3.811528  0
C  C109  1  0.70081587  0.00154296  0.19937759  1  0.021208  0  -0.017076  0.01916  0  3.813681  0
C  C110  1  0.20693530  0.90451650  0.73287434  1  -0.033774  0  -0.071909  -0.061646  0  3.627881  0
C  C111  1  0.68103704  0.02973613  0.28841565  1  0.03876  0  -0.157339  -0.170638  0  3.856365  0
C  C112  1  0.80042160  0.08043660  0.22010668  1  -0.030569  0  -0.165018  -0.17556  0  3.887678  0
C  C113  1  0.74124064  0.55999228  0.34849784  1  -0.005313  0  -0.157307  -0.17167  0  3.856449  0
C  C114  1  0.68124095  0.43987703  0.28846053  1  -0.085855  0  -0.157191  -0.170642  0  3.855545  0
C  C115  1  0.74115756  0.56016828  0.21145837  1  0.011039  0  -0.157275  -0.171963  0  3.856002  0
C  C116  1  0.85946992  0.99937853  0.35957940  1  1.590835  0  0.234405  0.602551  0  4.099228  0
C  C117  1  0.86049860  0.56002138  0.28004663  1  0.020388  0  -0.165347  -0.177504  0  3.887872  0
C  C118  1  0.80212453  0.60129800  0.30059373  1  0.028638  0  -0.017104  0.02049  0  3.811045  0
C  C119  1  0.70107445  0.39885843  0.19943419  1  0.077247  0  -0.017094  0.019453  0  3.812342  0
C  C120  1  0.68119033  0.44010618  0.15145970  1  -0.094594  0  -0.157149  -0.171264  0  3.855266  0
C  C121  1  0.23307314  0.92930268  0.66241905  1  -0.008118  0  -0.078575  -0.06743  0  3.644499  0
C  C122  1  0.80072042  0.44026494  0.22017810  1  -0.032573  0  -0.164944  -0.176419  0  3.8882  0
C  C123  1  0.35918092  0.71953987  0.86030876  1  1.539279  0  0.233546  0.602357  0  4.095589  0
C  C124  1  0.64031783  0.28083466  0.14021052  1  1.536216  0  0.234103  0.602157  0  4.100132  0
C  C125  1  0.35983696  0.99971011  0.14056992  1  1.541525  0  0.234208  0.602953  0  4.100223  0
C  C126  1  0.64062706  0.00055207  0.85980204  1  1.534321  0  0.233733  0.601736  0  4.099585  0
C  C127  1  0.63988913  0.99951543  0.14005224  1  1.580536  0  0.234208  0.603572  0  4.100003  0
C  C128  1  0.14006761  0.99950192  0.63903992  1  1.552872  0  0.224485  0.605975  0  4.181731  0
C  C129  1  0.36029878  0.00134224  0.86118129  1  1.534646  0  0.22457  0.60481  0  4.181859  0
C  C130  1  0.29296254  0.09579394  0.76733299  1  0.001362  0  -0.071406  -0.061442  0  3.626606  0
C  C131  1  0.32834472  0.02589071  0.73285758  1  -0.059889  0  -0.071419  -0.061147  0  3.625786  0
C  C132  1  0.19732499  0.99834961  0.69568936  1  0.009516  0  -0.008788  -0.033858  0  3.656331  0
C  C133  1  0.30256266  0.00202483  0.80459684  1  0.028383  0  -0.008997  -0.034877  0  3.65861  0
C  C134  1  0.99969616  0.39218167  0.76226478  1  0.320285  0  -0.148914  -0.215358  0  4.044946  0
C  C135  1  0.28857597  0.02957516  0.34850586  1  -0.059047  0  -0.15701  -0.170806  0  3.854266  0
C  C136  1  0.34865703  0.02953509  0.28850911  1  0.028722  0  -0.157351  -0.170612  0  3.855926  0
C  C137  1  0.15130889  0.89261756  0.21146236  1  0.029523  0  -0.157221  -0.1701  0  3.856596  0
N  N138  1  0.05953334  0.38937346  0.70956557  1  -1.051868  0  -0.496556  -0.36768  0  3.441989  0
O  O139  1  0.99941266  0.99987651  0.50195601  1  -1.202251  0  -0.573005  -1.02407  0  2.542058  0
O  O140  1  0.68240589  0.06375549  0.94424886  1  -1.184968  0  -0.31709  -0.550814  0  2.339707  0
O  O141  1  0.55536445  0.93651396  0.11875017  1  -1.189322  0  -0.317746  -0.554187  0  2.338775  0
O  O142  1  0.94458229  0.06390291  0.68251202  1  -1.189144  0  -0.317033  -0.552185  0  2.336919  0
O  O143  1  0.38167963  0.93802387  0.81953445  1  -1.165282  0  -0.32141  -0.551065  0  2.317653  0
O  O144  1  0.67787338  0.06050468  0.11614937  1  -1.186439  0  -0.314009  -0.546042  0  2.370099  0
O  O145  1  0.38363689  0.06366787  0.94597072  1  -1.16359  0  -0.317304  -0.547952  0  2.328958  0
O  O146  1  0.38412353  0.06208942  0.11807272  1  -1.184736  0  -0.31348  -0.545983  0  2.372679  0
O  O147  1  0.55566806  0.93926900  0.82217975  1  -1.177626  0  -0.313101  -0.547016  0  2.369023  0
O  O148  1  0.38072216  0.76229143  0.94469545  1  -1.191555  0  -0.317873  -0.552374  0  2.333787  0
O  O149  1  0.67801783  0.23356083  0.11563792  1  -1.187673  0  -0.313464  -0.546865  0  2.367178  0
O  O150  1  0.94423376  0.76634366  0.38187696  1  -1.179421  0  -0.313645  -0.54653  0  2.370953  0
O  O151  1  0.11848068  0.93611675  0.38052459  1  -1.187291  0  -0.317348  -0.552046  0  2.341386  0
O  O152  1  0.81750200  0.76214121  0.38091766  1  -1.192054  0  -0.317844  -0.552563  0  2.336452  0
O  O153  1  0.11840208  0.23429793  0.55627214  1  -1.177242  0  -0.31308  -0.544905  0  2.385141  0
O  O154  1  0.81784832  0.93619844  0.38092871  1  -1.187555  0  -0.317142  -0.552973  0  2.336968  0
O  O155  1  0.11834323  0.06242177  0.68038755  1  -1.17604  0  -0.321336  -0.554476  0  2.313198  0
O  O156  1  0.94437116  0.06048220  0.38278110  1  -1.192945  0  -0.312596  -0.54331  0  2.370234  0
O  O157  1  0.11794191  0.93776521  0.55428839  1  -1.164751  0  -0.318278  -0.548047  0  2.329354  0
O  O158  1  0.11895364  0.23809534  0.68263396  1  -1.190766  0  -0.317194  -0.555274  0  2.347561  0
O  O159  1  0.82209891  0.93875847  0.55587804  1  -1.190983  0  -0.31346  -0.546242  0  2.36665  0
O  O160  1  0.11711139  0.06148580  0.38358582  1  -1.186515  0  -0.312978  -0.545321  0  2.367014  0
O  O161  1  0.49932882  0.99896315  0.00091232  1  -1.181767  0  -0.573282  -1.025178  0  2.545013  0
O  O162  1  0.38275751  0.76635908  0.82223914  1  -1.190734  0  -0.313472  -0.544633  0  2.370858  0
O  O163  1  0.55575855  0.23818945  0.11948436  1  -1.187525  0  -0.317081  -0.551138  0  2.343427  0
O  O164  1  0.38061021  0.93590129  0.11850313  1  -1.191656  0  -0.318233  -0.554226  0  2.336327  0
