# generated using pymatgen
data_CuH7C9O5
_symmetry_space_group_name_H-M   'P 1'
_cell_length_a   6.78235474
_cell_length_b   15.42300691
_cell_length_c   15.43624708
_cell_angle_alpha   78.02210718
_cell_angle_beta   78.34459080
_cell_angle_gamma   78.21666469
_symmetry_Int_Tables_number   1
_chemical_formula_structural   CuH7C9O5
_chemical_formula_sum   'Cu4 H28 C36 O20'
_cell_volume   1524.61779494
_cell_formula_units_Z   4
loop_
 _symmetry_equiv_pos_site_id
 _symmetry_equiv_pos_as_xyz
  1  'x, y, z'
loop_
 _atom_site_type_symbol
 _atom_site_label
 _atom_site_symmetry_multiplicity
 _atom_site_fract_x
 _atom_site_fract_y
 _atom_site_fract_z
 _atom_site_occupancy
 _atom_site_pbe_bader_charge
 _atom_site_pbe_bader_spin_density
 _atom_site_pbe_cm5_charge
 _atom_site_pbe_ddec_charge
 _atom_site_pbe_ddec_spin_density
 _atom_site_pbe_ddec_sum_bond_order
 _atom_site_pbe_magmom
Cu  Cu0  1  0.84295632  0.53398669  0.96406730  1  1.089877  0.584368  0.677715  0.833874  0.749506  2.304581  0.585
Cu  Cu1  1  0.84194869  0.96359369  0.53405971  1  1.085857  -0.554533  0.67488  0.832553  -0.740893  2.301153  -0.552
Cu  Cu2  1  0.15710531  0.46617759  0.03587264  1  1.090708  0.584755  0.677958  0.835488  0.750121  2.304402  0.585
Cu  Cu3  1  0.15826337  0.03625396  0.46589099  1  1.084428  0.554479  0.67526  0.832241  0.708447  2.300242  0.552
H  H4  1  0.49596098  0.54816817  0.89636723  1  0.636239  -8.6e-05  0.291125  0.385514  -3e-06  0.948407  0.0
H  H5  1  0.49320305  0.89709483  0.54945811  1  0.619873  4.8e-05  0.291484  0.386219  9e-05  0.948508  0.0
H  H6  1  0.50472182  0.45136067  0.10328402  1  0.62562  -8.6e-05  0.291246  0.3849  2e-06  0.949337  0.0
H  H7  1  0.50625758  0.10311337  0.45124955  1  0.630669  -4.2e-05  0.291848  0.385534  -8.7e-05  0.948563  0.0
H  H8  1  0.66392238  0.59008132  0.82490483  1  0.586044  -9.7e-05  0.314674  0.392018  -6.3e-05  0.892474  0.0
H  H9  1  0.65395745  0.82561862  0.59678730  1  0.593233  7e-05  0.315848  0.392369  5.3e-05  0.889881  0.0
H  H10  1  0.34004620  0.40678037  0.17445994  1  0.605334  -9.8e-05  0.315538  0.391673  -6.6e-05  0.89211  0.0
H  H11  1  0.34140072  0.17504512  0.40719312  1  0.610256  -6.6e-05  0.315274  0.391669  -5.6e-05  0.891842  0.0
H  H12  1  0.50760771  0.55689286  0.24507318  1  0.111706  0.001678  0.111336  0.133406  0.000849  0.982612  0.001
H  H13  1  0.80653062  0.94329088  0.25133032  1  0.08363  0.002117  0.110847  0.132372  0.001022  0.981762  0.001
H  H14  1  0.19293976  0.74840331  0.05703353  1  0.083751  0.002217  0.111153  0.132956  0.001122  0.980372  0.001
H  H15  1  0.49216846  0.75528112  0.44430971  1  0.072823  -0.001783  0.111699  0.13403  -0.000905  0.982574  -0.001
H  H16  1  0.49177489  0.44271470  0.75487779  1  0.106874  0.001677  0.111104  0.132824  0.000847  0.982229  0.001
H  H17  1  0.19307700  0.05698890  0.74854430  1  0.084229  -0.002117  0.11076  0.132619  -0.001076  0.981132  -0.001
H  H18  1  0.80723766  0.25182339  0.94274676  1  0.082871  0.002222  0.111016  0.13305  0.001128  0.980466  0.001
H  H19  1  0.50880128  0.24456741  0.55618206  1  0.073073  0.00178  0.111557  0.134064  0.000859  0.983294  0.001
H  H20  1  0.87027427  0.42985770  0.31993094  1  0.082191  0.000477  0.109695  0.111501  0.000326  0.993001  0.0
H  H21  1  0.12302044  0.07014911  0.18462793  1  0.089918  0.000431  0.113819  0.1189  0.000316  0.982326  0.0
H  H22  1  0.87682028  0.81560450  0.92966999  1  0.095235  0.000352  0.113763  0.118496  0.000289  0.98171  0.0
H  H23  1  0.12901610  0.68023790  0.56965425  1  0.082119  -0.000437  0.109884  0.111732  -0.000355  0.992682  0.0
H  H24  1  0.13019143  0.57044234  0.67983715  1  0.082915  0.000468  0.110024  0.111378  0.000347  0.993571  0.0
H  H25  1  0.87720540  0.92985604  0.81532299  1  0.090586  -0.000471  0.113535  0.118441  -0.000375  0.983183  0.0
H  H26  1  0.12261513  0.18455951  0.07041173  1  0.086991  0.000382  0.114059  0.11873  0.000283  0.982051  0.0
H  H27  1  0.87051665  0.31976178  0.42976908  1  0.082243  0.000422  0.110301  0.111802  0.00031  0.99292  0.0
H  H28  1  0.50026160  0.62775144  0.37261285  1  0.062706  3.1e-05  0.106738  0.111273  6e-06  1.001839  0.0
H  H29  1  0.99973987  0.87274265  0.12714768  1  0.059844  0.000105  0.103278  0.102796  5.8e-05  1.015976  0.0
H  H30  1  0.49978213  0.37217405  0.62723625  1  0.064271  0.000118  0.106845  0.111439  6.4e-05  1.001256  0.0
H  H31  1  0.00007875  0.12744938  0.87277583  1  0.06041  3e-05  0.103124  0.1027  -3e-06  1.015536  0.0
C  C32  1  0.78371581  0.50193350  0.15893912  1  1.518714  -0.001405  0.208922  0.61708  0.000524  4.172069  -0.004
C  C33  1  0.94318554  0.99415091  0.34329325  1  1.537144  0.000173  0.207016  0.617118  -2.4e-05  4.176332  0.0
C  C34  1  0.05608700  0.65675996  0.00607801  1  1.537681  -0.001132  0.207043  0.615351  0.001126  4.174432  -0.004
C  C35  1  0.21495861  0.84156064  0.49827635  1  1.500399  0.000635  0.210739  0.617137  0.000357  4.172531  0.001
C  C36  1  0.21616480  0.49817667  0.84091199  1  1.521521  -0.001394  0.209739  0.618457  0.000537  4.172033  -0.004
C  C37  1  0.05687458  0.00585589  0.65665127  1  1.539296  -0.000199  0.207854  0.62024  -0.00025  4.173844  0.0
C  C38  1  0.94383479  0.34340600  0.99388060  1  1.539104  -0.001089  0.207181  0.617012  0.00114  4.173837  -0.004
C  C39  1  0.78548626  0.15838511  0.50167219  1  1.535586  -0.000607  0.210945  0.617505  -0.000578  4.172728  -0.001
C  C40  1  0.65768326  0.51492565  0.24710499  1  -0.144387  0.016468  -0.095483  -0.235895  0.011632  3.905585  0.013
C  C41  1  0.91855644  0.98439570  0.25279294  1  -0.03978  5.2e-05  -0.092764  -0.222079  -0.000207  3.891777  0.0
C  C42  1  0.08078586  0.74709996  0.01586358  1  -0.042128  0.016692  -0.093459  -0.223608  0.011863  3.893571  0.013
C  C43  1  0.34190032  0.75320893  0.48575497  1  -0.09107  -0.001092  -0.094789  -0.235829  -0.000718  3.9037  -0.001
C  C44  1  0.34204025  0.48496542  0.75277874  1  -0.135939  0.016288  -0.096059  -0.235998  0.011507  3.905115  0.013
C  C45  1  0.08129234  0.01574727  0.74713288  1  -0.041757  2e-06  -0.092819  -0.222942  0.000105  3.890716  0.0
C  C46  1  0.91915756  0.25308765  0.98405053  1  -0.043698  0.01688  -0.093368  -0.224138  0.012  3.894947  0.013
C  C47  1  0.65863196  0.24671325  0.51433342  1  -0.125664  0.001105  -0.094679  -0.236724  0.000599  3.906096  0.001
C  C48  1  0.72347585  0.47531234  0.32482768  1  0.04498  -0.000514  -0.069743  -0.058097  -0.000358  3.972442  0.0
C  C49  1  0.02443633  0.02515222  0.17718155  1  -0.03434  -0.001503  -0.066996  -0.057066  -0.000982  3.952031  -0.001
C  C50  1  0.97534652  0.82291023  0.97480096  1  -0.043073  -0.000983  -0.06566  -0.054777  -0.000692  3.9493  0.0
C  C51  1  0.27626647  0.67535363  0.52476814  1  0.039012  0.002328  -0.069447  -0.057478  0.001431  3.972017  0.002
C  C52  1  0.27660981  0.52471488  0.67500356  1  0.01645  -0.000538  -0.06998  -0.058121  -0.000355  3.973179  0.0
C  C53  1  0.97557758  0.97494399  0.82275901  1  -0.033034  0.001417  -0.066512  -0.056384  0.000827  3.951732  0.001
C  C54  1  0.02438529  0.17726875  0.02516710  1  -0.029901  -0.001246  -0.065771  -0.054751  -0.000883  3.950549  0.0
C  C55  1  0.72375698  0.32459208  0.47502964  1  0.03546  -0.002302  -0.069968  -0.057521  -0.001536  3.972115  -0.002
C  C56  1  0.61302144  0.48747898  0.41420548  1  0.037552  0.000535  -0.004085  0.062493  0.000303  4.003497  0.0
C  C57  1  0.01497741  0.01341306  0.08659349  1  -0.076254  -0.001035  -0.002406  0.064371  -0.000735  3.99862  -0.001
C  C58  1  0.98477595  0.91353867  0.98653682  1  -0.072517  0.000602  -0.002084  0.064153  0.000361  3.99756  0.001
C  C59  1  0.38711966  0.58588732  0.51249846  1  0.036973  0.000763  -0.003969  0.063829  0.000527  4.002662  0.001
C  C60  1  0.38697907  0.51245718  0.58564142  1  -0.032412  0.000587  -0.003813  0.06219  0.000364  4.005319  0.001
C  C61  1  0.98489100  0.98675551  0.91333420  1  0.024529  0.000912  -0.002562  0.064457  0.000618  3.997844  0.001
C  C62  1  0.01501169  0.08664788  0.01340209  1  0.02581  0.000878  -0.002188  0.064413  0.000521  3.998019  0.001
C  C63  1  0.61292915  0.41405232  0.48734215  1  -0.057273  -0.00076  -0.003787  0.063635  -0.000555  4.000549  -0.001
C  C64  1  0.50015628  0.57149060  0.42867460  1  0.002654  -0.000385  -0.077765  -0.162211  -0.000277  3.926099  0.0
C  C65  1  0.99981350  0.92894290  0.07104866  1  0.031101  0.00034  -0.07839  -0.162085  0.000231  3.935786  0.0
C  C66  1  0.49984051  0.42844421  0.57116856  1  0.001478  0.000184  -0.078006  -0.162223  0.000133  3.925358  0.0
C  C67  1  0.99999668  0.07124424  0.92888314  1  0.024979  -0.000512  -0.077939  -0.161708  -0.000373  3.934907  0.0
O  O68  1  0.97253862  0.46984812  0.15608847  1  -1.116682  0.088836  -0.313735  -0.531974  0.057337  2.320904  0.081
O  O69  1  0.09236407  0.03056255  0.34892097  1  -1.095118  0.087937  -0.320163  -0.525639  0.056717  2.318347  0.079
O  O70  1  0.90651517  0.65090520  0.96989280  1  -1.092499  0.098536  -0.3189  -0.522053  0.063049  2.320516  0.089
O  O71  1  0.02627369  0.84413949  0.53006704  1  -1.098161  -0.081308  -0.311918  -0.526608  -0.055425  2.330057  -0.074
O  O72  1  0.02779085  0.53113394  0.84371065  1  -1.119179  0.088546  -0.313865  -0.532359  0.05721  2.321049  0.081
O  O73  1  0.90932712  0.96838795  0.65107625  1  -1.09736  -0.087906  -0.320325  -0.527867  -0.059269  2.317413  -0.079
O  O74  1  0.09198552  0.34924002  0.03098588  1  -1.095218  0.098462  -0.319519  -0.523585  0.062957  2.319389  0.089
O  O75  1  0.97371282  0.15585641  0.46896761  1  -1.099843  0.081325  -0.312198  -0.527356  0.052978  2.329822  0.074
O  O76  1  0.68909023  0.52568100  0.09112295  1  -1.108593  0.08606  -0.308704  -0.537118  0.055469  2.334016  0.079
O  O77  1  0.81347375  0.96284825  0.40878303  1  -1.099283  -0.095641  -0.318013  -0.524023  -0.064434  2.309127  -0.086
O  O78  1  0.18628490  0.59076976  0.03686977  1  -1.096963  0.107523  -0.317407  -0.521304  0.068827  2.311513  0.097
O  O79  1  0.30943634  0.90935722  0.47418007  1  -1.106707  0.077607  -0.308393  -0.534939  0.050497  2.343338  0.07
O  O80  1  0.31053741  0.47372057  0.90879321  1  -1.108013  0.086121  -0.309226  -0.537861  0.055554  2.332773  0.079
O  O81  1  0.18519389  0.03807006  0.59109299  1  -1.099012  0.095494  -0.319373  -0.52599  0.061536  2.310023  0.086
O  O82  1  0.81501009  0.40945722  0.96216444  1  -1.098589  0.107519  -0.31728  -0.522231  0.06892  2.314002  0.097
O  O83  1  0.69132321  0.09051935  0.52659271  1  -1.104607  -0.077623  -0.308536  -0.533981  -0.05295  2.341743  -0.07
O  O84  1  0.58942589  0.59219073  0.88551423  1  -1.187223  -4.2e-05  -0.584248  -0.728528  0.000345  2.012561  0.001
O  O85  1  0.58511994  0.88772788  0.59394858  1  -1.17871  0.001686  -0.582872  -0.729836  0.000915  2.014224  0.0
O  O86  1  0.41206199  0.40710923  0.11316387  1  -1.195975  -3.7e-05  -0.583552  -0.726484  0.000351  2.01636  0.001
O  O87  1  0.41338077  0.11367093  0.40700035  1  -1.205985  -0.001652  -0.584108  -0.728628  -0.000934  2.01602  0.0
