# generated using pymatgen
data_SmAgH8C14(NO4)2
_symmetry_space_group_name_H-M   'P 1'
_cell_length_a   9.15291503
_cell_length_b   9.79544533
_cell_length_c   22.24375070
_cell_angle_alpha   90.00034206
_cell_angle_beta   90.00023165
_cell_angle_gamma   117.54932715
_symmetry_Int_Tables_number   1
_chemical_formula_structural   SmAgH8C14(NO4)2
_chemical_formula_sum   'Sm4 Ag4 H32 C56 N8 O32'
_cell_volume   1768.17692083
_cell_formula_units_Z   4
loop_
 _symmetry_equiv_pos_site_id
 _symmetry_equiv_pos_as_xyz
  1  'x, y, z'
loop_
 _atom_site_type_symbol
 _atom_site_label
 _atom_site_symmetry_multiplicity
 _atom_site_fract_x
 _atom_site_fract_y
 _atom_site_fract_z
 _atom_site_occupancy
 _atom_site_hle17_bader_spin_density
 _atom_site_hle17_ddec_charge
 _atom_site_hle17_ddec_spin_density
 _atom_site_hle17_ddec_sum_bond_order
 _atom_site_hle17_magmom
 _atom_site_hse06_10hf_bader_spin_density
 _atom_site_hse06_10hf_ddec_charge
 _atom_site_hse06_10hf_ddec_spin_density
 _atom_site_hse06_10hf_ddec_sum_bond_order
 _atom_site_hse06_10hf_magmom
 _atom_site_hse06_bader_spin_density
 _atom_site_hse06_ddec_charge
 _atom_site_hse06_ddec_spin_density
 _atom_site_hse06_ddec_sum_bond_order
 _atom_site_hse06_magmom
 _atom_site_pbe_bader_spin_density
 _atom_site_pbe_cm5_charge
 _atom_site_pbe_ddec_charge
 _atom_site_pbe_ddec_spin_density
 _atom_site_pbe_ddec_sum_bond_order
 _atom_site_pbe_magmom
Sm  Sm0  1  0.11670394  0.85280572  0.99077657  1  0  2.282538  0  1.658708  0  0  2.130835  0  2.130583  0  0  2.2379  0  1.969881  0  0  1.488508  2.096804  0  2.164129  0
Sm  Sm1  1  0.38328884  0.14719398  0.49077880  1  0  2.282548  0  1.658795  0  0  2.130859  0  2.130647  0  0  2.237905  0  1.969966  0  0  1.488549  2.096829  0  2.164182  0
Sm  Sm2  1  0.88328798  0.14719090  0.00922149  1  0  2.282566  0  1.658697  0  0  2.130875  0  2.13055  0  0  2.237926  0  1.969857  0  0  1.488545  2.096846  0  2.164084  0
Sm  Sm3  1  0.61670809  0.85280840  0.50922061  1  0  2.282549  0  1.658772  0  0  2.130823  0  2.13068  0  0  2.237902  0  1.969949  0  0  1.48854  2.096795  0  2.164218  0
Ag  Ag4  1  0.47680285  0.81145091  0.85060307  1  0  0.52796  0  1.357015  0  0  0.367602  0  1.767893  0  0  0.402162  0  1.723811  0  0  0.477003  0.345092  0  1.798028  0
Ag  Ag5  1  0.02319903  0.18854568  0.35060436  1  0  0.527916  0  1.357021  0  0  0.367567  0  1.767897  0  0  0.402121  0  1.723815  0  0  0.476991  0.345064  0  1.798035  0
Ag  Ag6  1  0.52319833  0.18854231  0.14939500  1  0  0.527958  0  1.357063  0  0  0.367633  0  1.767942  0  0  0.402193  0  1.723861  0  0  0.477012  0.345127  0  1.798084  0
Ag  Ag7  1  0.97680500  0.81145560  0.64939416  1  0  0.527958  0  1.357066  0  0  0.367616  0  1.76795  0  0  0.402176  0  1.723873  0  0  0.477007  0.345111  0  1.798085  0
H  H8  1  0.21306982  0.51921920  0.13257427  1  0  0.122531  0  0.932776  0  0  0.135118  0  0.983911  0  0  0.138782  0  0.982104  0  0  0.117144  0.132532  0  0.985164  0
H  H9  1  0.28693646  0.48078857  0.63257315  1  0  0.122577  0  0.932814  0  0  0.135105  0  0.984007  0  0  0.138769  0  0.982199  0  0  0.117145  0.132493  0  0.985291  0
H  H10  1  0.78693643  0.48078438  0.86742919  1  0  0.122587  0  0.932774  0  0  0.135124  0  0.98397  0  0  0.138787  0  0.982165  0  0  0.117138  0.132549  0  0.985207  0
H  H11  1  0.71306538  0.51921269  0.36742672  1  0  0.122589  0  0.932716  0  0  0.13512  0  0.983923  0  0  0.138783  0  0.982115  0  0  0.117148  0.132525  0  0.985179  0
H  H12  1  0.70084766  0.47073310  0.06762649  1  0  0.098817  0  0.934889  0  0  0.108145  0  0.997752  0  0  0.11064  0  0.99516  0  0  0.125582  0.106354  0  0.999346  0
H  H13  1  0.79915565  0.52926640  0.56762461  1  0  0.098794  0  0.934844  0  0  0.108126  0  0.997705  0  0  0.110622  0  0.995113  0  0  0.125561  0.106333  0  0.999306  0
H  H14  1  0.29915578  0.52926472  0.93237608  1  0  0.0988  0  0.934869  0  0  0.108125  0  0.997742  0  0  0.110621  0  0.995149  0  0  0.125569  0.106334  0  0.999337  0
H  H15  1  0.20084842  0.47073717  0.43237526  1  0  0.098835  0  0.934906  0  0  0.108166  0  0.997754  0  0  0.110661  0  0.995163  0  0  0.125599  0.106381  0  0.99935  0
H  H16  1  0.26404456  0.30051356  0.16461809  1  0  0.062479  0  0.967378  0  0  0.073387  0  1.033542  0  0  0.074789  0  1.031978  0  0  0.11124  0.072304  0  1.034667  0
H  H17  1  0.23596127  0.69949264  0.66461655  1  0  0.062489  0  0.967372  0  0  0.073396  0  1.033538  0  0  0.074798  0  1.031976  0  0  0.111224  0.072315  0  1.034655  0
H  H18  1  0.73596004  0.69948887  0.83538538  1  0  0.062478  0  0.967418  0  0  0.073423  0  1.033552  0  0  0.074823  0  1.031991  0  0  0.111241  0.072338  0  1.034673  0
H  H19  1  0.76404276  0.30050863  0.33538377  1  0  0.062477  0  0.967423  0  0  0.073383  0  1.033585  0  0  0.074785  0  1.032022  0  0  0.111229  0.072298  0  1.034708  0
H  H20  1  0.42670245  0.72915889  0.06965099  1  0  0.114476  0  0.945805  0  0  0.123113  0  1.009217  0  0  0.125935  0  1.007057  0  0  0.117155  0.121051  0  1.010788  0
H  H21  1  0.07330685  0.27084519  0.56964850  1  0  0.114435  0  0.945799  0  0  0.123093  0  1.009193  0  0  0.125916  0  1.007034  0  0  0.11714  0.121035  0  1.010765  0
H  H22  1  0.57330377  0.27084240  0.93035158  1  0  0.114414  0  0.945813  0  0  0.123064  0  1.009216  0  0  0.125887  0  1.007056  0  0  0.117123  0.121004  0  1.010781  0
H  H23  1  0.92669997  0.72915954  0.43035001  1  0  0.114409  0  0.945875  0  0  0.123091  0  1.009242  0  0  0.125913  0  1.00708  0  0  0.117137  0.121029  0  1.010812  0
H  H24  1  0.01256056  0.84827013  0.78184004  1  0  0.088974  0  0.936744  0  0  0.097565  0  1.001404  0  0  0.101301  0  0.996629  0  0  0.120886  0.094956  0  1.004641  0
H  H25  1  0.48743828  0.15172834  0.28184156  1  0  0.088929  0  0.936818  0  0  0.097508  0  1.001478  0  0  0.101247  0  0.9967  0  0  0.120858  0.094892  0  1.00473  0
H  H26  1  0.98743627  0.15172536  0.21815802  1  0  0.088946  0  0.936818  0  0  0.097523  0  1.001487  0  0  0.101262  0  0.996708  0  0  0.120859  0.094905  0  1.004742  0
H  H27  1  0.51256416  0.84827637  0.71815785  1  0  0.088965  0  0.93679  0  0  0.097548  0  1.001458  0  0  0.101287  0  0.996678  0  0  0.120877  0.094921  0  1.004719  0
H  H28  1  0.90059174  0.20383656  0.84489135  1  0  0.130622  0  0.9229  0  0  0.139798  0  0.981193  0  0  0.143969  0  0.976975  0  0  0.125658  0.136607  0  0.984558  0
H  H29  1  0.59940805  0.79616574  0.34489527  1  0  0.130568  0  0.922813  0  0  0.1397  0  0.981168  0  0  0.14387  0  0.976949  0  0  0.125621  0.1365  0  0.984545  0
H  H30  1  0.09941558  0.79616473  0.15510627  1  0  0.130591  0  0.922884  0  0  0.139718  0  0.981238  0  0  0.143888  0  0.977019  0  0  0.125625  0.136526  0  0.984604  0
H  H31  1  0.40059001  0.20383895  0.65510909  1  0  0.130627  0  0.922892  0  0  0.139768  0  0.981228  0  0  0.143938  0  0.977009  0  0  0.125636  0.136574  0  0.984602  0
H  H32  1  0.88064146  0.08514101  0.65588169  1  0  0.099529  0  0.926186  0  0  0.106332  0  0.990249  0  0  0.109162  0  0.987702  0  0  0.126693  0.10405  0  0.992585  0
H  H33  1  0.61936420  0.91485705  0.15588640  1  0  0.099549  0  0.926187  0  0  0.106411  0  0.990172  0  0  0.109238  0  0.987636  0  0  0.12672  0.104125  0  0.992503  0
H  H34  1  0.11936313  0.91486141  0.34411593  1  0  0.099607  0  0.926149  0  0  0.106408  0  0.990195  0  0  0.109236  0  0.987658  0  0  0.12672  0.10412  0  0.992531  0
H  H35  1  0.38063369  0.08513615  0.84411796  1  0  0.099561  0  0.926146  0  0  0.106396  0  0.990171  0  0  0.109225  0  0.98763  0  0  0.126702  0.104109  0  0.992501  0
H  H36  1  0.85422330  0.25183505  0.73613589  1  0  0.10748  0  0.932557  0  0  0.121972  0  0.980275  0  0  0.124549  0  0.981531  0  0  0.112888  0.120102  0  0.979625  0
H  H37  1  0.64578242  0.74816597  0.23614020  1  0  0.107428  0  0.932586  0  0  0.121962  0  0.980258  0  0  0.124546  0  0.981514  0  0  0.112826  0.120088  0  0.979612  0
H  H38  1  0.14578680  0.74816970  0.26386218  1  0  0.107426  0  0.93261  0  0  0.12194  0  0.980296  0  0  0.124526  0  0.981551  0  0  0.112834  0.120065  0  0.979654  0
H  H39  1  0.35421388  0.25183067  0.76386506  1  0  0.107417  0  0.9325  0  0  0.121905  0  0.980231  0  0  0.124485  0  0.981488  0  0  0.11283  0.120038  0  0.979588  0
C  C40  1  0.58092148  0.61640603  0.06420270  1  0  -0.111027  0  3.713813  0  0  -0.084403  0  3.946152  0  0  -0.096698  0  3.968649  0  0  -0.0086  -0.076332  0  3.930355  0
C  C41  1  0.91908342  0.38359455  0.56420153  1  0  -0.111084  0  3.713876  0  0  -0.084447  0  3.946251  0  0  -0.096742  0  3.968744  0  0  -0.008581  -0.076385  0  3.93047  0
C  C42  1  0.41908309  0.38359409  0.93579852  1  0  -0.110965  0  3.713828  0  0  -0.084402  0  3.94616  0  0  -0.096696  0  3.968653  0  0  -0.00858  -0.076331  0  3.930365  0
C  C43  1  0.08091899  0.61640786  0.43579878  1  0  -0.110996  0  3.713706  0  0  -0.084367  0  3.946113  0  0  -0.096666  0  3.968613  0  0  -0.008567  -0.076304  0  3.930333  0
C  C44  1  0.32544452  0.51526491  0.11911620  1  0  -0.098113  0  3.711017  0  0  -0.107916  0  3.957421  0  0  -0.115536  0  3.978318  0  0  -0.072936  -0.103116  0  3.943456  0
C  C45  1  0.17456473  0.48474028  0.61911535  1  0  -0.09814  0  3.710959  0  0  -0.10789  0  3.957364  0  0  -0.115511  0  3.978264  0  0  -0.072941  -0.103066  0  3.943406  0
C  C46  1  0.67456392  0.48473868  0.88088726  1  0  -0.098095  0  3.71084  0  0  -0.107865  0  3.957277  0  0  -0.115485  0  3.978175  0  0  -0.072933  -0.103076  0  3.943309  0
C  C47  1  0.82543987  0.51526214  0.38088542  1  0  -0.0981  0  3.710959  0  0  -0.10786  0  3.957382  0  0  -0.115479  0  3.978282  0  0  -0.072949  -0.103055  0  3.94341  0
C  C48  1  0.59613849  0.48678064  0.08209026  1  0  0.117207  0  3.65114  0  0  0.077279  0  3.889375  0  0  0.086069  0  3.90776  0  0  0.052361  0.071376  0  3.877016  0
C  C49  1  0.90386787  0.51322035  0.58208806  1  0  0.117288  0  3.651151  0  0  0.077374  0  3.889392  0  0  0.086168  0  3.907778  0  0  0.052358  0.07148  0  3.877028  0
C  C50  1  0.40386607  0.51321949  0.91791230  1  0  0.11714  0  3.651251  0  0  0.077205  0  3.889475  0  0  0.085993  0  3.907861  0  0  0.052291  0.071295  0  3.877136  0
C  C51  1  0.09613782  0.48678208  0.41791181  1  0  0.117066  0  3.651177  0  0  0.077147  0  3.889394  0  0  0.085932  0  3.90778  0  0  0.052262  0.071223  0  3.877085  0
C  C52  1  0.35187751  0.39197182  0.13615051  1  0  0.12677  0  3.705676  0  0  0.094346  0  3.947984  0  0  0.102749  0  3.967102  0  0  0.04824  0.088867  0  3.935093  0
C  C53  1  0.14812994  0.60803604  0.63614858  1  0  0.12685  0  3.705688  0  0  0.094446  0  3.947967  0  0  0.10285  0  3.967086  0  0  0.048325  0.088971  0  3.935056  0
C  C54  1  0.64812818  0.60803061  0.86385340  1  0  0.126754  0  3.70566  0  0  0.094292  0  3.947945  0  0  0.102693  0  3.967066  0  0  0.048238  0.088813  0  3.935055  0
C  C55  1  0.85187412  0.39196753  0.36385173  1  0  0.126693  0  3.705735  0  0  0.094272  0  3.948016  0  0  0.102667  0  3.967135  0  0  0.048233  0.0888  0  3.935109  0
C  C56  1  0.71442055  0.74217204  0.02755178  1  0  0.713354  0  3.888583  0  0  0.66607  0  4.180408  0  0  0.702247  0  4.173258  0  0  0.226825  0.642031  0  4.186373  0
C  C57  1  0.78558028  0.25782770  0.52755006  1  0  0.713401  0  3.888551  0  0  0.666058  0  4.18047  0  0  0.702235  0  4.173319  0  0  0.226758  0.642029  0  4.186428  0
C  C58  1  0.28557740  0.25782576  0.97244854  1  0  0.713248  0  3.888707  0  0  0.666126  0  4.180283  0  0  0.702301  0  4.173133  0  0  0.226832  0.642091  0  4.186242  0
C  C59  1  0.21441937  0.74217355  0.47244891  1  0  0.713548  0  3.888206  0  0  0.666174  0  4.180185  0  0  0.702352  0  4.173032  0  0  0.226846  0.64213  0  4.186156  0
C  C60  1  0.44260513  0.63011828  0.08329201  1  0  -0.003504  0  3.662909  0  0  -0.033478  0  3.91122  0  0  -0.027791  0  3.927892  0  0  -0.054953  -0.036953  0  3.899936  0
C  C61  1  0.05739895  0.36988378  0.58328975  1  0  -0.003503  0  3.662859  0  0  -0.033497  0  3.911175  0  0  -0.02781  0  3.927848  0  0  -0.054958  -0.036974  0  3.899894  0
C  C62  1  0.55739890  0.36988299  0.91671146  1  0  -0.003565  0  3.662845  0  0  -0.033544  0  3.911164  0  0  -0.027857  0  3.927837  0  0  -0.05498  -0.037017  0  3.899872  0
C  C63  1  0.94260180  0.63011748  0.41670966  1  0  -0.003562  0  3.66298  0  0  -0.033564  0  3.911281  0  0  -0.027876  0  3.927953  0  0  -0.054965  -0.037033  0  3.899991  0
C  C64  1  0.97536875  0.93697560  0.77264152  1  0  0.091026  0  3.728633  0  0  0.051002  0  3.972091  0  0  0.05891  0  3.991759  0  0  0.045918  0.04552  0  3.959376  0
C  C65  1  0.52463227  0.06302622  0.27264339  1  0  0.091203  0  3.728603  0  0  0.051248  0  3.971994  0  0  0.059138  0  3.991696  0  0  0.046015  0.045764  0  3.959296  0
C  C66  1  0.02463253  0.06302451  0.22735744  1  0  0.091134  0  3.728642  0  0  0.051146  0  3.972023  0  0  0.059037  0  3.991721  0  0  0.046001  0.045667  0  3.959322  0
C  C67  1  0.47536908  0.93697849  0.72735738  1  0  0.091165  0  3.728583  0  0  0.051162  0  3.971988  0  0  0.059051  0  3.991693  0  0  0.04598  0.045687  0  3.959288  0
C  C68  1  0.91403001  0.13670882  0.80806565  1  0  -0.001653  0  3.651643  0  0  -0.029339  0  3.895847  0  0  -0.022682  0  3.910629  0  0  -0.04804  -0.033362  0  3.88539  0
C  C69  1  0.58596843  0.86329148  0.30806972  1  0  -0.001381  0  3.651386  0  0  -0.029025  0  3.895581  0  0  -0.022364  0  3.910359  0  0  -0.04797  -0.033044  0  3.88513  0
C  C70  1  0.08597293  0.86329244  0.19193152  1  0  -0.001701  0  3.651713  0  0  -0.029366  0  3.895928  0  0  -0.022708  0  3.91071  0  0  -0.048071  -0.03339  0  3.885476  0
C  C71  1  0.41403015  0.13671206  0.69193374  1  0  -0.001698  0  3.651607  0  0  -0.029367  0  3.89581  0  0  -0.022707  0  3.910589  0  0  -0.048048  -0.03339  0  3.885363  0
C  C72  1  0.90408510  0.07123036  0.70295603  1  0  0.139495  0  3.656176  0  0  0.105837  0  3.904165  0  0  0.114619  0  3.92232  0  0  0.057004  0.100209  0  3.892012  0
C  C73  1  0.59591770  0.92876760  0.20295984  1  0  0.139541  0  3.656241  0  0  0.10588  0  3.904227  0  0  0.114665  0  3.922375  0  0  0.057091  0.100258  0  3.892056  0
C  C74  1  0.09591784  0.92877091  0.29704158  1  0  0.13945  0  3.656242  0  0  0.105827  0  3.904202  0  0  0.114611  0  3.922352  0  0  0.057085  0.100207  0  3.892035  0
C  C75  1  0.40408079  0.07122905  0.79704272  1  0  0.139418  0  3.656213  0  0  0.105753  0  3.904184  0  0  0.114535  0  3.922335  0  0  0.057011  0.100136  0  3.892011  0
C  C76  1  0.95926232  0.02122745  0.82038990  1  0  -0.112205  0  3.742166  0  0  -0.08537  0  3.974249  0  0  -0.097964  0  3.997135  0  0  -0.009095  -0.077104  0  3.957907  0
C  C77  1  0.54073419  0.97877312  0.32039240  1  0  -0.112554  0  3.74227  0  0  -0.085684  0  3.974383  0  0  -0.098276  0  3.997259  0  0  -0.009149  -0.077422  0  3.958047  0
C  C78  1  0.04073730  0.97877150  0.17960817  1  0  -0.112362  0  3.742255  0  0  -0.085462  0  3.974295  0  0  -0.098051  0  3.997173  0  0  -0.009134  -0.077195  0  3.957952  0
C  C79  1  0.45926606  0.02123158  0.67960927  1  0  -0.112354  0  3.742243  0  0  -0.08548  0  3.974327  0  0  -0.098072  0  3.997205  0  0  -0.009143  -0.077214  0  3.957982  0
C  C80  1  0.88825377  0.16241851  0.74816255  1  0  -0.125748  0  3.739828  0  0  -0.13586  0  3.990336  0  0  -0.145357  0  4.013783  0  0  -0.080601  -0.12971  0  3.974468  0
C  C81  1  0.61174726  0.83758161  0.24816704  1  0  -0.125876  0  3.740008  0  0  -0.136039  0  3.990533  0  0  -0.145545  0  4.013985  0  0  -0.08065  -0.129884  0  3.974653  0
C  C82  1  0.11175136  0.83758277  0.25183462  1  0  -0.125647  0  3.739954  0  0  -0.135777  0  3.990409  0  0  -0.145285  0  4.013867  0  0  -0.080566  -0.129621  0  3.974528  0
C  C83  1  0.38825073  0.16241848  0.75183777  1  0  -0.125607  0  3.739703  0  0  -0.135714  0  3.990201  0  0  -0.145215  0  4.013655  0  0  -0.080546  -0.12957  0  3.974339  0
C  C84  1  0.50375254  0.97911512  0.96675054  1  0  0.55766  0  3.945726  0  0  0.512439  0  4.23792  0  0  0.54233  0  4.234997  0  0  0.205454  0.491912  0  4.243271  0
C  C85  1  0.99623798  0.02086805  0.46675083  1  0  0.557776  0  3.94561  0  0  0.512605  0  4.237759  0  0  0.542494  0  4.234838  0  0  0.205523  0.492076  0  4.243115  0
C  C86  1  0.49624030  0.02087002  0.03324708  1  0  0.557716  0  3.945927  0  0  0.51257  0  4.238014  0  0  0.542459  0  4.235093  0  0  0.205539  0.492042  0  4.243372  0
C  C87  1  0.00375217  0.97912052  0.53324769  1  0  0.557594  0  3.945765  0  0  0.512353  0  4.237991  0  0  0.542241  0  4.235073  0  0  0.205419  0.491826  0  4.243345  0
C  C88  1  0.99220020  0.98338893  0.88270442  1  0  0.696644  0  3.919194  0  0  0.649477  0  4.208565  0  0  0.684383  0  4.204736  0  0  0.22598  0.625965  0  4.21369  0
C  C89  1  0.50779490  0.01661419  0.38270614  1  0  0.69679  0  3.919005  0  0  0.649479  0  4.208597  0  0  0.684389  0  4.204761  0  0  0.226024  0.625971  0  4.213723  0
C  C90  1  0.00779998  0.01661118  0.11729365  1  0  0.696789  0  3.919014  0  0  0.649519  0  4.20852  0  0  0.684426  0  4.204687  0  0  0.226017  0.62601  0  4.213646  0
C  C91  1  0.49220817  0.98339626  0.61729463  1  0  0.696695  0  3.919036  0  0  0.649458  0  4.208515  0  0  0.684366  0  4.204682  0  0  0.225955  0.625953  0  4.213633  0
C  C92  1  0.99141205  0.49241408  0.96508467  1  0  0.548847  0  3.952888  0  0  0.506431  0  4.255556  0  0  0.535684  0  4.252733  0  0  0.208577  0.486141  0  4.261492  0
C  C93  1  0.50857091  0.50757820  0.46508408  1  0  0.548829  0  3.953056  0  0  0.506454  0  4.255675  0  0  0.535706  0  4.252854  0  0  0.208564  0.486174  0  4.2616  0
C  C94  1  0.00857429  0.50757562  0.03491250  1  0  0.548927  0  3.953014  0  0  0.506548  0  4.255622  0  0  0.535801  0  4.2528  0  0  0.208621  0.486262  0  4.261553  0
C  C95  1  0.49141832  0.49242185  0.53491264  1  0  0.548876  0  3.952952  0  0  0.506434  0  4.255657  0  0  0.535688  0  4.252837  0  0  0.208574  0.486156  0  4.261578  0
N  N96  1  0.48508603  0.37747055  0.11827547  1  0  -0.305993  0  3.3693  0  0  -0.212991  0  3.654536  0  0  -0.233748  0  3.670041  0  0  -0.348009  -0.199369  0  3.643888  0
N  N97  1  0.01492154  0.62253346  0.61827291  1  0  -0.306104  0  3.369395  0  0  -0.213149  0  3.654667  0  0  -0.233915  0  3.670181  0  0  -0.348053  -0.199528  0  3.64402  0
N  N98  1  0.51491853  0.62252957  0.88172710  1  0  -0.305885  0  3.369264  0  0  -0.212847  0  3.654457  0  0  -0.233602  0  3.669962  0  0  -0.347909  -0.199231  0  3.643811  0
N  N99  1  0.98508472  0.37747012  0.38172696  1  0  -0.305816  0  3.369227  0  0  -0.212796  0  3.654433  0  0  -0.233538  0  3.669928  0  0  -0.347914  -0.199168  0  3.643773  0
N  N100  1  0.94692942  0.95937072  0.71502670  1  0  -0.299044  0  3.361694  0  0  -0.207803  0  3.643599  0  0  -0.228552  0  3.660107  0  0  -0.345059  -0.193609  0  3.631686  0
N  N101  1  0.55307367  0.04062981  0.21502900  1  0  -0.298994  0  3.361534  0  0  -0.207845  0  3.643518  0  0  -0.228589  0  3.660016  0  0  -0.345068  -0.193651  0  3.631602  0
N  N102  1  0.05307185  0.04062939  0.28497182  1  0  -0.298995  0  3.361645  0  0  -0.207796  0  3.64356  0  0  -0.228539  0  3.66006  0  0  -0.345074  -0.193606  0  3.631647  0
N  N103  1  0.44692761  0.95937030  0.78497267  1  0  -0.29905  0  3.361637  0  0  -0.207843  0  3.643589  0  0  -0.228586  0  3.660089  0  0  -0.345053  -0.193645  0  3.631658  0
O  O104  1  0.36922502  0.88005968  0.94345386  1  0  -0.671622  0  2.106496  0  0  -0.60891  0  2.373197  0  0  -0.642186  0  2.359658  0  0  -0.378338  -0.59046  0  2.380665  0
O  O105  1  0.13076380  0.11992400  0.44345471  1  0  -0.671659  0  2.106492  0  0  -0.608966  0  2.373198  0  0  -0.642234  0  2.359652  0  0  -0.378352  -0.590519  0  2.380674  0
O  O106  1  0.63076623  0.11992889  0.05654330  1  0  -0.671619  0  2.106667  0  0  -0.608935  0  2.373352  0  0  -0.642204  0  2.359806  0  0  -0.378327  -0.590487  0  2.380827  0
O  O107  1  0.86922691  0.88006572  0.55654471  1  0  -0.671496  0  2.106487  0  0  -0.608765  0  2.373194  0  0  -0.642041  0  2.359654  0  0  -0.378251  -0.59032  0  2.380671  0
O  O108  1  0.81845275  0.71111562  0.00116059  1  0  -0.733302  0  2.023274  0  0  -0.685889  0  2.278656  0  0  -0.720424  0  2.268831  0  0  -0.383427  -0.66734  0  2.28346  0
O  O109  1  0.68154315  0.28888349  0.50116148  1  0  -0.733295  0  2.023211  0  0  -0.685871  0  2.278624  0  0  -0.720401  0  2.268798  0  0  -0.383398  -0.667326  0  2.283436  0
O  O110  1  0.18154298  0.28887986  0.99883793  1  0  -0.733238  0  2.023402  0  0  -0.685871  0  2.278677  0  0  -0.720399  0  2.268848  0  0  -0.38339  -0.667344  0  2.283529  0
O  O111  1  0.31845491  0.71112119  0.49883973  1  0  -0.733347  0  2.023175  0  0  -0.685896  0  2.278591  0  0  -0.720429  0  2.268762  0  0  -0.383408  -0.667362  0  2.283442  0
O  O112  1  0.71259792  0.87088724  0.02765625  1  0  -0.737385  0  2.066552  0  0  -0.683929  0  2.319067  0  0  -0.718532  0  2.308647  0  0  -0.376513  -0.665438  0  2.324361  0
O  O113  1  0.78740292  0.12911250  0.52765239  1  0  -0.737398  0  2.066635  0  0  -0.683911  0  2.319177  0  0  -0.718521  0  2.308757  0  0  -0.376474  -0.665424  0  2.324473  0
O  O114  1  0.28740057  0.12910941  0.97234362  1  0  -0.737339  0  2.066538  0  0  -0.683938  0  2.318988  0  0  -0.718546  0  2.308571  0  0  -0.376539  -0.665449  0  2.324286  0
O  O115  1  0.21259843  0.87089221  0.47234387  1  0  -0.737441  0  2.066403  0  0  -0.683956  0  2.318984  0  0  -0.718562  0  2.308565  0  0  -0.376534  -0.665456  0  2.324276  0
O  O116  1  0.04701425  0.61579593  0.93521453  1  0  -0.646768  0  2.033854  0  0  -0.603049  0  2.279347  0  0  -0.63099  0  2.266109  0  0  -0.371518  -0.588187  0  2.28685  0
O  O117  1  0.45297231  0.38419445  0.43521480  1  0  -0.646597  0  2.034125  0  0  -0.602879  0  2.279565  0  0  -0.630822  0  2.26634  0  0  -0.371429  -0.588024  0  2.287065  0
O  O118  1  0.95297870  0.38419610  0.06478444  1  0  -0.646647  0  2.034089  0  0  -0.602937  0  2.279543  0  0  -0.630883  0  2.266317  0  0  -0.371484  -0.588078  0  2.287045  0
O  O119  1  0.54702130  0.61580562  0.56478326  1  0  -0.646668  0  2.034012  0  0  -0.60293  0  2.279484  0  0  -0.630876  0  2.266253  0  0  -0.371472  -0.588068  0  2.286977  0
O  O120  1  0.64081920  0.04452592  0.94025749  1  0  -0.646404  0  2.056067  0  0  -0.596666  0  2.308904  0  0  -0.626447  0  2.29707  0  0  -0.355266  -0.579932  0  2.315178  0
O  O121  1  0.85917292  0.95545436  0.44025686  1  0  -0.646471  0  2.055994  0  0  -0.596777  0  2.308892  0  0  -0.626555  0  2.297045  0  0  -0.355314  -0.580044  0  2.315172  0
O  O122  1  0.35917477  0.95546152  0.05974058  1  0  -0.646421  0  2.056121  0  0  -0.596724  0  2.308974  0  0  -0.626508  0  2.297144  0  0  -0.355301  -0.579993  0  2.31526  0
O  O123  1  0.14081889  0.04453536  0.55974166  1  0  -0.64642  0  2.056054  0  0  -0.59668  0  2.308908  0  0  -0.626459  0  2.297075  0  0  -0.35529  -0.579944  0  2.315188  0
O  O124  1  0.92249387  0.35687004  0.94359885  1  0  -0.677005  0  2.029168  0  0  -0.633612  0  2.279255  0  0  -0.6638  0  2.26628  0  0  -0.38771  -0.617611  0  2.286292  0
O  O125  1  0.57748641  0.64311944  0.44359873  1  0  -0.67712  0  2.029084  0  0  -0.633734  0  2.279178  0  0  -0.663927  0  2.266205  0  0  -0.387757  -0.617721  0  2.286176  0
O  O126  1  0.07749523  0.64312081  0.05639697  1  0  -0.6771  0  2.029034  0  0  -0.633725  0  2.27914  0  0  -0.663916  0  2.26617  0  0  -0.387756  -0.61772  0  2.286162  0
O  O127  1  0.42250500  0.35688062  0.55639844  1  0  -0.677082  0  2.029085  0  0  -0.633684  0  2.279207  0  0  -0.66387  0  2.266234  0  0  -0.38776  -0.617684  0  2.286229  0
O  O128  1  0.05495833  0.89236015  0.88744958  1  0  -0.688852  0  1.983501  0  0  -0.642244  0  2.23004  0  0  -0.67393  0  2.217844  0  0  -0.372137  -0.624981  0  2.236406  0
O  O129  1  0.44503676  0.10764412  0.38745046  1  0  -0.688904  0  1.983328  0  0  -0.64225  0  2.229936  0  0  -0.673929  0  2.217734  0  0  -0.372183  -0.624988  0  2.236301  0
O  O130  1  0.94503913  0.10764109  0.11254939  1  0  -0.688962  0  1.983327  0  0  -0.642331  0  2.229926  0  0  -0.674013  0  2.217724  0  0  -0.372204  -0.625064  0  2.23629  0
O  O131  1  0.55497299  0.89237326  0.61254896  1  0  -0.688865  0  1.98337  0  0  -0.642227  0  2.229933  0  0  -0.673912  0  2.217732  0  0  -0.372116  -0.62497  0  2.236309  0
O  O132  1  0.95592066  0.04357279  0.92682341  1  0  -0.767891  0  2.141318  0  0  -0.715436  0  2.408719  0  0  -0.751675  0  2.394942  0  0  -0.400982  -0.698504  0  2.417798  0
O  O133  1  0.54407318  0.95643132  0.42682541  1  0  -0.767881  0  2.141293  0  0  -0.715377  0  2.408784  0  0  -0.751624  0  2.395008  0  0  -0.401023  -0.698435  0  2.417834  0
O  O134  1  0.04407789  0.95642845  0.07317555  1  0  -0.767853  0  2.141313  0  0  -0.715356  0  2.40876  0  0  -0.751597  0  2.394981  0  0  -0.400965  -0.698435  0  2.417857  0
O  O135  1  0.45592830  0.04358258  0.57317670  1  0  -0.767919  0  2.141379  0  0  -0.715416  0  2.408767  0  0  -0.751654  0  2.394989  0  0  -0.400975  -0.698499  0  2.41787  0
