# generated using pymatgen
data_AlH9C15N2O5
_symmetry_space_group_name_H-M   'P 1'
_cell_length_a   6.66979949
_cell_length_b   22.82216324
_cell_length_c   25.41077399
_cell_angle_alpha   103.60327869
_cell_angle_beta   89.99982448
_cell_angle_gamma   89.99982668
_symmetry_Int_Tables_number   1
_chemical_formula_structural   AlH9C15N2O5
_chemical_formula_sum   'Al4 H36 C60 N8 O20'
_cell_volume   3759.50186913
_cell_formula_units_Z   4
loop_
 _symmetry_equiv_pos_site_id
 _symmetry_equiv_pos_as_xyz
  1  'x, y, z'
loop_
 _atom_site_type_symbol
 _atom_site_label
 _atom_site_symmetry_multiplicity
 _atom_site_fract_x
 _atom_site_fract_y
 _atom_site_fract_z
 _atom_site_occupancy
 _atom_site_pbe_bader_charge
 _atom_site_pbe_bader_spin_density
 _atom_site_pbe_cm5_charge
 _atom_site_pbe_ddec_charge
 _atom_site_pbe_ddec_spin_density
 _atom_site_pbe_ddec_sum_bond_order
 _atom_site_pbe_magmom
Al  Al0  1  0.03226535  0.49926441  0.49942311  1  2.503934  0  0.400724  1.654125  0  2.576632  0
Al  Al1  1  0.46570065  0.00133861  0.00021137  1  2.502355  0  0.400506  1.651552  0  2.578867  0
Al  Al2  1  0.53226388  0.50073600  0.50057567  1  2.503868  0  0.400671  1.654083  0  2.576689  0
Al  Al3  1  0.96570172  0.99866205  0.99978817  1  2.502292  0  0.400556  1.651579  0  2.578769  0
H  H4  1  0.94315692  0.73164340  0.70415468  1  0.058728  0  0.099476  0.095584  0  1.019165  0
H  H5  1  0.55100195  0.80519697  0.76793828  1  0.035093  0  0.10073  0.098225  0  1.013492  0
H  H6  1  0.44316014  0.26835835  0.29584732  1  0.058806  0  0.099472  0.095602  0  1.019149  0
H  H7  1  0.05100667  0.19480252  0.23206210  1  0.035028  0  0.100738  0.098187  0  1.013445  0
H  H8  1  0.95835169  0.64617515  0.62331470  1  0.087494  0  0.10836  0.110522  0  1.003751  0
H  H9  1  0.53477417  0.88699276  0.85171130  1  0.086437  0  0.110577  0.115251  0  0.993918  0
H  H10  1  0.45836658  0.35382792  0.37668565  1  0.087727  0  0.108355  0.110532  0  1.003808  0
H  H11  1  0.03477771  0.11300731  0.14828788  1  0.086383  0  0.110576  0.115267  0  0.993965  0
H  H12  1  0.58620402  0.62411017  0.65074309  1  0.097066  0  0.109048  0.112017  0  0.99973  0
H  H13  1  0.91811711  0.84374189  0.87369221  1  0.081951  0  0.107566  0.109583  0  1.000453  0
H  H14  1  0.08621602  0.37588787  0.34925523  1  0.096628  0  0.109066  0.112111  0  0.999689  0
H  H15  1  0.41811748  0.15625903  0.12630819  1  0.081982  0  0.107544  0.109514  0  1.000446  0
H  H16  1  0.54411014  0.89848813  0.10855984  1  0.0958  0  0.1093  0.113601  0  1.006092  0
H  H17  1  0.95675355  0.60152499  0.39114055  1  0.082622  0  0.109057  0.112518  0  1.007509  0
H  H18  1  0.04410946  0.10151856  0.89144621  1  0.095962  0  0.109293  0.113595  0  1.006113  0
H  H19  1  0.45673974  0.39847120  0.60885699  1  0.082644  0  0.1091  0.112666  0  1.007606  0
H  H20  1  0.55638032  0.83189296  0.17451825  1  0.094479  0  0.105158  0.102995  0  1.035082  0
H  H21  1  0.94537245  0.66812255  0.32522102  1  0.100335  0  0.105152  0.102522  0  1.035452  0
H  H22  1  0.05637525  0.16811328  0.82548779  1  0.094391  0  0.105118  0.10292  0  1.035175  0
H  H23  1  0.44536453  0.33187431  0.67477734  1  0.100527  0  0.10511  0.102419  0  1.035491  0
H  H24  1  0.91269544  0.82250564  0.17315265  1  0.091991  0  0.105443  0.102712  0  1.034243  0
H  H25  1  0.58902735  0.67749966  0.32712179  1  0.112021  0  0.105662  0.103193  0  1.033657  0
H  H26  1  0.41268875  0.17748864  0.82684251  1  0.092012  0  0.105471  0.102777  0  1.034307  0
H  H27  1  0.08902254  0.32250667  0.67288138  1  0.111538  0  0.105609  0.103117  0  1.0338  0
H  H28  1  0.57006769  0.70641981  0.73420882  1  0.053137  0  0.098766  0.094178  0  1.022503  0
H  H29  1  0.93713808  0.75849448  0.79277766  1  0.063885  0  0.099507  0.095859  0  1.018642  0
H  H30  1  0.07007251  0.29357782  0.26578952  1  0.053017  0  0.098797  0.094202  0  1.022636  0
H  H31  1  0.43713963  0.24150630  0.20722394  1  0.063881  0  0.099491  0.095844  0  1.018676  0
H  H32  1  0.90159171  0.88927622  0.10729760  1  0.084616  0  0.108187  0.111913  0  1.007399  0
H  H33  1  0.59933195  0.61074151  0.39298573  1  0.104194  0  0.107982  0.111011  0  1.006831  0
H  H34  1  0.40158792  0.11071894  0.89269919  1  0.084544  0  0.108174  0.111916  0  1.007345  0
H  H35  1  0.09931676  0.38926295  0.60701702  1  0.104548  0  0.107935  0.110957  0  1.0068  0
H  H36  1  0.78504912  0.57958948  0.51202242  1  0.610379  0  0.358473  0.436034  0  0.843267  0
H  H37  1  0.70995388  0.92036922  0.98531416  1  0.609114  0  0.358473  0.43524  0  0.844639  0
H  H38  1  0.28505453  0.42041138  0.48797732  1  0.610387  0  0.35848  0.436061  0  0.843232  0
H  H39  1  0.20994735  0.07963272  0.01468605  1  0.60906  0  0.358485  0.435291  0  0.844569  0
C  C40  1  0.78193400  0.43573735  0.56377765  1  1.576521  0  0.26654  0.636814  0  4.102417  0
C  C41  1  0.71730803  0.06418823  0.93615003  1  1.573761  0  0.265894  0.636217  0  4.103679  0
C  C42  1  0.28193858  0.56426352  0.43622208  1  1.57583  0  0.266524  0.636741  0  4.102289  0
C  C43  1  0.21731179  0.93581152  0.06384856  1  1.573871  0  0.265925  0.636274  0  4.103538  0
C  C44  1  0.78043566  0.41903847  0.41854307  1  1.563508  0  0.266478  0.640066  0  4.098999  0
C  C45  1  0.71864440  0.08077425  0.08153324  1  1.566641  0  0.267144  0.642536  0  4.098437  0
C  C46  1  0.28041884  0.58096087  0.58145586  1  1.563401  0  0.266313  0.639887  0  4.099118  0
C  C47  1  0.21863817  0.91922658  0.91846778  1  1.56663  0  0.267191  0.642713  0  4.09834  0
C  C48  1  0.08370848  0.70733514  0.69353057  1  -0.044111  0  -0.090134  -0.132282  0  3.9834  0
C  C49  1  0.41322702  0.81232893  0.79171469  1  -0.022991  0  -0.089931  -0.133246  0  3.981972  0
C  C50  1  0.58371740  0.29266509  0.30646937  1  -0.043601  0  -0.090101  -0.132264  0  3.983273  0
C  C51  1  0.91323067  0.18767091  0.20828491  1  -0.022964  0  -0.089872  -0.133059  0  3.981822  0
C  C52  1  0.09178869  0.66008663  0.64776698  1  -0.052789  0  -0.080585  -0.082751  0  3.9838  0
C  C53  1  0.40437167  0.85868868  0.83821736  1  -0.036481  0  -0.079127  -0.082839  0  3.978987  0
C  C54  1  0.59179660  0.33991369  0.35223336  1  -0.053507  0  -0.080599  -0.082783  0  3.983834  0
C  C55  1  0.90437634  0.14130975  0.16178184  1  -0.036515  0  -0.079171  -0.083029  0  3.97903  0
C  C56  1  0.27329214  0.63020945  0.63167971  1  -0.002129  0  -0.016319  -0.048187  0  3.976676  0
C  C57  1  0.22577536  0.87033976  0.86802607  1  0.014974  0  -0.016336  -0.048982  0  3.979699  0
C  C58  1  0.77330256  0.36979044  0.36831963  1  -0.001853  0  -0.016277  -0.048095  0  3.976636  0
C  C59  1  0.72577001  0.12966062  0.13197494  1  0.015025  0  -0.016264  -0.048778  0  3.979703  0
C  C60  1  0.44582629  0.64788449  0.66291508  1  -0.018824  0  -0.079828  -0.081885  0  3.978708  0
C  C61  1  0.05655466  0.83469580  0.85042411  1  -0.086595  0  -0.080766  -0.083597  0  3.985739  0
C  C62  1  0.94583875  0.35211509  0.33708367  1  -0.018614  0  -0.079923  -0.082125  0  3.978749  0
C  C63  1  0.55655474  0.16530521  0.14957707  1  -0.086607  0  -0.080783  -0.08353  0  3.98561  0
C  C64  1  0.43624378  0.69445450  0.70932132  1  -0.053552  0  -0.09005  -0.133731  0  3.98256  0
C  C65  1  0.06740857  0.78749009  0.80459197  1  0.002383  0  -0.090223  -0.133601  0  3.983395  0
C  C66  1  0.93625577  0.30554520  0.29067785  1  -0.053512  0  -0.090105  -0.133769  0  3.982718  0
C  C67  1  0.56740913  0.21251125  0.19540880  1  0.002312  0  -0.090181  -0.133677  0  3.983365  0
C  C68  1  0.25551996  0.72542656  0.72538330  1  -0.035771  0  -0.00139  0.07636  0  3.991897  0
C  C69  1  0.24554760  0.77539691  0.77421619  1  -0.014539  0  -0.001946  0.075273  0  3.991351  0
C  C70  1  0.75552794  0.27457412  0.27461727  1  -0.035647  0  -0.001365  0.076382  0  3.991805  0
C  C71  1  0.74555667  0.22460301  0.22578480  1  -0.01442  0  -0.001966  0.075327  0  3.991341  0
C  C72  1  0.40721398  0.88141801  0.12299607  1  -0.031837  0  -0.077694  -0.084867  0  3.966063  0
C  C73  1  0.09387003  0.61858983  0.37684015  1  -0.020155  0  -0.077997  -0.083306  0  3.966502  0
C  C74  1  0.90721186  0.11858673  0.87700879  1  -0.031254  0  -0.077729  -0.084945  0  3.966253  0
C  C75  1  0.59385781  0.38141038  0.62315978  1  -0.019826  0  -0.078023  -0.0835  0  3.966584  0
C  C76  1  0.41406422  0.84472162  0.15948302  1  -0.049164  0  -0.080352  -0.106377  0  3.96211  0
C  C77  1  0.08745608  0.65528947  0.34037710  1  -0.048352  0  -0.080474  -0.107102  0  3.962625  0
C  C78  1  0.91406068  0.15528104  0.84052063  1  -0.049321  0  -0.080325  -0.10626  0  3.962306  0
C  C79  1  0.58744529  0.34470977  0.65962405  1  -0.048633  0  -0.080458  -0.106994  0  3.962492  0
C  C80  1  0.23533921  0.82328180  0.17760801  1  -0.013986  0  -0.002473  0.020813  0  3.985286  0
C  C81  1  0.26646746  0.67674587  0.32240439  1  -0.014975  0  -0.001815  0.022345  0  3.983374  0
C  C82  1  0.73533567  0.17671901  0.82239299  1  -0.014106  0  -0.002441  0.020877  0  3.985291  0
C  C83  1  0.76646566  0.32325666  0.67759657  1  -0.014984  0  -0.001804  0.022395  0  3.983331  0
C  C84  1  0.04984791  0.83946765  0.15876820  1  0.03595  0  -0.078389  -0.103391  0  3.951523  0
C  C85  1  0.45168889  0.66052320  0.34139012  1  -0.05685  0  -0.079294  -0.105554  0  3.950782  0
C  C86  1  0.54984280  0.16052968  0.84122895  1  0.036031  0  -0.078438  -0.103528  0  3.951649  0
C  C87  1  0.95167666  0.33948030  0.65861187  1  -0.055899  0  -0.07921  -0.105492  0  3.950868  0
C  C88  1  0.04394671  0.87630883  0.12230851  1  -0.059404  0  -0.078741  -0.086072  0  3.960803  0
C  C89  1  0.45714179  0.62369632  0.37787570  1  0.009712  0  -0.07793  -0.084151  0  3.958094  0
C  C90  1  0.54394304  0.12368851  0.87768864  1  -0.058847  0  -0.078753  -0.086065  0  3.960682  0
C  C91  1  0.95712963  0.37630805  0.62212627  1  0.008758  0  -0.077909  -0.084067  0  3.957807  0
C  C92  1  0.22235688  0.89735249  0.10397933  1  -0.021294  0  -0.009694  -0.034753  0  3.956758  0
C  C93  1  0.27845876  0.60269621  0.39606626  1  -0.041837  0  -0.009533  -0.034978  0  3.956193  0
C  C94  1  0.72235620  0.10264856  0.89602088  1  -0.022262  0  -0.009657  -0.034734  0  3.956725  0
C  C95  1  0.77844210  0.39730444  0.60393429  1  -0.041968  0  -0.009541  -0.034972  0  3.956019  0
C  C96  1  0.25869214  0.71580432  0.28394025  1  0.943642  0  0.243204  0.24674  0  3.976316  0
C  C97  1  0.24348485  0.78427566  0.21611094  1  0.977423  0  0.243624  0.247301  0  3.975309  0
C  C98  1  0.75868579  0.28419690  0.71606073  1  0.943389  0  0.243197  0.246683  0  3.97633  0
C  C99  1  0.74348587  0.21572569  0.78388883  1  0.977532  0  0.243685  0.247325  0  3.975247  0
N  N100  1  0.06798033  0.76433423  0.23239294  1  -0.543314  0  -0.150794  -0.14109  0  3.209761  0
N  N101  1  0.43417868  0.73577907  0.26770477  1  -0.538676  0  -0.150738  -0.141181  0  3.211489  0
N  N102  1  0.56797534  0.23566384  0.76760540  1  -0.543323  0  -0.150813  -0.14111  0  3.209503  0
N  N103  1  0.93417382  0.26422368  0.73229764  1  -0.53861  0  -0.150666  -0.141113  0  3.211428  0
N  N104  1  0.07579612  0.72953859  0.26687647  1  -0.570452  0  -0.149938  -0.140998  0  3.21381  0
N  N105  1  0.42637187  0.77058866  0.23321432  1  -0.55153  0  -0.149976  -0.141389  0  3.213654  0
N  N106  1  0.57578970  0.27045947  0.73312186  1  -0.570229  0  -0.149948  -0.140968  0  3.213718  0
N  N107  1  0.92636846  0.22941356  0.76678769  1  -0.551664  0  -0.150013  -0.141417  0  3.213754  0
O  O108  1  0.61235092  0.43832233  0.43952379  1  -1.264581  0  -0.237361  -0.597991  0  2.355314  0
O  O109  1  0.88679660  0.06008348  0.06167708  1  -1.262818  0  -0.236181  -0.597198  0  2.357474  0
O  O110  1  0.11235254  0.56167589  0.56047694  1  -1.264517  0  -0.23725  -0.59785  0  2.355641  0
O  O111  1  0.38679442  0.93991617  0.93832336  1  -1.262785  0  -0.236231  -0.597279  0  2.357346  0
O  O112  1  0.95253137  0.44912621  0.54724629  1  -1.260058  0  -0.236088  -0.593649  0  2.33699  0
O  O113  1  0.54575561  0.05100903  0.95220294  1  -1.254741  0  -0.236175  -0.593208  0  2.344393  0
O  O114  1  0.45255087  0.55087348  0.45275286  1  -1.259473  0  -0.236042  -0.593633  0  2.336627  0
O  O115  1  0.04576544  0.94899124  0.04779704  1  -1.254782  0  -0.236177  -0.593207  0  2.344439  0
O  O116  1  0.95240164  0.43756332  0.43728693  1  -1.256626  0  -0.237094  -0.594627  0  2.332151  0
O  O117  1  0.54691231  0.06386977  0.06149263  1  -1.261493  0  -0.237637  -0.596437  0  2.330238  0
O  O118  1  0.45240623  0.56243714  0.56271020  1  -1.256427  0  -0.237041  -0.594565  0  2.331957  0
O  O119  1  0.04691466  0.93613050  0.93850735  1  -1.261559  0  -0.237582  -0.596407  0  2.330504  0
O  O120  1  0.11237575  0.54851790  0.45139256  1  -1.251447  0  -0.235168  -0.593544  0  2.361192  0
O  O121  1  0.38597805  0.95172245  0.04821918  1  -1.253355  0  -0.235981  -0.594224  0  2.354836  0
O  O122  1  0.61235920  0.45148306  0.54860695  1  -1.251613  0  -0.235127  -0.593603  0  2.36105  0
O  O123  1  0.88596826  0.04827644  0.95178005  1  -1.253289  0  -0.235964  -0.594141  0  2.355001  0
O  O124  1  0.78292939  0.53602835  0.50434150  1  -1.413383  0  -0.448402  -0.999385  0  2.2206  0
O  O125  1  0.71419961  0.96393781  0.99561529  1  -1.41206  0  -0.448617  -0.996676  0  2.22066  0
O  O126  1  0.28292676  0.46397241  0.49565783  1  -1.413419  0  -0.44839  -0.999394  0  2.22059  0
O  O127  1  0.21420113  0.03606414  0.00438330  1  -1.411952  0  -0.4486  -0.996744  0  2.220648  0
