# generated using pymatgen
data_CuNiH16C19(N5O)2
_symmetry_space_group_name_H-M   'P 1'
_cell_length_a   9.38579717
_cell_length_b   9.86090560
_cell_length_c   11.97608473
_cell_angle_alpha   74.10730533
_cell_angle_beta   76.19280533
_cell_angle_gamma   83.60366579
_symmetry_Int_Tables_number   1
_chemical_formula_structural   CuNiH16C19(N5O)2
_chemical_formula_sum   'Cu2 Ni2 H32 C38 N20 O4'
_cell_volume   1033.98483195
_cell_formula_units_Z   2
loop_
 _symmetry_equiv_pos_site_id
 _symmetry_equiv_pos_as_xyz
  1  'x, y, z'
loop_
 _atom_site_type_symbol
 _atom_site_label
 _atom_site_symmetry_multiplicity
 _atom_site_fract_x
 _atom_site_fract_y
 _atom_site_fract_z
 _atom_site_occupancy
 _atom_site_pbe_bader_charge
 _atom_site_pbe_bader_spin_density
 _atom_site_pbe_cm5_charge
 _atom_site_pbe_ddec_charge
 _atom_site_pbe_ddec_spin_density
 _atom_site_pbe_ddec_sum_bond_order
 _atom_site_pbe_magmom
Cu  Cu0  1  0.95993739  0.65835685  0.98901490  1  1.030734  0.490608  0.729993  0.770773  0.657731  2.360285  0.491
Cu  Cu1  1  0.04006566  0.34164147  0.01098597  1  1.030819  0.490602  0.729981  0.770745  0.657723  2.360276  0.491
Ni  Ni2  1  0.15924496  0.86353239  0.28316107  1  0.872362  0.018377  0.661463  0.368538  0.025194  3.017562  0.019
Ni  Ni3  1  0.84075886  0.13647227  0.71684075  1  0.872475  0.018374  0.661456  0.368498  0.025191  3.017573  0.019
H  H4  1  0.23349424  0.95057084  0.87178224  1  0.161131  0.001041  0.104885  0.128447  0.000899  1.054156  0.0
H  H5  1  0.76650679  0.04942432  0.12821888  1  0.161198  0.001041  0.104891  0.128428  0.000899  1.054147  0.0
H  H6  1  0.39072830  0.12557968  0.72602402  1  0.058594  5.8e-05  0.097345  0.086807  5.9e-05  1.026142  0.0
H  H7  1  0.60927278  0.87441442  0.27397566  1  0.058701  5.8e-05  0.097382  0.086858  5.9e-05  1.026178  0.0
H  H8  1  0.51709152  0.29577008  0.79005649  1  0.057273  0.0  0.098935  0.093691  -4e-05  1.02791  0.0
H  H9  1  0.48291192  0.70422087  0.20994346  1  0.057221  0.0  0.09894  0.093718  -4e-05  1.027865  0.0
H  H10  1  0.47668698  0.28161229  0.00388924  1  0.12025  0.000554  0.103138  0.102235  0.000593  1.024481  0.0
H  H11  1  0.52331262  0.71838921  0.99610823  1  0.120198  0.000554  0.103187  0.102346  0.000593  1.024378  0.0
H  H12  1  0.36650427  0.20116729  0.19406194  1  0.107145  0.000468  0.124177  0.089864  0.000355  0.983382  0.0
H  H13  1  0.63349538  0.79883315  0.80593826  1  0.107143  0.000468  0.124204  0.089901  0.000355  0.983333  0.0
H  H14  1  0.14595178  0.04204474  0.44119664  1  0.088176  0.000372  0.109696  0.089613  0.000384  0.991736  0.0
H  H15  1  0.85404667  0.95795781  0.55880164  1  0.088157  0.000372  0.109699  0.089637  0.000384  0.991737  0.0
H  H16  1  0.29873778  0.14983299  0.37743641  1  0.04431  0.000177  0.104818  0.084787  6.6e-05  1.002792  0.0
H  H17  1  0.70125962  0.85016850  0.62256231  1  0.044322  0.000177  0.104799  0.084775  6.6e-05  1.00275  0.0
H  H18  1  0.47008757  0.95209907  0.43047874  1  0.050748  -2e-06  0.09306  0.091209  -1.2e-05  1.0065  0.0
H  H19  1  0.52991505  0.04790771  0.56951614  1  0.05078  -2e-06  0.093097  0.091267  -1.2e-05  1.006488  0.0
H  H20  1  0.32120625  0.94314232  0.55636586  1  0.080016  4.3e-05  0.096773  0.102357  -2.4e-05  1.009411  0.0
H  H21  1  0.67879977  0.05686234  0.44363388  1  0.080057  4.3e-05  0.096804  0.102371  -2.4e-05  1.009402  0.0
H  H22  1  0.40749755  0.75080631  0.39076169  1  0.028256  -2.8e-05  0.105802  0.077759  -3.7e-05  1.013045  0.0
H  H23  1  0.59250507  0.24920046  0.60923571  1  0.028429  -2.8e-05  0.1058  0.077782  -3.7e-05  1.013032  0.0
H  H24  1  0.33573356  0.70771150  0.54660907  1  0.048373  6e-05  0.109059  0.086801  1.9e-05  0.974193  0.0
H  H25  1  0.66426812  0.29229211  0.45338837  1  0.048343  6e-05  0.109068  0.086809  1.9e-05  0.974142  0.0
H  H26  1  0.11830090  0.64855064  0.60799408  1  0.124763  0.000283  0.126601  0.095922  0.000145  0.986815  0.0
H  H27  1  0.88170182  0.35145402  0.39200544  1  0.124757  0.000283  0.126601  0.095924  0.000145  0.986887  0.0
H  H28  1  0.87929412  0.58952704  0.70246817  1  0.127418  0.000319  0.102569  0.107921  0.000227  1.044583  0.0
H  H29  1  0.12070646  0.41047656  0.29753449  1  0.127498  0.000318  0.102542  0.107916  0.000227  1.044594  0.0
H  H30  1  0.63257957  0.52532166  0.69904979  1  0.101841  0.000364  0.100077  0.105097  0.000253  1.035643  0.0
H  H31  1  0.36742804  0.47467350  0.30095010  1  0.101854  0.000363  0.100085  0.105127  0.000253  1.035609  0.0
H  H32  1  0.56354952  0.56639364  0.50137876  1  0.036788  -1.1e-05  0.094871  0.082176  -1.9e-05  1.052269  0.0
H  H33  1  0.43645128  0.43360574  0.49862480  1  0.036955  -1.1e-05  0.094876  0.082166  -1.9e-05  1.052282  0.0
H  H34  1  0.74328456  0.65196362  0.31468957  1  0.101582  0.000173  0.107288  0.126377  0.000128  1.038038  0.0
H  H35  1  0.25671641  0.34803258  0.68531551  1  0.101617  0.000173  0.107264  0.12636  0.000128  1.037995  0.0
C  C36  1  0.00627962  0.72296397  0.19003160  1  1.353898  0.002038  0.228916  0.368745  0.002173  4.139834  0.002
C  C37  1  0.99372003  0.27703647  0.80996943  1  1.353871  0.002037  0.228946  0.368818  0.002173  4.139825  0.002
C  C38  1  0.09826523  0.82093169  0.08583855  1  1.34701  0.000741  0.223788  0.366042  0.001354  4.108593  0.001
C  C39  1  0.90173442  0.17906875  0.91415998  1  1.347002  0.00074  0.223771  0.366031  0.001353  4.108576  0.001
C  C40  1  0.26416118  0.00905512  0.02591688  1  0.391382  -0.000124  0.108467  0.221963  -0.000322  3.949329  0.0
C  C41  1  0.73583519  0.99094532  0.97408227  1  0.391347  -0.000124  0.1084  0.221835  -0.000322  3.949539  0.0
C  C42  1  0.28707315  0.02067971  0.90266004  1  -0.06787  -0.000252  -0.100758  -0.179101  -0.000263  3.915068  0.0
C  C43  1  0.71292667  0.97931756  0.09733917  1  -0.067863  -0.000252  -0.100752  -0.178929  -0.000263  3.915019  0.0
C  C44  1  0.37702744  0.12165160  0.81981960  1  -0.067149  0.000238  -0.085928  -0.05062  0.000146  4.024116  0.0
C  C45  1  0.62297452  0.87834674  0.18017814  1  -0.067112  0.000238  -0.086012  -0.05088  0.000146  4.024346  0.0
C  C46  1  0.44665607  0.21631289  0.85449146  1  -0.040583  -0.000382  -0.09769  -0.100944  -0.000476  4.029004  0.0
C  C47  1  0.55334375  0.78368438  0.14551109  1  -0.040683  -0.000382  -0.097678  -0.100898  -0.000476  4.028893  0.0
C  C48  1  0.42440835  0.20790910  0.97476673  1  -0.026881  0.000348  -0.076325  -0.089844  6.1e-05  3.973274  0.0
C  C49  1  0.57558697  0.79209027  0.02523452  1  -0.026905  0.000348  -0.076333  -0.089866  6.1e-05  3.973256  0.0
C  C50  1  0.33580860  0.10554613  0.06096284  1  0.003907  -0.000565  -0.016401  -0.046574  -0.000807  4.038465  0.0
C  C51  1  0.66418897  0.89445219  0.93903906  1  0.003931  -0.000565  -0.016364  -0.046595  -0.000807  4.03868  0.0
C  C52  1  0.32218524  0.10885943  0.18228215  1  0.608528  -0.000621  0.081211  0.091879  -0.000668  3.929881  0.0
C  C53  1  0.67781436  0.89114206  0.81771615  1  0.608584  -0.000621  0.081178  0.091834  -0.000668  3.92986  0.0
C  C54  1  0.26094425  0.04365054  0.39195886  1  0.278134  0.000255  -0.067238  -0.039024  0.000199  3.902441  0.0
C  C55  1  0.73905310  0.95635201  0.60803880  1  0.27818  0.000255  -0.067233  -0.039068  0.000199  3.902482  0.0
C  C56  1  0.35273232  0.93304915  0.46451988  1  -0.049322  -7e-05  -0.161491  -0.187666  -7.4e-05  3.912807  0.0
C  C57  1  0.64726925  0.06695657  0.53547878  1  -0.049385  -7e-05  -0.161579  -0.187756  -7.4e-05  3.912956  0.0
C  C58  1  0.32585553  0.78375348  0.46210617  1  0.306378  -4e-05  -0.062627  -0.044407  -8.5e-05  3.91795  0.0
C  C59  1  0.67414499  0.21625118  0.53789292  1  0.306195  -4e-05  -0.062635  -0.044443  -8.5e-05  3.917985  0.0
C  C60  1  0.08799272  0.69645190  0.52220815  1  0.57057  -0.000433  0.083697  0.093959  -0.000465  3.901396  0.0
C  C61  1  0.91200688  0.30354959  0.47779182  1  0.570564  -0.000433  0.083637  0.093878  -0.000465  3.901504  0.0
C  C62  1  0.94691593  0.66383578  0.51217737  1  0.062379  -0.000465  -0.015863  -0.033719  -0.000584  4.008623  0.0
C  C63  1  0.05308224  0.33617205  0.48782061  1  0.062411  -0.000465  -0.015815  -0.033729  -0.000584  4.00878  0.0
C  C64  1  0.84714200  0.60384932  0.61810040  1  -0.092087  0.000175  -0.079629  -0.096347  0.00022  3.966333  0.0
C  C65  1  0.15286105  0.39614900  0.38190382  1  -0.092101  0.000175  -0.079579  -0.096332  0.00022  3.966498  0.0
C  C66  1  0.70890685  0.56885649  0.61577259  1  -0.055902  -2.1e-05  -0.103431  -0.115004  -4.3e-05  4.03581  0.0
C  C67  1  0.29109406  0.43114079  0.38422808  1  -0.055986  -2.1e-05  -0.10346  -0.115085  -4.3e-05  4.035928  0.0
C  C68  1  0.67223786  0.59086952  0.50541184  1  -0.016922  0.0008  -0.092395  -0.06224  0.000477  4.035309  0.001
C  C69  1  0.32776306  0.40912774  0.49459134  1  -0.017069  0.0008  -0.092393  -0.062151  0.000477  4.035187  0.001
C  C70  1  0.77198673  0.64222990  0.39922902  1  -0.003123  -0.000182  -0.09769  -0.183142  -0.000202  3.943884  0.0
C  C71  1  0.22801309  0.35776737  0.60077436  1  -0.003231  -0.000182  -0.097683  -0.183159  -0.000202  3.943847  0.0
C  C72  1  0.91145742  0.68193122  0.40000668  1  0.351747  6.7e-05  0.112373  0.229224  -5.6e-05  3.958913  0.0
C  C73  1  0.08854327  0.31807028  0.59999393  1  0.351724  6.7e-05  0.112399  0.229292  -5.6e-05  3.959203  0.0
N  N74  1  0.17472354  0.90963764  0.11310054  1  -1.185317  0.000704  -0.352884  -0.339724  -0.000156  3.556214  0.0
N  N75  1  0.82527381  0.09036491  0.88689962  1  -1.18532  0.000704  -0.352868  -0.339674  -0.000156  3.556238  0.0
N  N76  1  0.26497390  0.01517207  0.27724878  1  -1.158167  0.001499  -0.368416  -0.171184  0.001  3.628645  0.001
N  N77  1  0.73502679  0.98482943  0.72275099  1  -1.15826  0.001498  -0.368398  -0.171134  0.001  3.628534  0.001
N  N78  1  0.18122196  0.77512116  0.43855265  1  -1.140875  0.000882  -0.356723  -0.164075  0.000584  3.620255  0.001
N  N79  1  0.81877884  0.22487822  0.56144840  1  -1.14087  0.000882  -0.356686  -0.163972  0.000584  3.620228  0.001
N  N80  1  0.01210246  0.73966498  0.29590195  1  -1.210164  -0.000263  -0.369284  -0.351582  -0.000966  3.630823  -0.001
N  N81  1  0.98789467  0.26034179  0.70409647  1  -1.210151  -0.000263  -0.369339  -0.351673  -0.000967  3.631124  -0.001
N  N82  1  0.17325135  0.49448569  0.97674573  1  -0.25899  0.081715  -0.330435  -0.537205  0.057886  3.113855  0.07
N  N83  1  0.82674386  0.50551579  0.02325757  1  -0.258889  0.081727  -0.330415  -0.537216  0.057891  3.113869  0.07
N  N84  1  0.25082444  0.50474050  0.04074241  1  -0.337314  -7.8e-05  0.085964  0.425842  -0.008729  4.460364  -0.012
N  N85  1  0.74917181  0.49526204  0.95925795  1  -0.337246  -7.9e-05  0.085879  0.425746  -0.008728  4.460589  -0.012
N  N86  1  0.32837160  0.52092033  0.09881706  1  0.001377  0.119458  -0.175527  -0.354067  0.079815  2.560838  0.087
N  N87  1  0.67162251  0.47908115  0.90118728  1  0.001319  0.119451  -0.175453  -0.35395  0.079808  2.560901  0.087
N  N88  1  0.96182955  0.72136760  0.81929255  1  -0.248778  0.068441  -0.310436  -0.509797  0.047959  3.023298  0.059
N  N89  1  0.03816894  0.27863389  0.18071014  1  -0.248521  0.068433  -0.310456  -0.509797  0.047956  3.023284  0.059
N  N90  1  0.02687908  0.82447413  0.75956098  1  -0.319294  0.001832  0.0806  0.419676  -0.005743  4.460889  -0.009
N  N91  1  0.97312041  0.17552947  0.24044022  1  -0.319547  0.001832  0.080601  0.419645  -0.005746  4.46079  -0.009
N  N92  1  0.08507474  0.92555783  0.69641637  1  -0.042305  0.108979  -0.184097  -0.37446  0.072838  2.607333  0.078
N  N93  1  0.91492606  0.07444155  0.30358469  1  -0.042328  0.108994  -0.184076  -0.374409  0.072848  2.607216  0.078
O  O94  1  0.93131016  0.63814959  0.16822992  1  -1.102891  0.044758  -0.284981  -0.439078  0.029998  2.358877  0.04
O  O95  1  0.06869174  0.36184980  0.83177093  1  -1.102948  0.044758  -0.284991  -0.439124  0.029998  2.358922  0.04
O  O96  1  0.08932051  0.81150411  0.98394087  1  -1.091194  0.057709  -0.28531  -0.437878  0.03901  2.387411  0.052
O  O97  1  0.91067827  0.18849210  0.01606127  1  -1.09118  0.057714  -0.285294  -0.437889  0.039013  2.387339  0.052
