# generated using pymatgen
data_Ni3H18C34(O5F6)2
_symmetry_space_group_name_H-M   'P 1'
_cell_length_a   7.05830172
_cell_length_b   16.24968577
_cell_length_c   31.81699327
_cell_angle_alpha   89.99973594
_cell_angle_beta   89.99990670
_cell_angle_gamma   99.54882194
_symmetry_Int_Tables_number   1
_chemical_formula_structural   Ni3H18C34(O5F6)2
_chemical_formula_sum   'Ni12 H72 C136 O40 F48'
_cell_volume   3598.69405194
_cell_formula_units_Z   4
loop_
 _symmetry_equiv_pos_site_id
 _symmetry_equiv_pos_as_xyz
  1  'x, y, z'
loop_
 _atom_site_type_symbol
 _atom_site_label
 _atom_site_symmetry_multiplicity
 _atom_site_fract_x
 _atom_site_fract_y
 _atom_site_fract_z
 _atom_site_occupancy
 _atom_site_pbe_bader_charge
 _atom_site_pbe_bader_spin_density
 _atom_site_pbe_cm5_charge
 _atom_site_pbe_ddec_charge
 _atom_site_pbe_ddec_spin_density
 _atom_site_pbe_ddec_sum_bond_order
 _atom_site_pbe_magmom
Ni  Ni0  1  0.25814987  0.40076412  0.93023226  1  1.192291  1.584591  0.60407  0.939681  1.770406  2.254509  1.57
Ni  Ni1  1  0.26514448  0.61926895  0.06656114  1  1.207838  1.596165  0.654477  1.006007  1.757545  2.232636  1.558
Ni  Ni2  1  0.74185525  0.09923638  0.43023273  1  1.192327  1.5846  0.60408  0.939749  1.770414  2.254559  1.57
Ni  Ni3  1  0.73486105  0.88073361  0.56656085  1  1.207938  1.596164  0.654483  1.006008  1.757546  2.232565  1.558
Ni  Ni4  1  0.74185685  0.59923739  0.06976722  1  1.192237  1.584592  0.604083  0.939718  1.770405  2.254505  1.57
Ni  Ni5  1  0.73486532  0.38073319  0.93343929  1  1.20789  1.596163  0.654472  1.00603  1.757543  2.23258  1.558
Ni  Ni6  1  0.25814840  0.90076451  0.56976863  1  1.19228  1.584594  0.604061  0.939673  1.770406  2.254618  1.57
Ni  Ni7  1  0.26513621  0.11926541  0.43343895  1  1.207914  1.596164  0.65447  1.006008  1.757546  2.232562  1.558
Ni  Ni8  1  0.00000292  0.50000049  0.00000098  1  1.224546  1.606214  0.62182  1.024003  1.796726  2.251872  1.594
Ni  Ni9  1  0.00000166  0.99999852  0.50000019  1  1.224635  1.606213  0.621823  1.024007  1.796721  2.251868  1.594
Ni  Ni10  1  0.50000126  0.49999978  0.00000058  1  1.20427  1.612448  0.59755  1.001047  1.809769  2.206551  1.6
Ni  Ni11  1  0.50000048  0.99999906  0.50000041  1  1.204219  1.612452  0.597532  1.00101  1.809776  2.20664  1.6
H  H12  1  0.15796801  0.76896528  0.00835875  1  0.10531  0.000125  0.109489  0.117415  -7.7e-05  1.008419  0.0
H  H13  1  0.05373799  0.88633482  0.97048066  1  0.062262  0.000139  0.101861  0.111507  3.9e-05  1.004724  0.0
H  H14  1  0.21628580  0.78383338  0.85291936  1  0.056748  0.000145  0.093132  0.102456  3e-05  1.043986  0.0
H  H15  1  0.33967877  0.67313599  0.89182540  1  0.100835  0.00029  0.105325  0.112692  0.000149  1.013897  0.0
H  H16  1  0.57197620  0.49964993  0.92110740  1  0.604133  0.001838  0.30133  0.385791  0.002588  0.928089  0.003
H  H17  1  0.79418658  0.61105572  0.99381617  1  0.619863  0.000198  0.309715  0.405453  0.000914  0.880706  0.001
H  H18  1  0.86818033  0.05517845  0.90458054  1  0.085568  0.000201  0.095676  0.099565  5.6e-05  1.039157  0.0
H  H19  1  0.03084680  0.19142657  0.93099535  1  0.101564  1.2e-05  0.107762  0.115225  -0.000189  1.022005  0.0
H  H20  1  0.57072624  0.10263093  0.93250775  1  0.053376  0.000318  0.104855  0.106839  0.000118  1.002894  0.0
H  H21  1  0.40704965  0.96287083  0.91003796  1  0.075764  8.5e-05  0.094489  0.100949  2e-05  1.039043  0.0
H  H22  1  0.24457436  0.38239921  0.09401090  1  0.091473  0.000204  0.108473  0.11553  5e-06  0.994369  0.0
H  H23  1  0.42223044  0.33211545  0.15162040  1  0.088596  6.7e-05  0.093801  0.098086  -8e-06  1.054408  0.0
H  H24  1  0.08474732  0.44535885  0.24134596  1  0.101122  0.000131  0.101801  0.113735  2.9e-05  1.006979  0.0
H  H25  1  0.90493372  0.49592452  0.18240901  1  0.096645  0.000121  0.102974  0.112628  4e-06  1.012707  0.0
H  H26  1  0.03705092  0.26715167  0.23514163  1  0.081249  8.1e-05  0.096251  0.105785  3.8e-05  1.028335  0.0
H  H27  1  0.85258048  0.18830480  0.29286451  1  0.138645  0.000263  0.104989  0.114744  0.000167  0.999851  0.0
H  H28  1  0.29682467  0.28673684  0.38051419  1  0.137327  0.000294  0.101963  0.109408  0.000265  1.06301  0.0
H  H29  1  0.47668387  0.36831871  0.32417625  1  0.107939  6.8e-05  0.097053  0.107128  1.3e-05  1.021447  0.0
H  H30  1  0.84203788  0.73103348  0.50835626  1  0.10543  0.000125  0.109506  0.11743  -7.7e-05  1.008449  0.0
H  H31  1  0.94626922  0.61366502  0.47047757  1  0.06202  0.000139  0.101876  0.11154  3.9e-05  1.004726  0.0
H  H32  1  0.78371279  0.71616762  0.35291797  1  0.057071  0.000145  0.093154  0.102533  3e-05  1.044041  0.0
H  H33  1  0.66031251  0.82686151  0.39182349  1  0.101008  0.00029  0.105329  0.112708  0.000149  1.013857  0.0
H  H34  1  0.42802760  0.00035066  0.42110822  1  0.60407  0.001838  0.301324  0.38579  0.002588  0.928181  0.003
H  H35  1  0.20581708  0.88894638  0.49381836  1  0.619927  0.000198  0.309722  0.405461  0.000914  0.8808  0.001
H  H36  1  0.13182179  0.44482479  0.40457697  1  0.085587  0.000201  0.095699  0.099575  5.6e-05  1.039146  0.0
H  H37  1  0.96916118  0.30857766  0.43099085  1  0.101682  1.2e-05  0.10775  0.11509  -0.000189  1.022144  0.0
H  H38  1  0.42928051  0.39737017  0.43250670  1  0.053467  0.000318  0.104849  0.106801  0.000118  1.002937  0.0
H  H39  1  0.59295445  0.53713085  0.41003675  1  0.075785  8.5e-05  0.094494  0.100964  2e-05  1.038963  0.0
H  H40  1  0.75542384  0.11760273  0.59401217  1  0.091515  0.000204  0.108476  0.115538  5e-06  0.99441  0.0
H  H41  1  0.57776498  0.16788405  0.65162098  1  0.088354  6.7e-05  0.093786  0.09804  -8e-06  1.05448  0.0
H  H42  1  0.91524901  0.05464102  0.74134701  1  0.10108  0.000131  0.101782  0.113695  2.9e-05  1.007053  0.0
H  H43  1  0.09506799  0.00407717  0.68241110  1  0.096655  0.000121  0.102969  0.112633  4e-06  1.012677  0.0
H  H44  1  0.96294997  0.23284888  0.73514318  1  0.081312  8.1e-05  0.096198  0.105621  3.8e-05  1.028468  0.0
H  H45  1  0.14742260  0.31169518  0.79286648  1  0.13855  0.000263  0.104975  0.114714  0.000167  0.999834  0.0
H  H46  1  0.70317695  0.21326103  0.88051651  1  0.137243  0.000294  0.102022  0.109525  0.000265  1.062866  0.0
H  H47  1  0.52331935  0.13168220  0.82417788  1  0.10819  6.8e-05  0.097059  0.107119  1.4e-05  1.02146  0.0
H  H48  1  0.84203042  0.23103312  0.99164230  1  0.105369  0.000125  0.109491  0.11741  -7.7e-05  1.008412  0.0
H  H49  1  0.94626304  0.11366295  0.02952040  1  0.06222  0.000139  0.101857  0.111481  3.9e-05  1.004786  0.0
H  H50  1  0.78372303  0.21616625  0.14708170  1  0.056667  0.000145  0.09312  0.102437  3e-05  1.043995  0.0
H  H51  1  0.66032059  0.32686116  0.10817691  1  0.101039  0.00029  0.105317  0.112662  0.000149  1.013956  0.0
H  H52  1  0.42802696  0.50034971  0.07889302  1  0.604557  0.001839  0.301326  0.385752  0.002589  0.928143  0.003
H  H53  1  0.20581824  0.38894454  0.00618362  1  0.619867  0.000198  0.309717  0.405448  0.000914  0.880749  0.001
H  H54  1  0.13181576  0.94482119  0.09542114  1  0.08559  0.000201  0.09568  0.099604  5.6e-05  1.03907  0.0
H  H55  1  0.96914410  0.80857433  0.06900602  1  0.101731  1.2e-05  0.10771  0.115191  -0.000189  1.022046  0.0
H  H56  1  0.42926701  0.89736872  0.06749299  1  0.053336  0.000318  0.104883  0.106826  0.000118  1.002876  0.0
H  H57  1  0.59294691  0.03713007  0.08996310  1  0.075602  8.5e-05  0.094457  0.100933  2e-05  1.039024  0.0
H  H58  1  0.75542645  0.61760168  0.90598826  1  0.091488  0.000204  0.108451  0.115488  5e-06  0.994421  0.0
H  H59  1  0.57776160  0.66788108  0.84837909  1  0.088148  6.7e-05  0.093806  0.098079  -8e-06  1.054467  0.0
H  H60  1  0.91524686  0.55463955  0.75865321  1  0.101113  0.000131  0.1018  0.113722  2.9e-05  1.007008  0.0
H  H61  1  0.09506661  0.50407513  0.81758953  1  0.096644  0.000121  0.102955  0.112626  4e-06  1.012666  0.0
H  H62  1  0.96294047  0.73285049  0.76485879  1  0.081261  8.1e-05  0.09621  0.105743  3.8e-05  1.028344  0.0
H  H63  1  0.14741281  0.81169860  0.70713592  1  0.138902  0.000263  0.104979  0.114735  0.000167  0.999822  0.0
H  H64  1  0.70318177  0.71326030  0.61948529  1  0.137315  0.000294  0.102008  0.109545  0.000265  1.062912  0.0
H  H65  1  0.52332258  0.63167843  0.67582292  1  0.108276  6.8e-05  0.097084  0.107154  1.3e-05  1.021489  0.0
H  H66  1  0.15796718  0.26896741  0.49164259  1  0.105369  0.000125  0.10948  0.117398  -7.7e-05  1.008448  0.0
H  H67  1  0.05372970  0.38633463  0.52952066  1  0.06199  0.000139  0.101868  0.111524  3.9e-05  1.004769  0.0
H  H68  1  0.21628236  0.28383328  0.64708057  1  0.05672  0.000145  0.093114  0.102477  3e-05  1.043979  0.0
H  H69  1  0.33968688  0.17313938  0.60817600  1  0.100815  0.00029  0.105332  0.11274  0.000149  1.013851  0.0
H  H70  1  0.57197746  0.99965023  0.57889220  1  0.604072  0.001838  0.301326  0.385806  0.002588  0.928094  0.003
H  H71  1  0.79418726  0.11105263  0.50618301  1  0.619923  0.000198  0.309698  0.40548  0.000914  0.880793  0.001
H  H72  1  0.86818116  0.55517797  0.59542095  1  0.085542  0.000201  0.095655  0.099525  5.6e-05  1.039157  0.0
H  H73  1  0.03084627  0.69142572  0.56900706  1  0.101685  1.2e-05  0.107727  0.115135  -0.000189  1.022077  0.0
H  H74  1  0.57072621  0.60263134  0.56749373  1  0.053399  0.000318  0.10487  0.106848  0.000118  1.002907  0.0
H  H75  1  0.40704944  0.46287067  0.58996305  1  0.07578  8.5e-05  0.094474  0.100941  2e-05  1.039013  0.0
H  H76  1  0.24457224  0.88239692  0.40598731  1  0.091413  0.000204  0.108459  0.115514  5e-06  0.994464  0.0
H  H77  1  0.42223797  0.83211871  0.34837881  1  0.088153  6.7e-05  0.093793  0.0981  -8e-06  1.054455  0.0
H  H78  1  0.08475488  0.94536049  0.25865216  1  0.101067  0.000131  0.101777  0.113721  2.9e-05  1.007019  0.0
H  H79  1  0.90493234  0.99592247  0.31758838  1  0.096643  0.000121  0.102951  0.112566  4e-06  1.012766  0.0
H  H80  1  0.03705319  0.76715076  0.26485724  1  0.0813  8.2e-05  0.096232  0.105692  3.8e-05  1.028423  0.0
H  H81  1  0.85258198  0.68830446  0.20713363  1  0.138582  0.000263  0.104964  0.114704  0.000167  0.999784  0.0
H  H82  1  0.29682597  0.78673798  0.11948486  1  0.137271  0.000294  0.102008  0.109475  0.000265  1.062978  0.0
H  H83  1  0.47668029  0.86831931  0.17582255  1  0.10827  6.8e-05  0.097058  0.107131  1.3e-05  1.021532  0.0
C  C84  1  0.30760741  0.64245063  0.97618634  1  1.525362  0.007247  0.229124  0.596884  0.005644  4.112552  0.003
C  C85  1  0.25695194  0.71423394  0.95236283  1  -0.029763  0.010687  -0.015734  -0.031034  0.006459  3.966177  0.008
C  C86  1  0.17384313  0.77406297  0.97437931  1  -0.022547  0.005114  -0.078516  -0.070319  0.002895  3.935151  0.003
C  C87  1  0.11316019  0.83909607  0.95288130  1  0.039363  -0.000799  -0.091608  -0.128893  -0.001118  3.968424  -0.001
C  C88  1  0.12311045  0.84306964  0.90879165  1  -0.120206  0.005565  -0.01307  0.089332  0.003052  3.945175  0.003
C  C89  1  0.20618968  0.78320818  0.88697129  1  -0.010543  -0.000519  -0.096024  -0.137389  -0.000833  3.969254  0.0
C  C90  1  0.27716078  0.72032321  0.90878265  1  0.028883  0.005089  -0.083581  -0.08049  0.002836  3.955457  0.003
C  C91  1  0.03521081  0.91307290  0.88766671  1  0.079771  1.6e-05  -0.010086  -0.26785  -9.5e-05  3.844952  0.0
C  C92  1  0.07017511  0.91769566  0.83925954  1  1.717318  0.000208  0.301503  0.677022  0.000127  3.974645  0.0
C  C93  1  0.81277612  0.89195729  0.89523456  1  1.703666  0.000249  0.304641  0.673623  0.000148  3.95892  0.0
C  C94  1  0.12568761  0.99849507  0.90562869  1  -0.070123  0.003688  -0.015809  0.08442  0.002028  3.947585  0.002
C  C95  1  0.02090747  0.06353510  0.91165143  1  -0.065139  9.8e-05  -0.09683  -0.13714  -0.000219  3.990606  0.0
C  C96  1  0.11214979  0.14086916  0.92603201  1  -0.036197  0.003964  -0.082879  -0.080251  0.002174  3.946788  0.003
C  C97  1  0.31102048  0.15628562  0.93287326  1  0.023188  0.010229  -0.012775  -0.02258  0.006057  3.949722  0.008
C  C98  1  0.41623371  0.09141207  0.92695384  1  0.075482  0.003191  -0.079325  -0.078629  0.001672  3.957858  0.002
C  C99  1  0.32378962  0.01300614  0.91410704  1  -0.09326  -0.000425  -0.09264  -0.127034  -0.000648  3.961876  0.0
C  C100  1  0.40205013  0.24380302  0.94333988  1  1.573286  0.006939  0.22287  0.596083  0.005512  4.160735  0.004
C  C101  1  0.96945152  0.48038656  0.09893224  1  1.527666  0.008281  0.212492  0.568463  0.006918  4.188272  0.005
C  C102  1  0.06557756  0.44418247  0.13443863  1  -0.043058  0.008332  -0.018708  -0.03885  0.005054  3.994106  0.006
C  C103  1  0.21071069  0.39718566  0.12630810  1  -0.015782  0.005318  -0.084152  -0.081454  0.002905  3.958813  0.003
C  C104  1  0.31075704  0.36817535  0.15925026  1  -0.029474  -0.000861  -0.095499  -0.126988  -0.001167  3.971412  -0.001
C  C105  1  0.26914725  0.38573473  0.20103295  1  -0.058346  0.005649  -0.011454  0.091867  0.00309  3.937705  0.004
C  C106  1  0.12076252  0.43146653  0.20909182  1  -0.012762  -0.00064  -0.088032  -0.12415  -0.000914  3.947863  -0.001
C  C107  1  0.01920934  0.46007270  0.17612986  1  -0.012582  0.005087  -0.080236  -0.074488  0.002818  3.942442  0.003
C  C108  1  0.39076582  0.36315159  0.23807102  1  0.053612  1.8e-05  -0.010483  -0.272533  -6.3e-05  3.850785  0.0
C  C109  1  0.51970246  0.29748714  0.22556141  1  1.707206  3.3e-05  0.303707  0.673975  1.2e-05  3.962718  0.0
C  C110  1  0.52339513  0.44645148  0.25068994  1  1.728868  0.000302  0.302484  0.675373  0.00019  3.973463  0.0
C  C111  1  0.26971782  0.32357892  0.27530245  1  -0.139509  2e-06  -0.016052  0.083645  -9.9e-05  3.942339  0.0
C  C112  1  0.09344979  0.27244088  0.26702647  1  0.043647  0.000454  -0.092555  -0.125393  0.000196  3.967246  0.0
C  C113  1  0.99012732  0.22765616  0.29919659  1  -0.015266  0.00056  -0.079471  -0.074088  0.00012  3.945619  0.0
C  C114  1  0.06376032  0.23212801  0.34016574  1  -0.123825  0.002958  -0.017142  -0.03568  0.001789  3.995305  0.002
C  C115  1  0.23872463  0.28368202  0.34872805  1  -0.042329  0.001285  -0.084926  -0.083725  0.000664  3.950279  0.001
C  C116  1  0.34014790  0.32949191  0.31661181  1  0.044269  0.000469  -0.09493  -0.125091  0.000207  3.964756  0.0
C  C117  1  0.95197072  0.18351125  0.37394789  1  1.530502  -0.001469  0.209003  0.567909  -0.002581  4.164887  -0.001
C  C118  1  0.69240135  0.85754602  0.47618560  1  1.525246  0.007246  0.228979  0.596678  0.005643  4.112872  0.003
C  C119  1  0.74304980  0.78576608  0.45236098  1  -0.029678  0.010686  -0.015767  -0.03099  0.006458  3.966223  0.008
C  C120  1  0.82616237  0.72593620  0.47437663  1  -0.022536  0.005114  -0.078448  -0.070248  0.002895  3.935072  0.003
C  C121  1  0.88684838  0.66090331  0.45287844  1  0.039544  -0.000798  -0.091629  -0.128957  -0.001118  3.968429  -0.001
C  C122  1  0.87688894  0.65693080  0.40878880  1  -0.120264  0.005564  -0.013158  0.089271  0.003051  3.945182  0.003
C  C123  1  0.79380380  0.71679124  0.38696927  1  -0.010954  -0.000519  -0.095973  -0.137399  -0.000833  3.96946  0.0
C  C124  1  0.72283222  0.77967537  0.40878082  1  0.02853  0.005088  -0.083607  -0.080545  0.002836  3.955492  0.003
C  C125  1  0.96478975  0.58692651  0.38766336  1  0.079754  1.6e-05  -0.010063  -0.267769  -9.5e-05  3.844939  0.0
C  C126  1  0.92982059  0.58230860  0.33925559  1  1.717034  0.000208  0.301463  0.67692  0.000127  3.974511  0.0
C  C127  1  0.18722628  0.60804704  0.39522987  1  1.703335  0.000249  0.304731  0.673709  0.000148  3.958905  0.0
C  C128  1  0.87431371  0.50150665  0.40562683  1  -0.070605  0.003687  -0.015896  0.084223  0.002028  3.947781  0.002
C  C129  1  0.97909907  0.43646870  0.41164757  1  -0.064448  9.8e-05  -0.096802  -0.137072  -0.000219  3.990549  0.0
C  C130  1  0.88785751  0.35913325  0.42602836  1  -0.036709  0.003964  -0.082885  -0.080085  0.002174  3.946652  0.003
C  C131  1  0.68898816  0.34371672  0.43287130  1  0.023586  0.010227  -0.012848  -0.022678  0.006057  3.949778  0.008
C  C132  1  0.58377452  0.40858908  0.42695270  1  -0.051478  0.003207  -0.079256  -0.078569  0.001672  3.957957  0.002
C  C133  1  0.67621519  0.48699327  0.41410600  1  0.03365  -0.00044  -0.09264  -0.126968  -0.000648  3.961919  0.0
C  C134  1  0.59796006  0.25619984  0.44333815  1  1.572908  0.006944  0.222951  0.596096  0.005513  4.160594  0.004
C  C135  1  0.03055606  0.01961407  0.59893243  1  1.527711  0.008282  0.212569  0.568429  0.006919  4.188302  0.005
C  C136  1  0.93442112  0.05581783  0.63443998  1  -0.042994  0.008335  -0.018749  -0.038771  0.005056  3.994029  0.006
C  C137  1  0.78928667  0.10281471  0.62630813  1  -0.015813  0.005318  -0.084234  -0.081624  0.002904  3.958812  0.003
C  C138  1  0.68924469  0.13182594  0.65925089  1  -0.029198  -0.000861  -0.095389  -0.126867  -0.001167  3.971411  -0.001
C  C139  1  0.73084977  0.11426615  0.70103329  1  -0.059027  0.005648  -0.011453  0.09194  0.003089  3.937608  0.004
C  C140  1  0.87923700  0.06853365  0.70909285  1  -0.012726  -0.00064  -0.088063  -0.124187  -0.000914  3.947793  -0.001
C  C141  1  0.98078888  0.03992718  0.67613029  1  -0.012575  0.005086  -0.080223  -0.074509  0.002818  3.942501  0.003
C  C142  1  0.60923527  0.13684955  0.73807230  1  0.054266  1.8e-05  -0.010528  -0.272528  -6.3e-05  3.850924  0.0
C  C143  1  0.48029926  0.20251537  0.72556321  1  1.706685  3.3e-05  0.303797  0.673941  1.2e-05  3.962646  0.0
C  C144  1  0.47660631  0.05355078  0.75069209  1  1.728955  0.000302  0.302568  0.675546  0.00019  3.973432  0.0
C  C145  1  0.73028262  0.17642123  0.77530422  1  -0.1394  3e-06  -0.016039  0.083554  -9.9e-05  3.94245  0.0
C  C146  1  0.90655475  0.22755872  0.76702868  1  0.0437  0.000453  -0.09246  -0.125168  0.000196  3.96722  0.0
C  C147  1  0.00987496  0.27234188  0.79919839  1  -0.015335  0.00056  -0.079483  -0.074062  0.000121  3.945502  0.0
C  C148  1  0.93624527  0.26786838  0.84016753  1  -0.123757  0.002957  -0.01715  -0.035672  0.001789  3.995326  0.002
C  C149  1  0.76128018  0.21631616  0.84873003  1  -0.042431  0.001286  -0.085018  -0.083896  0.000664  3.950112  0.001
C  C150  1  0.65985350  0.17050784  0.81661393  1  0.044028  0.000468  -0.094847  -0.124926  0.000206  3.964578  0.0
C  C151  1  0.04803474  0.31648543  0.87394958  1  1.530366  -0.001471  0.208853  0.567647  -0.002582  4.165176  -0.001
C  C152  1  0.69239527  0.35754776  0.02381566  1  1.525294  0.007248  0.228963  0.596734  0.005644  4.112793  0.003
C  C153  1  0.74304791  0.28576446  0.04763885  1  -0.029614  0.010687  -0.015744  -0.031088  0.006459  3.966287  0.008
C  C154  1  0.82615813  0.22593542  0.02562206  1  -0.02254  0.005115  -0.078464  -0.070205  0.002895  3.935131  0.003
C  C155  1  0.88684225  0.16090170  0.04711975  1  0.03935  -0.000799  -0.091631  -0.128928  -0.001118  3.968393  -0.001
C  C156  1  0.87689081  0.15692875  0.09120972  1  -0.120252  0.005565  -0.013132  0.089287  0.003052  3.945332  0.003
C  C157  1  0.79381466  0.21679084  0.11303008  1  -0.010437  -0.000519  -0.09601  -0.137406  -0.000833  3.969524  0.0
C  C158  1  0.72284428  0.27967767  0.09121966  1  0.028528  0.005089  -0.083533  -0.080382  0.002836  3.955533  0.003
C  C159  1  0.96478904  0.08692550  0.11233498  1  0.079779  1.6e-05  -0.010075  -0.267799  -9.5e-05  3.845011  0.0
C  C160  1  0.92982664  0.08230398  0.16074245  1  1.71702  0.000207  0.301468  0.677015  0.000127  3.974625  0.0
C  C161  1  0.18722465  0.10803986  0.10476681  1  1.703239  0.000249  0.304706  0.673637  0.000148  3.958837  0.0
C  C162  1  0.87430706  0.00150458  0.09437237  1  -0.070087  0.003688  -0.015823  0.084404  0.002028  3.947674  0.002
C  C163  1  0.97908958  0.93646705  0.08834962  1  -0.065161  9.8e-05  -0.096832  -0.137204  -0.000219  3.990482  0.0
C  C164  1  0.88784653  0.85913111  0.07396842  1  -0.036345  0.003964  -0.082877  -0.080245  0.002174  3.946653  0.003
C  C165  1  0.68897515  0.84371653  0.06712685  1  0.023137  0.010229  -0.01273  -0.02251  0.006057  3.949712  0.008
C  C166  1  0.58376427  0.90858882  0.07304658  1  0.075539  0.003191  -0.079275  -0.078549  0.001672  3.957903  0.002
C  C167  1  0.67620598  0.98699226  0.08589401  1  -0.093153  -0.000425  -0.092659  -0.127071  -0.000648  3.9619  0.0
C  C168  1  0.59794599  0.75620037  0.05666086  1  1.573254  0.006939  0.222843  0.595995  0.005511  4.160679  0.004
C  C169  1  0.03055803  0.51961494  0.90106724  1  1.527809  0.008282  0.212597  0.56861  0.006918  4.188208  0.005
C  C170  1  0.93442277  0.55581718  0.86556022  1  -0.043118  0.008334  -0.018707  -0.038816  0.005055  3.994011  0.006
C  C171  1  0.78928988  0.60281461  0.87369201  1  -0.015774  0.005317  -0.084107  -0.081343  0.002904  3.958632  0.003
C  C172  1  0.68924188  0.63182429  0.84074954  1  -0.028976  -0.000861  -0.09553  -0.127076  -0.001167  3.971471  -0.001
C  C173  1  0.73084884  0.61426492  0.79896716  1  -0.058675  0.005649  -0.011474  0.091825  0.003089  3.937688  0.004
C  C174  1  0.87923473  0.56853249  0.79090734  1  -0.012738  -0.00064  -0.088014  -0.124132  -0.000914  3.947812  -0.001
C  C175  1  0.98078957  0.53992695  0.82386931  1  -0.012606  0.005086  -0.080205  -0.07448  0.002818  3.942511  0.003
C  C176  1  0.60923192  0.63684868  0.76192814  1  0.053784  1.8e-05  -0.010513  -0.272394  -6.3e-05  3.850718  0.0
C  C177  1  0.48029386  0.70251313  0.77443713  1  1.707291  3.3e-05  0.303708  0.673881  1.2e-05  3.962698  0.0
C  C178  1  0.47660261  0.55354879  0.74930954  1  1.728871  0.000302  0.302485  0.675236  0.000191  3.973457  0.0
C  C179  1  0.73027968  0.67642073  0.72469734  1  -0.139423  2e-06  -0.016083  0.083524  -9.9e-05  3.942523  0.0
C  C180  1  0.90654584  0.72756126  0.73297396  1  0.043523  0.000454  -0.092564  -0.125429  0.000196  3.967355  0.0
C  C181  1  0.00986665  0.77234536  0.70080415  1  -0.015478  0.00056  -0.079371  -0.073991  0.00012  3.945463  0.0
C  C182  1  0.93623884  0.76787226  0.65983469  1  -0.123835  0.002958  -0.017132  -0.035464  0.001789  3.995048  0.002
C  C183  1  0.76127853  0.71631762  0.65127143  1  -0.042352  0.001285  -0.084916  -0.083905  0.000663  3.950138  0.001
C  C184  1  0.65985170  0.67050586  0.68338736  1  0.043937  0.000469  -0.094907  -0.12498  0.000207  3.964685  0.0
C  C185  1  0.04802771  0.81648715  0.62605253  1  1.530438  -0.001471  0.208904  0.567639  -0.002582  4.164922  -0.001
C  C186  1  0.30759873  0.14245300  0.52381451  1  1.525243  0.007245  0.228926  0.596724  0.005642  4.112759  0.003
C  C187  1  0.25695502  0.21423418  0.54763850  1  -0.029655  0.010686  -0.015714  -0.03101  0.006458  3.966222  0.008
C  C188  1  0.17384104  0.27406406  0.52562191  1  -0.022532  0.005115  -0.078469  -0.070225  0.002895  3.935102  0.003
C  C189  1  0.11315502  0.33909695  0.54711947  1  0.039569  -0.000798  -0.091605  -0.128933  -0.001118  3.968587  -0.001
C  C190  1  0.12310904  0.34307009  0.59120912  1  -0.120252  0.005564  -0.013121  0.08922  0.003052  3.945306  0.003
C  C191  1  0.20618993  0.28320966  0.61302959  1  -0.010489  -0.000518  -0.095991  -0.137416  -0.000833  3.969455  0.0
C  C192  1  0.27716552  0.22032490  0.59121866  1  0.028784  0.005088  -0.083583  -0.080506  0.002836  3.955546  0.003
C  C193  1  0.03520917  0.41307314  0.61233455  1  0.079789  1.6e-05  -0.010097  -0.267666  -9.6e-05  3.844645  0.0
C  C194  1  0.07017431  0.41769168  0.66074232  1  1.716906  0.000208  0.30145  0.676867  0.000127  3.974478  0.0
C  C195  1  0.81277243  0.39195573  0.60476741  1  1.703878  0.000249  0.304705  0.673769  0.000148  3.958551  0.0
C  C196  1  0.12568852  0.49849424  0.59437265  1  -0.070546  0.003687  -0.015857  0.084281  0.002028  3.947673  0.002
C  C197  1  0.02090531  0.56353406  0.58835065  1  -0.064716  9.9e-05  -0.096808  -0.137109  -0.000219  3.990561  0.0
C  C198  1  0.11214945  0.64086889  0.57396987  1  -0.036265  0.003963  -0.082841  -0.080105  0.002174  3.946674  0.003
C  C199  1  0.31101856  0.65628479  0.56712756  1  0.023288  0.010229  -0.012826  -0.022633  0.006057  3.94977  0.008
C  C200  1  0.41623196  0.59141181  0.57304741  1  -0.051532  0.003207  -0.079297  -0.078627  0.001672  3.958004  0.002
C  C201  1  0.32378987  0.51300762  0.58589379  1  0.033651  -0.00044  -0.092637  -0.12701  -0.000648  3.961919  0.0
C  C202  1  0.40204715  0.74380292  0.55666133  1  1.573172  0.006939  0.22289  0.596082  0.005512  4.160685  0.004
C  C203  1  0.96944852  0.98038557  0.40106705  1  1.527696  0.008282  0.21261  0.568638  0.006918  4.188216  0.005
C  C204  1  0.06557662  0.94418245  0.36555919  1  -0.042906  0.008334  -0.018697  -0.038753  0.005055  3.994026  0.006
C  C205  1  0.21071082  0.89718494  0.37369166  1  -0.015649  0.005318  -0.084209  -0.081523  0.002904  3.958764  0.003
C  C206  1  0.31075612  0.86817495  0.34074891  1  -0.029102  -0.000861  -0.095435  -0.127035  -0.001167  3.971515  -0.001
C  C207  1  0.26915222  0.88573411  0.29896619  1  -0.058893  0.005648  -0.011415  0.091957  0.003089  3.937515  0.004
C  C208  1  0.12076358  0.93146662  0.29090632  1  -0.012743  -0.00064  -0.08806  -0.124201  -0.000914  3.947722  -0.001
C  C209  1  0.01920979  0.96007184  0.32386856  1  -0.012706  0.005086  -0.080218  -0.074455  0.002818  3.942614  0.003
C  C210  1  0.39076740  0.86314884  0.26192750  1  0.054295  1.8e-05  -0.010571  -0.272545  -6.3e-05  3.850872  0.0
C  C211  1  0.51970176  0.79748240  0.27443753  1  1.7067  3.3e-05  0.303821  0.674015  1.1e-05  3.962755  0.0
C  C212  1  0.52339685  0.94644886  0.24930865  1  1.728917  0.000302  0.302571  0.675584  0.00019  3.9733  0.0
C  C213  1  0.26972030  0.82357778  0.22469652  1  -0.139429  3e-06  -0.016001  0.083637  -9.8e-05  3.942678  0.0
C  C214  1  0.09345076  0.77243967  0.23297238  1  0.043542  0.000453  -0.092594  -0.125378  0.000196  3.967406  0.0
C  C215  1  0.99013197  0.72765650  0.20080235  1  -0.015301  0.00056  -0.079389  -0.073949  0.000121  3.945521  0.0
C  C216  1  0.06376283  0.73212938  0.15983353  1  -0.123711  0.002958  -0.017119  -0.035645  0.001789  3.995316  0.002
C  C217  1  0.23872509  0.78368161  0.15127103  1  -0.042376  0.001286  -0.085003  -0.083848  0.000664  3.950331  0.001
C  C218  1  0.34014991  0.82949243  0.18338681  1  0.04391  0.000468  -0.094892  -0.125001  0.000206  3.964775  0.0
C  C219  1  0.95196911  0.68351233  0.12605085  1  1.530527  -0.00147  0.208991  0.567792  -0.002581  4.165106  -0.001
O  O220  1  0.45029550  0.60909640  0.96711636  1  -1.118729  0.093457  -0.268871  -0.482974  0.05114  2.275235  0.085
O  O221  1  0.18584379  0.61764671  0.00655737  1  -1.129872  0.127276  -0.317873  -0.60501  0.067358  2.536913  0.112
O  O222  1  0.29337147  0.29024641  0.95922884  1  -1.153062  0.052884  -0.314604  -0.555779  0.027756  2.340808  0.045
O  O223  1  0.58011205  0.26603872  0.93381661  1  -1.142503  0.09747  -0.304372  -0.559889  0.052386  2.372176  0.086
O  O224  1  0.07496378  0.49865765  0.06565394  1  -1.156489  0.096086  -0.316678  -0.621177  0.052915  2.506432  0.083
O  O225  1  0.79982955  0.49415290  0.10299141  1  -1.129448  0.079608  -0.2861  -0.500531  0.043401  2.289138  0.071
O  O226  1  0.77205541  0.16221787  0.37004061  1  -1.131525  0.067174  -0.292204  -0.502059  0.036884  2.16122  0.06
O  O227  1  0.03476731  0.16336032  0.40822662  1  -1.164458  0.082853  -0.319044  -0.605443  0.046938  2.43627  0.07
O  O228  1  0.53643802  0.45066902  0.93900293  1  -1.120138  0.214416  -0.546942  -0.860591  0.119887  2.421766  0.191
O  O229  1  0.77719258  0.55870613  0.00951581  1  -1.137318  0.197075  -0.552093  -0.858488  0.110933  2.375162  0.178
O  O230  1  0.54970725  0.89090284  0.46711590  1  -1.118549  0.093469  -0.268835  -0.482948  0.051145  2.275201  0.085
O  O231  1  0.81415906  0.88235145  0.50655579  1  -1.129917  0.12726  -0.31782  -0.604889  0.06735  2.53697  0.112
O  O232  1  0.70663899  0.20975380  0.45922749  1  -1.153  0.052885  -0.314622  -0.555802  0.027758  2.340668  0.045
O  O233  1  0.41989610  0.23396237  0.43381751  1  -1.142415  0.097466  -0.304427  -0.559878  0.052386  2.372089  0.086
O  O234  1  0.92504368  0.00134206  0.56565416  1  -1.156451  0.09609  -0.316671  -0.621158  0.052917  2.506471  0.083
O  O235  1  0.20016689  0.00584833  0.60299251  1  -1.129519  0.0796  -0.286095  -0.500413  0.043397  2.289277  0.071
O  O236  1  0.22794989  0.33778197  0.87004029  1  -1.131268  0.067179  -0.292092  -0.501858  0.036886  2.161265  0.06
O  O237  1  0.96524700  0.33663789  0.90822887  1  -1.164653  0.082856  -0.31902  -0.605428  0.046942  2.436455  0.07
O  O238  1  0.46357056  0.04933326  0.43900331  1  -1.120035  0.214419  -0.546903  -0.860547  0.119889  2.421818  0.191
O  O239  1  0.22280885  0.94129574  0.50951683  1  -1.137398  0.197066  -0.552129  -0.858587  0.110929  2.375335  0.178
O  O240  1  0.54970411  0.39090137  0.03288533  1  -1.118607  0.093457  -0.268839  -0.482975  0.051139  2.27527  0.085
O  O241  1  0.81416103  0.38235356  0.99344463  1  -1.129798  0.127274  -0.317787  -0.604919  0.067359  2.536873  0.112
O  O242  1  0.70663290  0.70975635  0.04077127  1  -1.152908  0.052884  -0.31456  -0.555724  0.027758  2.340619  0.045
O  O243  1  0.41988828  0.73396093  0.06618445  1  -1.142563  0.097468  -0.304398  -0.559861  0.052386  2.372228  0.086
O  O244  1  0.92504318  0.50134448  0.93434649  1  -1.156408  0.09609  -0.316742  -0.621361  0.052918  2.506481  0.083
O  O245  1  0.20016985  0.50584799  0.89700713  1  -1.129546  0.079598  -0.286138  -0.500527  0.043396  2.289222  0.071
O  O246  1  0.22794917  0.83778177  0.62995982  1  -1.131501  0.067182  -0.292094  -0.501873  0.036888  2.161154  0.06
O  O247  1  0.96523893  0.83663995  0.59177317  1  -1.164405  0.082855  -0.319085  -0.605471  0.04694  2.436322  0.07
O  O248  1  0.46356231  0.54933062  0.06099749  1  -1.120508  0.214419  -0.54695  -0.860538  0.119888  2.421742  0.191
O  O249  1  0.22281107  0.44129476  0.99048492  1  -1.137332  0.197074  -0.552118  -0.858562  0.110933  2.375267  0.178
O  O250  1  0.45029640  0.10909805  0.53288327  1  -1.118549  0.093466  -0.268826  -0.482987  0.051144  2.275155  0.085
O  O251  1  0.18583703  0.11764820  0.49344495  1  -1.129887  0.127264  -0.317806  -0.604928  0.067353  2.536927  0.112
O  O252  1  0.29337174  0.79024708  0.54077262  1  -1.153076  0.05288  -0.314597  -0.555804  0.027754  2.340913  0.045
O  O253  1  0.58011463  0.76603851  0.56618354  1  -1.142362  0.097478  -0.304394  -0.559877  0.052391  2.372074  0.086
O  O254  1  0.07496017  0.99865571  0.43434532  1  -1.156444  0.096086  -0.316765  -0.621352  0.052915  2.506461  0.083
O  O255  1  0.79983157  0.99415381  0.39700760  1  -1.129494  0.079606  -0.286096  -0.500527  0.043401  2.289175  0.071
O  O256  1  0.77205848  0.66222016  0.12995982  1  -1.131522  0.067168  -0.292229  -0.502043  0.036881  2.161417  0.06
O  O257  1  0.03476231  0.66336299  0.09177124  1  -1.164474  0.082858  -0.319032  -0.605417  0.046941  2.436378  0.07
O  O258  1  0.53643167  0.95066763  0.56099743  1  -1.120063  0.214419  -0.546918  -0.860574  0.11989  2.421721  0.191
O  O259  1  0.77719265  0.05870328  0.49048360  1  -1.137384  0.197073  -0.552053  -0.858545  0.110932  2.375315  0.178
F  F260  1  0.97838317  0.84886763  0.81854977  1  -0.618952  8.7e-05  -0.096156  -0.206014  3.6e-05  1.351006  0.0
F  F261  1  0.26076209  0.92453335  0.83044377  1  -0.618853  3.1e-05  -0.092272  -0.19775  5e-06  1.360152  0.0
F  F262  1  0.00867476  0.98492221  0.82187568  1  -0.612973  3.5e-05  -0.098313  -0.197764  7e-06  1.342288  0.0
F  F263  1  0.74577504  0.80987918  0.88808691  1  -0.615289  0.000124  -0.093528  -0.198419  4.8e-05  1.360164  0.0
F  F264  1  0.70921489  0.93603535  0.87005836  1  -0.610212  7.2e-05  -0.093563  -0.201046  2.7e-05  1.340609  0.0
F  F265  1  0.76562632  0.90808999  0.93566263  1  -0.618617  3.2e-05  -0.092392  -0.198705  0.0  1.311338  0.0
F  F266  1  0.66318569  0.32829222  0.19796195  1  -0.623589  4.3e-05  -0.090829  -0.20492  6e-06  1.352472  0.0
F  F267  1  0.41293917  0.22965282  0.20719145  1  -0.615363  3.8e-05  -0.093946  -0.195055  1.3e-05  1.339032  0.0
F  F268  1  0.60744408  0.26923707  0.25930220  1  -0.61642  2.2e-05  -0.088439  -0.193578  -6e-06  1.363278  0.0
F  F269  1  0.67882083  0.43389122  0.27377885  1  -0.612655  8.8e-05  -0.097989  -0.21112  3.6e-05  1.372472  0.0
F  F270  1  0.42451973  0.49571838  0.27365971  1  -0.620289  3.6e-05  -0.093284  -0.194  7e-06  1.330279  0.0
F  F271  1  0.59371654  0.49154651  0.21636420  1  -0.617683  0.000106  -0.092998  -0.197388  2.8e-05  1.329009  0.0
F  F272  1  0.02161442  0.65113745  0.31854599  1  -0.618747  8.7e-05  -0.09609  -0.205924  3.6e-05  1.350787  0.0
F  F273  1  0.73923346  0.57547036  0.33044210  1  -0.618884  3.2e-05  -0.092233  -0.197705  5e-06  1.360313  0.0
F  F274  1  0.99131664  0.51508160  0.32187155  1  -0.612849  3.5e-05  -0.098345  -0.197769  7e-06  1.342239  0.0
F  F275  1  0.25422534  0.69012708  0.38808390  1  -0.615151  0.000124  -0.093558  -0.198456  4.8e-05  1.360217  0.0
F  F276  1  0.29078877  0.56397172  0.37005185  1  -0.609914  7.2e-05  -0.093574  -0.201093  2.7e-05  1.340697  0.0
F  F277  1  0.23438244  0.59190955  0.43565702  1  -0.618702  3.3e-05  -0.092421  -0.198732  1e-06  1.311298  0.0
F  F278  1  0.33680832  0.17171182  0.69796418  1  -0.623491  4.3e-05  -0.090915  -0.204969  6e-06  1.352294  0.0
F  F279  1  0.58706036  0.27034738  0.70719148  1  -0.61524  3.8e-05  -0.093952  -0.19505  1.3e-05  1.339094  0.0
F  F280  1  0.39256082  0.23076698  0.75930365  1  -0.61605  2.2e-05  -0.088447  -0.19355  -6e-06  1.363354  0.0
F  F281  1  0.32118153  0.06611019  0.77378228  1  -0.612704  8.8e-05  -0.09798  -0.211126  3.6e-05  1.372498  0.0
F  F282  1  0.57548239  0.00428241  0.77366193  1  -0.620344  3.6e-05  -0.093343  -0.19409  7e-06  1.330298  0.0
F  F283  1  0.40627961  0.00845610  0.71636710  1  -0.617714  0.000106  -0.09304  -0.197471  2.8e-05  1.329036  0.0
F  F284  1  0.02161858  0.15113201  0.18145191  1  -0.618859  8.7e-05  -0.096122  -0.205964  3.6e-05  1.351016  0.0
F  F285  1  0.73923634  0.07546504  0.16955791  1  -0.618773  3.2e-05  -0.092296  -0.197772  5e-06  1.360135  0.0
F  F286  1  0.99132840  0.01507743  0.17812663  1  -0.612922  3.5e-05  -0.098255  -0.19776  7e-06  1.342285  0.0
F  F287  1  0.25422716  0.19011796  0.11191383  1  -0.615217  0.000124  -0.093544  -0.198399  4.8e-05  1.360127  0.0
F  F288  1  0.29078448  0.06396180  0.12994301  1  -0.609896  7.2e-05  -0.093577  -0.201053  2.7e-05  1.34062  0.0
F  F289  1  0.23437446  0.09190715  0.06433874  1  -0.618559  3.2e-05  -0.092407  -0.198733  0.0  1.311297  0.0
F  F290  1  0.33680828  0.67170931  0.80203659  1  -0.623563  4.3e-05  -0.090848  -0.204928  6e-06  1.352373  0.0
F  F291  1  0.58705549  0.77034683  0.79280772  1  -0.615304  3.8e-05  -0.093944  -0.195017  1.3e-05  1.339026  0.0
F  F292  1  0.39255459  0.73076195  0.74069602  1  -0.616525  2.2e-05  -0.088444  -0.193583  -6e-06  1.363372  0.0
F  F293  1  0.32117266  0.56610905  0.72622126  1  -0.612711  8.8e-05  -0.098024  -0.211125  3.6e-05  1.372365  0.0
F  F294  1  0.57547873  0.50428376  0.72633821  1  -0.620288  3.6e-05  -0.093298  -0.193977  7e-06  1.330298  0.0
F  F295  1  0.40628662  0.50845313  0.78363529  1  -0.617643  0.000106  -0.092959  -0.197324  2.8e-05  1.329075  0.0
F  F296  1  0.97838097  0.34886407  0.68145192  1  -0.618692  8.7e-05  -0.096046  -0.205887  3.6e-05  1.350872  0.0
F  F297  1  0.26076379  0.42452866  0.66955675  1  -0.618888  3.1e-05  -0.092323  -0.197781  5e-06  1.36011  0.0
F  F298  1  0.00867851  0.48491930  0.67812667  1  -0.612845  3.5e-05  -0.098261  -0.19768  7e-06  1.34227  0.0
F  F299  1  0.74577337  0.30987568  0.61191307  1  -0.61538  0.000124  -0.093557  -0.198496  4.8e-05  1.360024  0.0
F  F300  1  0.70921160  0.43603167  0.62994480  1  -0.610277  7.2e-05  -0.093598  -0.201096  2.7e-05  1.340537  0.0
F  F301  1  0.76561744  0.40809259  0.56433995  1  -0.618716  3.2e-05  -0.092366  -0.198743  0.0  1.311337  0.0
F  F302  1  0.66319128  0.82828595  0.30203687  1  -0.623516  4.4e-05  -0.090917  -0.204978  7e-06  1.352373  0.0
F  F303  1  0.41293807  0.72965101  0.29280863  1  -0.615249  3.7e-05  -0.093947  -0.195055  1.3e-05  1.339165  0.0
F  F304  1  0.60744303  0.76923078  0.24069709  1  -0.616095  2.2e-05  -0.088455  -0.193606  -6e-06  1.363352  0.0
F  F305  1  0.67882564  0.93388882  0.22621971  1  -0.61274  8.8e-05  -0.098021  -0.211189  3.6e-05  1.372337  0.0
F  F306  1  0.42452029  0.99571598  0.22633849  1  -0.620275  3.6e-05  -0.093292  -0.194048  7e-06  1.330308  0.0
F  F307  1  0.59371671  0.99154418  0.28363363  1  -0.617736  0.000106  -0.093032  -0.197464  2.8e-05  1.32908  0.0
