# generated using pymatgen
data_VH12C14O5
_symmetry_space_group_name_H-M   'P 1'
_cell_length_a   6.75744032
_cell_length_b   14.23218192
_cell_length_c   15.74771755
_cell_angle_alpha   90.01075600
_cell_angle_beta   89.99639852
_cell_angle_gamma   90.03840383
_symmetry_Int_Tables_number   1
_chemical_formula_structural   VH12C14O5
_chemical_formula_sum   'V4 H48 C56 O20'
_cell_volume   1514.50676001
_cell_formula_units_Z   4
loop_
 _symmetry_equiv_pos_site_id
 _symmetry_equiv_pos_as_xyz
  1  'x, y, z'
loop_
 _atom_site_type_symbol
 _atom_site_label
 _atom_site_symmetry_multiplicity
 _atom_site_fract_x
 _atom_site_fract_y
 _atom_site_fract_z
 _atom_site_occupancy
 _atom_site_pbe_bader_charge
 _atom_site_pbe_bader_spin_density
 _atom_site_pbe_cm5_charge
 _atom_site_pbe_ddec_charge
 _atom_site_pbe_ddec_spin_density
 _atom_site_pbe_ddec_sum_bond_order
 _atom_site_pbe_magmom
V  V0  1  0.07793229  0.76659013  0.50084034  1  2.090109  0.878617  1.409026  1.825422  0.919896  2.979768  0.89
V  V1  1  0.42159423  0.23389797  0.00086429  1  2.094286  0.771957  1.421581  1.82621  0.809614  3.018887  0.784
V  V2  1  0.92179378  0.26603007  0.99912521  1  2.10076  -0.730244  1.428444  1.830798  -0.791153  3.030484  -0.742
V  V3  1  0.57801491  0.73350019  0.49912640  1  2.088892  0.890818  1.406745  1.823142  0.932596  2.97823  0.903
H  H4  1  0.03616056  0.08442122  0.80386620  1  0.121466  -2.9e-05  0.113938  0.123314  2.5e-05  0.98541  0.0
H  H5  1  0.46367640  0.91583451  0.30362525  1  0.117128  8.3e-05  0.1144  0.123623  -0.00012  0.985171  0.0
H  H6  1  0.96285248  0.58415351  0.69653083  1  0.112477  3.3e-05  0.114162  0.123622  -0.000151  0.984872  0.0
H  H7  1  0.53555221  0.41572279  0.19621531  1  0.11604  -5.3e-05  0.114059  0.122937  -0.000194  0.986213  0.0
H  H8  1  0.43077131  0.99922008  0.84162268  1  0.119333  -0.000108  0.11093  0.114024  -0.000235  1.002579  0.0
H  H9  1  0.06901175  0.00145710  0.34114828  1  0.124578  -6.7e-05  0.111603  0.115229  -0.000213  1.000681  0.0
H  H10  1  0.56783216  0.49858515  0.65848653  1  0.129498  -3.8e-05  0.11151  0.115182  -0.000197  1.00136  0.0
H  H11  1  0.93028756  0.50081407  0.15837365  1  0.118015  3.5e-05  0.110911  0.113883  7.6e-05  1.002779  0.0
H  H12  1  0.07125793  0.96576532  0.68725025  1  0.119429  -5.9e-05  0.110275  0.116548  -0.000228  1.010016  0.0
H  H13  1  0.42855077  0.03376968  0.18647266  1  0.112347  -0.00011  0.109967  0.115978  -0.000249  1.012015  0.0
H  H14  1  0.92788066  0.46619917  0.81377576  1  0.117962  3.5e-05  0.109944  0.116124  9.2e-05  1.011379  0.0
H  H15  1  0.57096516  0.53437686  0.31284559  1  0.120867  -3.2e-05  0.110563  0.117085  -0.000214  1.009734  0.0
H  H16  1  0.46541494  0.88114867  0.72405229  1  0.110621  4.2e-05  0.114625  0.121267  -0.000146  0.98614  0.0
H  H17  1  0.03451892  0.11859680  0.22291744  1  0.112097  -1.7e-05  0.113848  0.119484  3.4e-05  0.98814  0.0
H  H18  1  0.53358888  0.38142150  0.77675135  1  0.113336  -5.9e-05  0.114049  0.119386  -0.000192  0.987327  0.0
H  H19  1  0.96517322  0.61889411  0.27597927  1  0.109231  5e-06  0.114711  0.121498  -0.000166  0.98673  0.0
H  H20  1  0.46408234  0.98179284  0.51357139  1  0.06579  7.2e-05  0.093429  0.09977  -0.000224  1.029206  0.0
H  H21  1  0.03527177  0.01799109  0.01263515  1  0.096616  -9.9e-05  0.092988  0.099494  -7.7e-05  1.029831  0.0
H  H22  1  0.53491961  0.48199037  0.98750796  1  0.094807  0.000104  0.092901  0.099246  6.8e-05  1.030075  0.0
H  H23  1  0.96410993  0.51822987  0.48643544  1  0.065326  7.6e-05  0.093474  0.099959  -0.00022  1.02918  0.0
H  H24  1  0.10674760  0.00977291  0.50898036  1  0.053762  0.000178  0.092219  0.093208  6.2e-05  1.035525  0.0
H  H25  1  0.39276435  0.99042311  0.00744320  1  0.05003  3e-06  0.092009  0.092975  -6.8e-05  1.035769  0.0
H  H26  1  0.89250843  0.50964706  0.99261832  1  0.051846  1e-06  0.091826  0.092664  5.7e-05  1.035734  0.0
H  H27  1  0.60660747  0.49017725  0.49079753  1  0.045473  0.000172  0.09229  0.09334  5.5e-05  1.035321  0.0
H  H28  1  0.97027433  0.16825026  0.55153635  1  0.054012  1e-06  0.09435  0.092243  -1e-06  1.028893  0.0
H  H29  1  0.53051484  0.83230256  0.05018794  1  0.047248  -2e-06  0.093945  0.091639  -3e-06  1.029236  0.0
H  H30  1  0.03055467  0.66772999  0.94971915  1  0.047047  2e-06  0.09394  0.091766  -6e-06  1.029362  0.0
H  H31  1  0.47006009  0.33155669  0.44821875  1  0.051484  1e-06  0.094303  0.092241  -1e-06  1.029331  0.0
H  H32  1  0.16800201  0.27374452  0.64159430  1  0.023854  1.5e-05  0.089617  0.081115  1.7e-05  1.030902  0.0
H  H33  1  0.33435056  0.72715310  0.14118153  1  0.034158  3e-05  0.090073  0.081537  2.5e-05  1.029387  0.0
H  H34  1  0.83461921  0.77273984  0.85868347  1  0.033908  3.4e-05  0.090118  0.081598  2.9e-05  1.029381  0.0
H  H35  1  0.66794968  0.22608178  0.35840286  1  0.022624  2.7e-05  0.089634  0.081132  2.4e-05  1.030008  0.0
H  H36  1  0.43716352  0.14613971  0.70207047  1  0.033954  3.4e-05  0.084976  0.08018  1.5e-05  0.991903  0.0
H  H37  1  0.06547051  0.85478326  0.20161241  1  0.01686  9.3e-05  0.085704  0.081227  7.2e-05  0.990616  0.0
H  H38  1  0.56541076  0.64498465  0.79835148  1  0.014345  0.000116  0.085579  0.080977  8.4e-05  0.990341  0.0
H  H39  1  0.93760466  0.35371410  0.29802528  1  0.032989  -4.9e-05  0.085087  0.07975  -3.7e-05  0.99236  0.0
H  H40  1  0.52985980  0.24703338  0.65115808  1  0.038725  -1.3e-05  0.089725  0.083899  -1.2e-05  0.985939  0.0
H  H41  1  0.97236974  0.75344980  0.15135212  1  0.039409  3.5e-05  0.090201  0.084982  3.1e-05  0.985559  0.0
H  H42  1  0.47260093  0.74635643  0.84854905  1  0.041169  4.8e-05  0.090316  0.084874  4.3e-05  0.985942  0.0
H  H43  1  0.02990303  0.25289227  0.34905502  1  0.037946  -1.3e-05  0.08975  0.083621  -2.1e-05  0.986465  0.0
H  H44  1  0.58848539  0.16576681  0.51901610  1  0.051113  -3.2e-05  0.087075  0.078426  -2.6e-05  1.009023  0.0
H  H45  1  0.91206942  0.83384301  0.01895476  1  0.046187  -4e-06  0.087058  0.077991  -4e-06  1.010177  0.0
H  H46  1  0.41221068  0.66611904  0.98104589  1  0.046874  2.2e-05  0.08718  0.078165  9e-06  1.009986  0.0
H  H47  1  0.08811913  0.33432772  0.48122778  1  0.056264  -1.6e-05  0.087084  0.078357  -1.2e-05  1.009349  0.0
H  H48  1  0.67532179  0.08985285  0.59885726  1  0.032359  3e-05  0.086618  0.079486  3.5e-05  1.011368  0.0
H  H49  1  0.82546756  0.91009081  0.09863134  1  0.035398  2.9e-05  0.086331  0.078957  3.1e-05  1.012083  0.0
H  H50  1  0.32534440  0.58977175  0.90143965  1  0.035685  2.7e-05  0.086392  0.079175  2.3e-05  1.012492  0.0
H  H51  1  0.17542115  0.41020567  0.40136832  1  0.034291  3.1e-05  0.086497  0.079495  3.6e-05  1.010477  0.0
C  C52  1  0.71198397  0.12131619  0.89543049  1  1.496545  0.0006  0.234919  0.62307  0.000239  4.110953  0.0
C  C53  1  0.78740666  0.87935605  0.39537783  1  1.519717  0.030256  0.237197  0.627217  0.031394  4.117342  0.024
C  C54  1  0.28665303  0.62074261  0.60462376  1  1.51648  0.030135  0.235871  0.626311  0.031263  4.117617  0.024
C  C55  1  0.21182362  0.37871850  0.10458199  1  1.499285  0.00069  0.23484  0.624034  0.000596  4.109123  0.0
C  C56  1  0.73193458  0.04825308  0.82920275  1  0.016587  0.009733  -0.00817  -0.031039  0.008858  3.966944  0.006
C  C57  1  0.76784716  0.95222819  0.32876662  1  0.001894  -0.005557  -0.008307  -0.030199  -0.005487  3.962008  -0.005
C  C58  1  0.26689142  0.54786119  0.67118789  1  -0.002027  -0.005481  -0.008393  -0.031284  -0.005419  3.962956  -0.005
C  C59  1  0.23144125  0.45179092  0.17083077  1  0.015961  0.009578  -0.008948  -0.032215  0.008687  3.965779  0.006
C  C60  1  0.91349087  0.03855381  0.78669616  1  -0.01123  -0.002552  -0.07389  -0.086316  -0.002347  3.949834  -0.002
C  C61  1  0.58631892  0.96163422  0.28622276  1  -0.070602  0.009205  -0.073049  -0.084727  0.008108  3.950484  0.005
C  C62  1  0.08546260  0.53835262  0.71383519  1  -0.06804  0.008109  -0.072771  -0.083802  0.007125  3.948067  0.005
C  C63  1  0.41298259  0.46158295  0.21337488  1  -0.081335  -0.002671  -0.074264  -0.08613  -0.002463  3.950654  -0.002
C  C64  1  0.57019669  0.99104375  0.80763739  1  -0.044904  -0.002522  -0.075103  -0.091449  -0.002275  3.961492  -0.002
C  C65  1  0.92965464  0.00930839  0.30698663  1  -0.116421  0.007996  -0.074529  -0.092035  0.006969  3.960424  0.005
C  C66  1  0.42863704  0.49073590  0.69278741  1  -0.116418  0.008751  -0.074196  -0.091378  0.007666  3.960324  0.005
C  C67  1  0.06977401  0.50900109  0.19238481  1  -0.047597  -0.002728  -0.074754  -0.091007  -0.00252  3.961219  -0.002
C  C68  1  0.78754934  0.85023863  0.62772919  1  1.514587  0.030719  0.236948  0.62876  0.031939  4.114265  0.024
C  C69  1  0.71178237  0.14916093  0.12671749  1  1.505165  0.001032  0.235021  0.624162  0.000726  4.108802  0.0
C  C70  1  0.21166705  0.35082452  0.87331975  1  1.506537  7.2e-05  0.23494  0.624702  -7.4e-05  4.106642  0.0
C  C71  1  0.28741606  0.64991991  0.37228128  1  1.489046  0.030849  0.237054  0.628587  0.032068  4.112737  0.024
C  C72  1  0.77066862  0.91626113  0.70009309  1  -0.045167  -0.005447  -0.007218  -0.029658  -0.005404  3.95526  -0.005
C  C73  1  0.72914284  0.08344116  0.19906029  1  -0.043511  0.009636  -0.007356  -0.029422  0.008749  3.960098  0.006
C  C74  1  0.22840088  0.41657729  0.80092187  1  -0.05698  0.009286  -0.007601  -0.03043  0.008369  3.95924  0.006
C  C75  1  0.27035638  0.58385529  0.29993499  1  -0.022562  -0.005798  -0.007051  -0.029425  -0.005718  3.953574  -0.006
C  C76  1  0.93316636  0.97255155  0.72243886  1  -0.052984  0.008044  -0.075361  -0.090098  0.007045  3.954669  0.005
C  C77  1  0.56665235  0.02728499  0.22168549  1  0.010809  -0.00265  -0.076118  -0.091892  -0.002384  3.959308  -0.002
C  C78  1  0.06584811  0.47268423  0.77841548  1  0.008538  -0.002608  -0.076117  -0.092106  -0.00241  3.957189  -0.002
C  C79  1  0.43280419  0.52757195  0.27764948  1  0.028306  0.009051  -0.074957  -0.089868  0.007997  3.954669  0.005
C  C80  1  0.58952325  0.92530637  0.74304921  1  -0.052411  0.009094  -0.071002  -0.083622  0.007983  3.95304  0.005
C  C81  1  0.91032959  0.07459653  0.24204997  1  0.016943  -0.0026  -0.071293  -0.082571  -0.002376  3.952787  -0.002
C  C82  1  0.40946525  0.42543299  0.75772206  1  0.027737  -0.002561  -0.071737  -0.082704  -0.002303  3.950897  -0.002
C  C83  1  0.08916478  0.57474905  0.25698516  1  -0.053841  0.008335  -0.071451  -0.084327  0.007302  3.953134  0.005
C  C84  1  0.40255879  0.04683046  0.53907245  1  -0.070745  -0.000151  -0.096649  -0.078548  -0.000212  3.899549  0.0
C  C85  1  0.09743851  0.95312151  0.03814021  1  -0.098274  -0.000127  -0.096819  -0.078893  -0.000174  3.900158  0.0
C  C86  1  0.59723627  0.54682482  0.96192377  1  -0.097807  0.000161  -0.096963  -0.078691  0.000194  3.900183  0.0
C  C87  1  0.90247303  0.45317559  0.46094553  1  -0.069033  -0.000124  -0.096678  -0.078893  -0.000183  3.899766  0.0
C  C88  1  0.20590644  0.06248195  0.53600931  1  -0.08782  -2.3e-05  -0.113825  -0.119857  -5.1e-05  4.056377  0.0
C  C89  1  0.29412696  0.93765973  0.03469893  1  -0.06715  -0.000226  -0.114433  -0.121447  -0.000223  4.058177  0.0
C  C90  1  0.79394389  0.56235272  0.96533166  1  -0.067246  0.0002  -0.114035  -0.120942  0.000168  4.057871  0.0
C  C91  1  0.70578705  0.43748327  0.46386362  1  -0.081796  -2.2e-05  -0.114138  -0.120144  -4.9e-05  4.055797  0.0
C  C92  1  0.12325126  0.15090167  0.56719216  1  -0.021724  3.1e-05  -0.111017  -0.114992  2.9e-05  4.062636  0.0
C  C93  1  0.37759031  0.84950280  0.06605659  1  -0.053803  3.9e-05  -0.110385  -0.113933  3.2e-05  4.062493  0.0
C  C94  1  0.87759559  0.65048372  0.93389231  1  -0.039832  2.4e-05  -0.110401  -0.114294  5e-06  4.062309  0.0
C  C95  1  0.62310885  0.34897733  0.43267100  1  -0.02099  5.6e-05  -0.111031  -0.115421  5.3e-05  4.062589  0.0
C  C96  1  0.23197962  0.20921960  0.61602395  1  -0.092396  -0.000138  -0.100206  -0.091637  -0.000134  3.935084  0.0
C  C97  1  0.26963649  0.79141788  0.11539840  1  -0.086663  -6.4e-05  -0.099189  -0.08996  -5e-05  3.934684  0.0
C  C98  1  0.76974278  0.70848396  0.88449697  1  -0.100282  0.000124  -0.098984  -0.089722  0.000116  3.933943  0.0
C  C99  1  0.73200580  0.29066219  0.38396954  1  -0.088638  -0.000167  -0.10007  -0.091496  -0.000152  3.935427  0.0
C  C100  1  0.44067248  0.18344117  0.64036285  1  -0.041755  -4.8e-05  -0.16107  -0.133324  -2.9e-05  3.970155  0.0
C  C101  1  0.06118571  0.81706685  0.14008754  1  -0.016569  8e-05  -0.16184  -0.135454  9.8e-05  3.96948  0.0
C  C102  1  0.56123826  0.68275938  0.85986377  1  -0.014508  6.9e-05  -0.161855  -0.134891  8.4e-05  3.969747  0.0
C  C103  1  0.94079797  0.31645871  0.35977725  1  -0.039932  1.6e-05  -0.161229  -0.13238  5e-06  3.97044  0.0
C  C104  1  0.53981006  0.12134711  0.57289979  1  -0.032968  -1e-05  -0.163613  -0.141793  2.2e-05  3.970882  0.0
C  C105  1  0.96093418  0.87863436  0.07253493  1  -0.036645  -5e-06  -0.16321  -0.14014  -0.0  3.970389  0.0
C  C106  1  0.46089465  0.62126504  0.92747833  1  -0.038952  2.4e-05  -0.16335  -0.140767  2.3e-05  3.971518  0.0
C  C107  1  0.03977098  0.37865135  0.42727177  1  -0.03992  -1.7e-05  -0.16329  -0.141384  2e-05  3.969307  0.0
O  O108  1  0.30811698  0.80386602  0.50616786  1  -0.85165  -0.077857  -0.611627  -0.782267  -0.077545  1.843026  -0.078
O  O109  1  0.19264078  0.19554559  0.00589499  1  -0.843828  -0.06344  -0.609059  -0.774968  -0.060556  1.845435  -0.059
O  O110  1  0.69297472  0.30433245  0.99409134  1  -0.84068  0.060585  -0.606942  -0.771671  0.055612  1.843109  0.056
O  O111  1  0.80816429  0.69619883  0.49381472  1  -0.853648  -0.078457  -0.612342  -0.783512  -0.078142  1.843823  -0.078
O  O112  1  0.53857893  0.14062575  0.92283014  1  -1.140527  -0.000733  -0.348211  -0.60056  -0.003108  2.380972  -0.015
O  O113  1  0.96079963  0.86113044  0.42330247  1  -1.142122  0.016775  -0.348387  -0.602568  0.011521  2.373245  -0.003
O  O114  1  0.45994305  0.63883973  0.57651078  1  -1.140459  0.016831  -0.347538  -0.602118  0.01156  2.373817  -0.003
O  O115  1  0.03829981  0.35922259  0.07719665  1  -1.139209  0.003285  -0.348125  -0.600034  0.004456  2.379146  0.017
O  O116  1  0.95963856  0.83669846  0.59657962  1  -1.140789  0.015454  -0.348435  -0.601652  0.010287  2.380588  -0.005
O  O117  1  0.53954015  0.16409531  0.09617378  1  -1.137233  -0.000451  -0.348729  -0.599486  -0.002762  2.38758  -0.015
O  O118  1  0.03934396  0.33604920  0.90414258  1  -1.136203  0.00282  -0.348894  -0.598873  0.003936  2.386479  0.016
O  O119  1  0.45963639  0.66367338  0.40325971  1  -1.140265  0.015571  -0.348741  -0.601633  0.010362  2.380882  -0.005
O  O120  1  0.87183160  0.16095967  0.92028518  1  -1.130544  0.003924  -0.346992  -0.583976  0.004614  2.397023  0.017
O  O121  1  0.62773148  0.83948123  0.41962293  1  -1.139487  0.021549  -0.345538  -0.58719  0.015623  2.39065  0.001
O  O122  1  0.12710683  0.66078066  0.58054693  1  -1.139685  0.021398  -0.344888  -0.586654  0.015499  2.38795  0.001
O  O123  1  0.37156756  0.33926318  0.07968922  1  -1.133835  -0.001157  -0.346755  -0.585538  -0.003172  2.396876  -0.015
O  O124  1  0.62722407  0.81306810  0.60073280  1  -1.132292  0.020969  -0.345753  -0.585638  0.015135  2.371317  0.0
O  O125  1  0.87246598  0.18524126  0.09855468  1  -1.12356  0.005228  -0.347174  -0.581996  0.005786  2.380862  0.018
O  O126  1  0.37221300  0.31458549  0.90116122  1  -1.125517  -0.002613  -0.34692  -0.582779  -0.004472  2.380571  -0.017
O  O127  1  0.12707537  0.68689930  0.39939831  1  -1.131149  0.02086  -0.345805  -0.585271  0.014992  2.3713  0.0
