# generated using pymatgen
data_ZnH19C26N2ClO6
_symmetry_space_group_name_H-M   'P 1'
_cell_length_a   9.69877738
_cell_length_b   11.00229548
_cell_length_c   23.55469915
_cell_angle_alpha   90.22327256
_cell_angle_beta   88.98250278
_cell_angle_gamma   89.69226539
_symmetry_Int_Tables_number   1
_chemical_formula_structural   ZnH19C26N2ClO6
_chemical_formula_sum   'Zn2 H38 C52 N4 Cl2 O12'
_cell_volume   2513.04141272
_cell_formula_units_Z   2
loop_
 _symmetry_equiv_pos_site_id
 _symmetry_equiv_pos_as_xyz
  1  'x, y, z'
loop_
 _atom_site_type_symbol
 _atom_site_label
 _atom_site_symmetry_multiplicity
 _atom_site_fract_x
 _atom_site_fract_y
 _atom_site_fract_z
 _atom_site_occupancy
 _atom_site_pbe_bader_charge
 _atom_site_pbe_bader_spin_density
 _atom_site_pbe_cm5_charge
 _atom_site_pbe_ddec_charge
 _atom_site_pbe_ddec_spin_density
 _atom_site_pbe_ddec_sum_bond_order
 _atom_site_pbe_magmom
Zn  Zn0  1  0.63923254  0.50781634  0.50150858  1  1.285819  0  0.668609  0.811242  0  2.428963  0
Zn  Zn1  1  0.35432545  0.50852335  0.50644062  1  1.279003  0  0.671685  0.81767  0  2.456019  0
H  H2  1  0.22002126  0.64139232  0.94957264  1  0.143245  0  0.119454  0.137775  0  0.98069  0
H  H3  1  0.31907545  0.37021597  0.67471164  1  0.100424  0  0.102487  0.108353  0  1.012396  0
H  H4  1  0.69216110  0.57418385  0.69104933  1  0.06995  0  0.103724  0.107003  0  1.005742  0
H  H5  1  0.31550281  0.89747919  0.56450379  1  0.115417  0  0.105184  0.124551  0  0.999285  0
H  H6  1  0.80257304  0.12003294  0.45042470  1  0.033569  0  0.094112  0.069167  0  0.96924  0
H  H7  1  0.69008961  0.88708342  0.39667720  1  0.065021  0  0.09395  0.105145  0  1.014226  0
H  H8  1  0.80715716  0.89340282  0.45414446  1  0.057291  0  0.095069  0.107792  0  0.987059  0
H  H9  1  0.11409250  0.59007725  0.58452562  1  0.118279  0  0.139866  0.122185  0  0.956067  0
H  H10  1  0.85442352  0.59283159  0.57842540  1  0.151338  0  0.135107  0.121516  0  0.982984  0
H  H11  1  0.88146828  0.31719842  0.39954837  1  0.078618  0  0.108434  0.091652  0  0.992391  0
H  H12  1  0.13550210  0.29892047  0.41229634  1  0.093453  0  0.111985  0.140394  0  0.963647  0
H  H13  1  0.16205408  0.43924816  0.37563349  1  0.087201  0  0.108758  0.137993  0  1.001488  0
H  H14  1  0.68535805  0.19322271  0.05832604  1  0.129378  0  0.118744  0.124206  0  0.977232  0
H  H15  1  0.69375999  0.19330288  0.95074815  1  0.124142  0  0.119703  0.125681  0  0.975094  0
H  H16  1  0.38329204  0.26232437  0.23669595  1  0.067102  0  0.11079  0.120359  0  0.978119  0
H  H17  1  0.39716584  0.30294937  0.34094646  1  0.050548  0  0.106955  0.107498  0  0.993676  0
H  H18  1  0.54735786  0.61776915  0.20342235  1  0.057088  0  0.107251  0.116357  0  0.987829  0
H  H19  1  0.30989154  0.34109329  0.78041412  1  0.079461  0  0.109789  0.117071  0  0.977544  0
H  H20  1  0.65708541  0.75731252  0.79082870  1  0.018117  0  0.090334  0.121137  0  0.993107  0
H  H21  1  0.57609102  0.69551489  0.85193227  1  0.034822  0  0.082122  0.111817  0  1.023596  0
H  H22  1  0.75387789  0.73516509  0.85342390  1  0.036469  0  0.086221  0.112541  0  1.001606  0
H  H23  1  0.73577285  0.50994373  0.84300175  1  0.027154  0  0.090061  0.082514  0  0.997202  0
H  H24  1  0.81006638  0.57290801  0.78131839  1  0.03695  0  0.097518  0.09441  0  0.964616  0
H  H25  1  0.87358380  0.14989689  0.34029094  1  0.013731  0  0.080632  0.101543  0  1.022329  0
H  H26  1  0.78718890  0.01457173  0.32134186  1  0.015343  0  0.083049  0.108163  0  1.011521  0
H  H27  1  0.73827102  0.15508789  0.29043427  1  0.047791  0  0.089796  0.124132  0  0.996768  0
H  H28  1  0.56660945  0.09470308  0.36591477  1  -0.009052  0  0.086187  0.073715  0  0.990758  0
H  H29  1  0.64877895  0.23129054  0.38435282  1  0.016722  0  0.088396  0.086587  0  1.000114  0
H  H30  1  0.90068354  0.66337796  0.38349192  1  0.027005  0  0.083472  0.108926  0  1.01659  0
H  H31  1  0.05663516  0.61540401  0.34913128  1  0.034806  0  0.087145  0.116325  0  1.008589  0
H  H32  1  0.91243829  0.65684821  0.30841055  1  0.028561  0  0.08973  0.118692  0  1.001276  0
H  H33  1  0.92734912  0.43121874  0.30967237  1  0.023159  0  0.095743  0.091958  0  0.961788  0
H  H34  1  0.77746469  0.48010686  0.34714030  1  0.075357  0  0.091284  0.092826  0  1.033533  0
H  H35  1  0.39598581  0.80007709  0.28361388  1  0.015794  0  0.08576  0.113667  0  1.001579  0
H  H36  1  0.38308760  0.75305388  0.35567902  1  0.045391  0  0.088057  0.125113  0  1.00558  0
H  H37  1  0.49357178  0.87519121  0.33642054  1  0.052946  0  0.083597  0.108759  0  1.025835  0
H  H38  1  0.63154758  0.68488857  0.35191044  1  0.045757  0  0.095387  0.095215  0  0.997445  0
H  H39  1  0.64633186  0.73292259  0.28061252  1  -0.000593  0  0.091357  0.083166  0  0.981441  0
C  C40  1  0.48977020  0.74178598  0.50761165  1  1.528685  0  0.215385  0.601992  0  4.17398  0
C  C41  1  0.28249574  0.57746507  0.97340794  1  0.021432  0  -0.069448  -0.139242  0  3.923574  0
C  C42  1  0.27127273  0.57415010  0.03318168  1  0.04181  0  0.0361  0.153511  0  4.002775  0
C  C43  1  0.35379388  0.49495774  0.06467062  1  0.045271  0  -0.008622  -0.125831  0  3.931864  0
C  C44  1  0.44693908  0.41582180  0.03476252  1  0.013136  0  0.006968  0.045392  0  3.985868  0
C  C45  1  0.53422369  0.33437372  0.06408512  1  -0.076326  0  -0.004347  -0.061424  0  3.976168  0
C  C46  1  0.62046624  0.25457420  0.03409140  1  -0.018177  0  -0.061778  -0.067318  0  3.933162  0
C  C47  1  0.62584650  0.25503857  0.97455652  1  -0.000287  0  -0.062436  -0.070471  0  3.934586  0
C  C48  1  0.34933958  0.49190434  0.12767074  1  1.329593  0  0.241041  0.44949  0  4.078631  0
C  C49  1  0.54089155  0.33721926  0.12688612  1  1.362454  0  0.241967  0.439873  0  4.115834  0
C  C50  1  0.42158774  0.34881643  0.25242869  1  0.026444  0  -0.086796  -0.153689  0  3.991825  0
C  C51  1  0.48683448  0.50251275  0.39337165  1  1.571305  0  0.221582  0.601472  0  4.185584  0
C  C52  1  0.42954592  0.37200058  0.31046849  1  -0.011571  0  -0.08565  -0.095738  0  4.003912  0
C  C53  1  0.47953515  0.48320197  0.33030183  1  0.029935  0  -0.009045  -0.074354  0  3.931097  0
C  C54  1  0.52403111  0.57365560  0.29220438  1  0.01772  0  0.000243  0.112884  0  3.930855  0
C  C55  1  0.51523091  0.54902621  0.23413471  1  -0.056467  0  -0.085554  -0.207767  0  3.944928  0
C  C56  1  0.46403776  0.43867179  0.21466482  1  0.283031  0  0.082388  0.19269  0  4.045199  0
C  C57  1  0.39300273  0.39240005  0.76021789  1  -0.028545  0  -0.084563  -0.145426  0  4.005413  0
C  C58  1  0.39756044  0.40866642  0.70182685  1  0.051027  0  -0.082341  -0.081082  0  3.977207  0
C  C59  1  0.50535208  0.47543723  0.67705149  1  -0.074336  0  -0.01491  -0.02259  0  3.974966  0
C  C60  1  0.60831693  0.52352005  0.71118413  1  0.003945  0  -0.079799  -0.139564  0  3.934481  0
C  C61  1  0.60483262  0.50998741  0.77028269  1  0.019148  0  0.000698  0.060206  0  3.921272  0
C  C62  1  0.49581575  0.27409410  0.50358864  1  1.588256  0  0.215025  0.614037  0  4.180954  0
C  C63  1  0.49436267  0.44409498  0.79370798  1  0.285078  0  0.08853  0.133046  0  3.980224  0
C  C64  1  0.59227155  0.94250742  0.47873241  1  0.06744  0  -0.008675  0.058354  0  3.918825  0
C  C65  1  0.49344941  0.87678472  0.50895745  1  -0.003543  0  -0.014889  -0.057383  0  3.987887  0
C  C66  1  0.39441856  0.94500755  0.53992511  1  0.110184  0  -0.092708  -0.173619  0  3.969869  0
C  C67  1  0.39505507  0.07204627  0.53962186  1  -0.063281  0  0.016457  0.127884  0  4.022417  0
C  C68  1  0.49384731  0.13889476  0.50803923  1  0.055689  0  -0.013687  -0.112257  0  3.945844  0
C  C69  1  0.59131143  0.06894491  0.47848878  1  -0.088002  0  -0.008756  0.018083  0  3.8985  0
C  C70  1  0.70813385  0.07729472  0.43459155  1  -0.0066  0  -0.077063  -0.006029  0  3.816729  0
C  C71  1  0.71246476  0.93300807  0.43697618  1  -0.024724  0  -0.152632  -0.238075  0  3.859708  0
C  C72  1  0.07599296  0.45893102  0.46257050  1  0.56158  0  0.149497  0.212071  0  3.874309  0
C  C73  1  0.50689099  0.49429830  0.61412573  1  1.576235  0  0.216272  0.59812  0  4.161855  0
C  C74  1  0.06212118  0.55295475  0.54773949  1  0.472763  0  0.067644  0.046781  0  3.87613  0
C  C75  1  0.91891870  0.55593414  0.54409575  1  0.46707  0  0.06479  0.042739  0  3.865952  0
C  C76  1  0.93303764  0.46567406  0.45769371  1  0.56385  0  0.148833  0.160588  0  3.81643  0
C  C77  1  0.93497359  0.40500027  0.39928107  1  0.009766  0  -0.063719  -0.032363  0  3.78029  0
C  C78  1  0.09746206  0.39239470  0.40722250  1  -0.039412  0  -0.143729  -0.280282  0  3.814853  0
C  C79  1  0.55811084  0.34192159  0.88179533  1  1.353869  0  0.246225  0.430979  0  4.103144  0
C  C80  1  0.38420630  0.51106562  0.88167153  1  1.382771  0  0.247343  0.433234  0  4.095839  0
C  C81  1  0.37271352  0.50115794  0.94439239  1  -0.002472  0  -0.000919  -0.036695  0  3.993511  0
C  C82  1  0.45517569  0.41743087  0.97427816  1  0.005264  0  0.001831  0.024139  0  4.006032  0
C  C83  1  0.54574641  0.33720721  0.94472071  1  -0.054963  0  -0.00245  -0.057118  0  3.984389  0
C  C84  1  0.71346964  0.56811346  0.80639546  1  0.006078  0  -0.158426  -0.136623  0  3.983069  0
C  C85  1  0.67283000  0.69627714  0.82697488  1  -0.056334  0  -0.242283  -0.35083  0  3.957133  0
C  C86  1  0.66685380  0.13313711  0.37800640  1  0.016581  0  -0.16617  -0.129875  0  3.975201  0
C  C87  1  0.77214274  0.11217211  0.32992418  1  -0.07013  0  -0.245117  -0.352152  0  3.982094  0
C  C88  1  0.89052492  0.48008042  0.34799326  1  -0.001993  0  -0.162612  -0.121337  0  3.939904  0
C  C89  1  0.94355654  0.61072812  0.34744932  1  -0.086661  0  -0.245309  -0.357665  0  3.970009  0
C  C90  1  0.57368955  0.69594410  0.31248733  1  0.033456  0  -0.15981  -0.153025  0  3.978301  0
C  C91  1  0.45447785  0.78644331  0.32264001  1  -0.088893  0  -0.242878  -0.348343  0  3.947069  0
N  N92  1  0.47982960  0.43242800  0.85469374  1  -1.190449  0  -0.228912  -0.201973  0  3.58654  0
N  N93  1  0.45292955  0.42176420  0.15410803  1  -1.169055  0  -0.231446  -0.224255  0  3.583573  0
N  N94  1  0.14393412  0.50280951  0.50646484  1  -1.200636  0  -0.290848  -0.181  0  3.475907  0
N  N95  1  0.85104486  0.51187329  0.49832440  1  -1.214465  0  -0.288194  -0.17657  0  3.459813  0
Cl  Cl96  1  0.27024230  0.14697066  0.58066746  1  -0.217465  0  -0.031388  -0.097225  0  1.458414  0
Cl  Cl97  1  0.15425627  0.67438021  0.06303849  1  -0.146589  0  0.014783  -0.044209  0  1.491895  0
O  O98  1  0.60130290  0.68848815  0.49179175  1  -1.163114  0  -0.317665  -0.546618  0  2.321185  0
O  O99  1  0.31650200  0.58478845  0.85459587  1  -1.102475  0  -0.269797  -0.425931  0  2.070279  0
O  O100  1  0.26441942  0.54772400  0.15703060  1  -1.078927  0  -0.269852  -0.422387  0  2.127004  0
O  O101  1  0.61987602  0.27253326  0.15386439  1  -1.103737  0  -0.280421  -0.44169  0  2.066221  0
O  O102  1  0.37695463  0.69004848  0.52138182  1  -1.168558  0  -0.320649  -0.54447  0  2.304697  0
O  O103  1  0.60239975  0.48015929  0.41585778  1  -1.162972  0  -0.303712  -0.537739  0  2.336589  0
O  O104  1  0.37715765  0.53682846  0.41907277  1  -1.16602  0  -0.308627  -0.54147  0  2.304627  0
O  O105  1  0.61094643  0.32477080  0.51289840  1  -1.147033  0  -0.314002  -0.534037  0  2.285568  0
O  O106  1  0.38488970  0.32664762  0.48923928  1  -1.160565  0  -0.31945  -0.556057  0  2.341873  0
O  O107  1  0.61856153  0.52825531  0.58977893  1  -1.174501  0  -0.319504  -0.557006  0  2.299313  0
O  O108  1  0.39334888  0.47370669  0.58942028  1  -1.167206  0  -0.318473  -0.555242  0  2.357099  0
O  O109  1  0.63382937  0.27317090  0.85419439  1  -1.086964  0  -0.271043  -0.426333  0  2.061838  0
