# generated using pymatgen
data_FeH8C10(SN7)2
_symmetry_space_group_name_H-M   'P 1'
_cell_length_a   8.40350175
_cell_length_b   8.40349520
_cell_length_c   12.70380028
_cell_angle_alpha   91.85782312
_cell_angle_beta   91.85776715
_cell_angle_gamma   96.26821918
_symmetry_Int_Tables_number   1
_chemical_formula_structural   FeH8C10(SN7)2
_chemical_formula_sum   'Fe2 H16 C20 S4 N28'
_cell_volume   890.71091258
_cell_formula_units_Z   2
loop_
 _symmetry_equiv_pos_site_id
 _symmetry_equiv_pos_as_xyz
  1  'x, y, z'
loop_
 _atom_site_type_symbol
 _atom_site_label
 _atom_site_symmetry_multiplicity
 _atom_site_fract_x
 _atom_site_fract_y
 _atom_site_fract_z
 _atom_site_occupancy
 _atom_site_hle17_bader_spin_density
 _atom_site_hle17_ddec_charge
 _atom_site_hle17_ddec_spin_density
 _atom_site_hle17_ddec_sum_bond_order
 _atom_site_hle17_magmom
 _atom_site_hse06_10hf_bader_spin_density
 _atom_site_hse06_10hf_ddec_charge
 _atom_site_hse06_10hf_ddec_spin_density
 _atom_site_hse06_10hf_ddec_sum_bond_order
 _atom_site_hse06_10hf_magmom
 _atom_site_hse06_bader_spin_density
 _atom_site_hse06_ddec_charge
 _atom_site_hse06_ddec_spin_density
 _atom_site_hse06_ddec_sum_bond_order
 _atom_site_hse06_magmom
 _atom_site_pbe_bader_spin_density
 _atom_site_pbe_cm5_charge
 _atom_site_pbe_ddec_charge
 _atom_site_pbe_ddec_spin_density
 _atom_site_pbe_ddec_sum_bond_order
 _atom_site_pbe_magmom
Fe  Fe0  1  0.00000066  0.50000220  0.50000028  1  0  0.498213  0  3.43172  0  0  0.468754  0  3.912427  0  0  0.499565  0  3.8677  0  0  0.864322  0.45526  0  3.934915  0
Fe  Fe1  1  0.49999683  0.99999833  0.00000001  1  0  0.498188  0  3.432027  0  0  0.468748  0  3.912731  0  0  0.499522  0  3.868024  0  0  0.864366  0.455242  0  3.935311  0
H  H2  1  0.88995693  0.28717030  0.86106158  1  0  0.129102  0  0.935396  0  0  0.132726  0  1.002652  0  0  0.135219  0  0.999797  0  0  0.14527  0.130801  0  1.004914  0
H  H3  1  0.71283124  0.11004400  0.63893843  1  0  0.129062  0  0.935395  0  0  0.132695  0  1.002633  0  0  0.135187  0  0.999779  0  0  0.145256  0.130769  0  1.004897  0
H  H4  1  0.11003991  0.71283140  0.13893579  1  0  0.129073  0  0.935418  0  0  0.13269  0  1.002675  0  0  0.135182  0  0.999823  0  0  0.145266  0.130761  0  1.004939  0
H  H5  1  0.28717025  0.88995650  0.36106374  1  0  0.129041  0  0.935401  0  0  0.132661  0  1.00267  0  0  0.135153  0  0.999817  0  0  0.145249  0.130739  0  1.004928  0
H  H6  1  0.27736678  0.44029516  0.66684677  1  0  0.129136  0  0.940546  0  0  0.131348  0  1.009725  0  0  0.136069  0  1.002983  0  0  0.151194  0.12776  0  1.014892  0
H  H7  1  0.55970774  0.72263234  0.83315428  1  0  0.129045  0  0.940639  0  0  0.131345  0  1.009729  0  0  0.136062  0  1.002991  0  0  0.151207  0.127758  0  1.014907  0
H  H8  1  0.72263457  0.55970413  0.33315459  1  0  0.129109  0  0.940541  0  0  0.131322  0  1.009727  0  0  0.136038  0  1.002993  0  0  0.1512  0.127735  0  1.014898  0
H  H9  1  0.44029318  0.27736335  0.16684464  1  0  0.129158  0  0.940539  0  0  0.131369  0  1.009723  0  0  0.136086  0  1.002985  0  0  0.151197  0.127782  0  1.014903  0
H  H10  1  0.29218158  0.53771145  0.95721540  1  0  0.126153  0  0.952966  0  0  0.127856  0  1.025075  0  0  0.130224  0  1.022167  0  0  0.142889  0.126042  0  1.02727  0
H  H11  1  0.46229131  0.70781936  0.54278885  1  0  0.12613  0  0.952972  0  0  0.127864  0  1.025065  0  0  0.130233  0  1.022155  0  0  0.142913  0.126053  0  1.027258  0
H  H12  1  0.70781963  0.46228666  0.04278672  1  0  0.126108  0  0.952979  0  0  0.127846  0  1.025069  0  0  0.130213  0  1.022162  0  0  0.142915  0.126035  0  1.027268  0
H  H13  1  0.53771374  0.29218111  0.45721102  1  0  0.126166  0  0.952879  0  0  0.127865  0  1.025017  0  0  0.130222  0  1.02212  0  0  0.142895  0.126052  0  1.027208  0
H  H14  1  0.23979567  0.06507756  0.82046288  1  0  0.125153  0  0.946591  0  0  0.126761  0  1.020382  0  0  0.130195  0  1.015529  0  0  0.141303  0.123993  0  1.02429  0
H  H15  1  0.93493286  0.76020362  0.67954056  1  0  0.125124  0  0.946514  0  0  0.12674  0  1.020252  0  0  0.130209  0  1.015362  0  0  0.141287  0.123983  0  1.024144  0
H  H16  1  0.76019907  0.93492655  0.17953529  1  0  0.125162  0  0.946556  0  0  0.126762  0  1.020339  0  0  0.1302  0  1.015482  0  0  0.1413  0.123997  0  1.024244  0
H  H17  1  0.06507009  0.23979926  0.32046089  1  0  0.125134  0  0.9465  0  0  0.126749  0  1.020257  0  0  0.130213  0  1.015373  0  0  0.14129  0.123987  0  1.024156  0
C  C18  1  0.80092523  0.18308481  0.43507836  1  0  0.242392  0  4.058214  0  0  0.241622  0  4.359283  0  0  0.26287  0  4.371197  0  0  0.120744  0.227307  0  4.350628  0
C  C19  1  0.81690795  0.19907436  0.06492381  1  0  0.242257  0  4.058387  0  0  0.241479  0  4.359465  0  0  0.262722  0  4.371383  0  0  0.120734  0.227178  0  4.350829  0
C  C20  1  0.19907517  0.81690612  0.56492675  1  0  0.242442  0  4.058688  0  0  0.241672  0  4.359718  0  0  0.262911  0  4.371635  0  0  0.120834  0.227367  0  4.351064  0
C  C21  1  0.18307468  0.80091780  0.93506917  1  0  0.242079  0  4.058017  0  0  0.241305  0  4.359122  0  0  0.262547  0  4.371058  0  0  0.120613  0.227012  0  4.350454  0
C  C22  1  0.95507832  0.33365518  0.79425669  1  0  0.132934  0  3.652355  0  0  0.070474  0  3.940983  0  0  0.082099  0  3.951184  0  0  0.161434  0.06273  0  3.934325  0
C  C23  1  0.66634612  0.04492165  0.70574487  1  0  0.132957  0  3.652451  0  0  0.070497  0  3.941082  0  0  0.082123  0  3.951284  0  0  0.161382  0.062757  0  3.934423  0
C  C24  1  0.04491986  0.66634772  0.20574310  1  0  0.132968  0  3.652382  0  0  0.070516  0  3.941026  0  0  0.082141  0  3.951226  0  0  0.161442  0.062783  0  3.934359  0
C  C25  1  0.33365523  0.95507764  0.29425648  1  0  0.132998  0  3.652413  0  0  0.070535  0  3.941047  0  0  0.082161  0  3.951248  0  0  0.161433  0.06279  0  3.934385  0
C  C26  1  0.15752951  0.41508093  0.69576083  1  0  0.144327  0  3.574467  0  0  0.074761  0  3.852868  0  0  0.090558  0  3.859373  0  0  0.16671  0.064036  0  3.849044  0
C  C27  1  0.58492075  0.84247095  0.80424261  1  0  0.144562  0  3.574286  0  0  0.074906  0  3.852712  0  0  0.090708  0  3.859213  0  0  0.16677  0.064181  0  3.848919  0
C  C28  1  0.84247331  0.58492076  0.30424060  1  0  0.144406  0  3.574369  0  0  0.074826  0  3.852793  0  0  0.090631  0  3.859294  0  0  0.166763  0.064104  0  3.848979  0
C  C29  1  0.41507835  0.15752955  0.19575715  1  0  0.14441  0  3.5742  0  0  0.074837  0  3.852595  0  0  0.090638  0  3.859096  0  0  0.166758  0.064108  0  3.848805  0
C  C30  1  0.30651192  0.41179326  0.94480651  1  0  0.141672  0  3.644318  0  0  0.077344  0  3.930951  0  0  0.089883  0  3.940625  0  0  0.163924  0.069009  0  3.924613  0
C  C31  1  0.58820752  0.69348733  0.55519527  1  0  0.141671  0  3.64409  0  0  0.077299  0  3.930702  0  0  0.089839  0  3.940368  0  0  0.163807  0.068964  0  3.92436  0
C  C32  1  0.69348706  0.58820606  0.05519559  1  0  0.141685  0  3.644206  0  0  0.077315  0  3.930823  0  0  0.089857  0  3.940493  0  0  0.163829  0.068978  0  3.924494  0
C  C33  1  0.41179291  0.30651436  0.44480533  1  0  0.141671  0  3.644251  0  0  0.07732  0  3.930863  0  0  0.089871  0  3.940537  0  0  0.163823  0.06898  0  3.924521  0
C  C34  1  0.27747355  0.16572965  0.87467045  1  0  0.153698  0  3.561135  0  0  0.083292  0  3.839215  0  0  0.100146  0  3.844868  0  0  0.170046  0.071825  0  3.836151  0
C  C35  1  0.83426899  0.72252126  0.62532562  1  0  0.153715  0  3.561237  0  0  0.083354  0  3.839366  0  0  0.100175  0  3.845001  0  0  0.170071  0.071881  0  3.836286  0
C  C36  1  0.72251573  0.83426847  0.12532435  1  0  0.153675  0  3.561196  0  0  0.083312  0  3.839339  0  0  0.100161  0  3.84499  0  0  0.170066  0.071851  0  3.83627  0
C  C37  1  0.16573501  0.27748042  0.37467505  1  0  0.153722  0  3.561222  0  0  0.083339  0  3.83937  0  0  0.100165  0  3.84501  0  0  0.170046  0.071865  0  3.836295  0
S  S38  1  0.72162421  0.00436966  0.39766917  1  0  -0.413782  0  1.990395  0  0  -0.416937  0  2.279894  0  0  -0.431546  0  2.274195  0  0  -0.229858  -0.405838  0  2.283433  0
S  S39  1  0.99562808  0.27838196  0.10233398  1  0  -0.413777  0  1.99026  0  0  -0.416927  0  2.279751  0  0  -0.431538  0  2.274062  0  0  -0.229853  -0.405825  0  2.283293  0
S  S40  1  0.27838432  0.99562964  0.60234020  1  0  -0.413893  0  1.990086  0  0  -0.417029  0  2.279569  0  0  -0.431639  0  2.273873  0  0  -0.22991  -0.405925  0  2.283092  0
S  S41  1  0.00436938  0.72161492  0.89765938  1  0  -0.413601  0  1.99073  0  0  -0.416763  0  2.280241  0  0  -0.431365  0  2.274556  0  0  -0.229776  -0.405672  0  2.283786  0
N  N42  1  0.85632291  0.31423254  0.46327547  1  0  -0.461804  0  3.217053  0  0  -0.441681  0  3.51849  0  0  -0.459809  0  3.524316  0  0  -0.420022  -0.430206  0  3.513147  0
N  N43  1  0.68576995  0.14367619  0.03672769  1  0  -0.461637  0  3.21724  0  0  -0.441514  0  3.518693  0  0  -0.459633  0  3.524514  0  0  -0.420018  -0.43005  0  3.513394  0
N  N44  1  0.14368356  0.68577994  0.53673096  1  0  -0.461719  0  3.217582  0  0  -0.441601  0  3.519012  0  0  -0.459724  0  3.524837  0  0  -0.420052  -0.430138  0  3.513676  0
N  N45  1  0.31423313  0.85632788  0.96327222  1  0  -0.461647  0  3.216545  0  0  -0.441507  0  3.518  0  0  -0.45963  0  3.523823  0  0  -0.419996  -0.430041  0  3.512688  0
N  N46  1  0.02216362  0.42744571  0.64292905  1  0  -0.134622  0  3.327094  0  0  -0.092616  0  3.625281  0  0  -0.109624  0  3.64195  0  0  -0.243567  -0.082257  0  3.613561  0
N  N47  1  0.57255160  0.97783285  0.85707192  1  0  -0.134687  0  3.327172  0  0  -0.092693  0  3.625398  0  0  -0.1097  0  3.642062  0  0  -0.243615  -0.08234  0  3.613718  0
N  N48  1  0.97783680  0.57255597  0.35706998  1  0  -0.134669  0  3.327176  0  0  -0.092654  0  3.625366  0  0  -0.109667  0  3.642033  0  0  -0.243619  -0.082305  0  3.613666  0
N  N49  1  0.42744323  0.02216167  0.14292686  1  0  -0.134636  0  3.327165  0  0  -0.092628  0  3.62534  0  0  -0.109634  0  3.642007  0  0  -0.243543  -0.082272  0  3.613653  0
N  N50  1  0.89422243  0.37680758  0.70446189  1  0  -0.20328  0  2.885108  0  0  -0.191931  0  3.170975  0  0  -0.198936  0  3.184438  0  0  -0.21373  -0.187254  0  3.162171  0
N  N51  1  0.62319082  0.10577682  0.79553963  1  0  -0.203182  0  2.885194  0  0  -0.191811  0  3.171028  0  0  -0.198816  0  3.184493  0  0  -0.213625  -0.18713  0  3.162225  0
N  N52  1  0.10577785  0.62319291  0.29553632  1  0  -0.203245  0  2.885141  0  0  -0.191892  0  3.170995  0  0  -0.198892  0  3.184457  0  0  -0.213695  -0.187214  0  3.162188  0
N  N53  1  0.37680325  0.89422132  0.20446156  1  0  -0.203259  0  2.885248  0  0  -0.191901  0  3.171098  0  0  -0.198904  0  3.184563  0  0  -0.213712  -0.187219  0  3.162293  0
N  N54  1  0.11945428  0.35456177  0.79140027  1  0  -0.008389  0  3.597592  0  0  0.061323  0  3.829241  0  0  0.048985  0  3.852252  0  0  -0.120906  0.06943  0  3.813675  0
N  N55  1  0.64544408  0.88054514  0.70860165  1  0  -0.008509  0  3.59751  0  0  0.06118  0  3.829228  0  0  0.048841  0  3.852236  0  0  -0.120952  0.069288  0  3.813674  0
N  N56  1  0.88054391  0.64544114  0.20860031  1  0  -0.008374  0  3.597506  0  0  0.061331  0  3.829172  0  0  0.048992  0  3.852181  0  0  -0.120929  0.069431  0  3.813616  0
N  N57  1  0.35455951  0.11945294  0.29139973  1  0  -0.00833  0  3.59749  0  0  0.061362  0  3.829154  0  0  0.049026  0  3.852162  0  0  -0.120931  0.069469  0  3.813599  0
N  N58  1  0.22798672  0.31476867  0.86609931  1  0  -0.011163  0  3.587419  0  0  0.060857  0  3.816733  0  0  0.048584  0  3.838652  0  0  -0.118163  0.068883  0  3.80196  0
N  N59  1  0.68523968  0.77201293  0.63390418  1  0  -0.011277  0  3.587493  0  0  0.060785  0  3.816737  0  0  0.048508  0  3.838666  0  0  -0.1181  0.06881  0  3.801965  0
N  N60  1  0.77200923  0.68523545  0.13390282  1  0  -0.011226  0  3.587496  0  0  0.060826  0  3.816772  0  0  0.048549  0  3.838696  0  0  -0.118105  0.06885  0  3.802008  0
N  N61  1  0.31476418  0.22798755  0.36609646  1  0  -0.011436  0  3.58776  0  0  0.060641  0  3.817009  0  0  0.04836  0  3.838937  0  0  -0.118095  0.06867  0  3.802233  0
N  N62  1  0.38213949  0.17339613  0.95475848  1  0  -0.128612  0  3.319222  0  0  -0.089703  0  3.618276  0  0  -0.105501  0  3.632975  0  0  -0.24214  -0.080327  0  3.60816  0
N  N63  1  0.82660486  0.61786232  0.54524482  1  0  -0.128586  0  3.319333  0  0  -0.08975  0  3.618465  0  0  -0.105555  0  3.633177  0  0  -0.24218  -0.080369  0  3.60832  0
N  N64  1  0.61785591  0.82660319  0.04524276  1  0  -0.128503  0  3.3192  0  0  -0.089687  0  3.61837  0  0  -0.105483  0  3.633066  0  0  -0.242157  -0.080308  0  3.608248  0
N  N65  1  0.17339928  0.38214055  0.45475587  1  0  -0.128466  0  3.319064  0  0  -0.089641  0  3.618208  0  0  -0.105446  0  3.632918  0  0  -0.242145  -0.080252  0  3.608057  0
N  N66  1  0.40117144  0.32758343  0.99868867  1  0  -0.212052  0  2.930075  0  0  -0.189904  0  3.213938  0  0  -0.199218  0  3.227986  0  0  -0.2073  -0.183605  0  3.20483  0
N  N67  1  0.67241939  0.59882654  0.50131306  1  0  -0.212009  0  2.929963  0  0  -0.189839  0  3.213843  0  0  -0.199152  0  3.227889  0  0  -0.207275  -0.183542  0  3.204725  0
N  N68  1  0.59882515  0.67241590  0.00131338  1  0  -0.212067  0  2.92989  0  0  -0.189917  0  3.213801  0  0  -0.199231  0  3.227846  0  0  -0.2073  -0.183614  0  3.204687  0
N  N69  1  0.32758672  0.40117272  0.49868682  1  0  -0.212058  0  2.929956  0  0  -0.189884  0  3.213841  0  0  -0.199197  0  3.227883  0  0  -0.207283  -0.183585  0  3.204721  0
