# generated using pymatgen
data_LaH17C27O7
_symmetry_space_group_name_H-M   'P 1'
_cell_length_a   12.51506201
_cell_length_b   17.22734075
_cell_length_c   17.22735663
_cell_angle_alpha   114.34451582
_cell_angle_beta   104.00616354
_cell_angle_gamma   104.00645612
_symmetry_Int_Tables_number   1
_chemical_formula_structural   LaH17C27O7
_chemical_formula_sum   'La3 H51 C81 O21'
_cell_volume   3028.01110666
_cell_formula_units_Z   3
loop_
 _symmetry_equiv_pos_site_id
 _symmetry_equiv_pos_as_xyz
  1  'x, y, z'
loop_
 _atom_site_type_symbol
 _atom_site_label
 _atom_site_symmetry_multiplicity
 _atom_site_fract_x
 _atom_site_fract_y
 _atom_site_fract_z
 _atom_site_occupancy
 _atom_site_pbe_bader_charge
 _atom_site_pbe_bader_spin_density
 _atom_site_pbe_cm5_charge
 _atom_site_pbe_ddec_charge
 _atom_site_pbe_ddec_spin_density
 _atom_site_pbe_ddec_sum_bond_order
 _atom_site_pbe_magmom
La  La0  1  0.32590018  0.65174185  0.32587483  1  2.252918  0  1.418754  1.894885  0  2.440278  0
La  La1  1  0.00000052  0.67412262  0.32587828  1  2.248421  0  1.418551  1.894614  0  2.440086  0
La  La2  1  0.67410123  0.67412708  0.34825914  1  2.252951  0  1.418702  1.894838  0  2.440298  0
H  H3  1  0.47749388  0.94439746  0.60745280  1  0.085556  0  0.106712  0.110949  0  0.993956  0
H  H4  1  0.87002981  0.39265330  0.33690028  1  0.070011  0  0.106806  0.110661  0  0.994609  0
H  H5  1  0.53314675  0.66306085  0.05577152  1  0.124434  0  0.106866  0.111192  0  0.994026  0
H  H6  1  0.12997403  0.66309532  0.60734501  1  0.070064  0  0.10684  0.110782  0  0.994669  0
H  H7  1  0.46685196  0.94422972  0.33694007  1  0.124493  0  0.106885  0.111198  0  0.994046  0
H  H8  1  0.52250204  0.39254553  0.05559903  1  0.085536  0  0.106725  0.110949  0  0.993992  0
H  H9  1  0.55052768  0.11600927  0.68860653  1  0.052627  0  0.098026  0.09757  0  1.008472  0
H  H10  1  0.86207752  0.31142910  0.42725945  1  0.060692  0  0.097739  0.097124  0  1.007137  0
H  H11  1  0.43474212  0.57272619  0.88413440  1  0.046312  0  0.097206  0.096336  0  1.008482  0
H  H12  1  0.13792593  0.57273833  0.68857087  1  0.060744  0  0.097727  0.097117  0  1.007194  0
H  H13  1  0.56526109  0.11586684  0.42727335  1  0.046141  0  0.097204  0.096296  0  1.008554  0
H  H14  1  0.44947187  0.31138984  0.88398929  1  0.052515  0  0.09802  0.097574  0  1.008529  0
H  H15  1  0.27287052  0.09728257  0.46881312  1  0.046472  0  0.10023  0.10156  0  1.001018  0
H  H16  1  0.80417402  0.53121942  0.62852075  1  0.057163  0  0.100366  0.102077  0  1.000811  0
H  H17  1  0.17560647  0.37156534  0.90266068  1  0.039077  0  0.10004  0.101041  0  1.001997  0
H  H18  1  0.19582943  0.37147569  0.46878326  1  0.057083  0  0.100367  0.102075  0  1.000896  0
H  H19  1  0.82439535  0.09734334  0.62843527  1  0.038973  0  0.100017  0.10096  0  1.002051  0
H  H20  1  0.72712845  0.53118617  0.90271585  1  0.046337  0  0.100211  0.101536  0  1.001022  0
H  H21  1  0.20116199  0.92591188  0.38917923  1  0.104795  0  0.104385  0.096127  0  1.020821  0
H  H22  1  0.81214511  0.61093466  0.53689478  1  0.065092  0  0.104676  0.095742  0  1.020954  0
H  H23  1  0.27510287  0.46317242  0.07400265  1  0.078598  0  0.104219  0.097046  0  1.020614  0
H  H24  1  0.18785585  0.46309779  0.38906473  1  0.065005  0  0.104676  0.095727  0  1.020984  0
H  H25  1  0.72489723  0.92600189  0.53683094  1  0.078697  0  0.104242  0.097059  0  1.020625  0
H  H26  1  0.79883286  0.61081932  0.07408450  1  0.104845  0  0.104349  0.096041  0  1.020912  0
H  H27  1  0.50000074  0.23236125  0.76763504  1  0.07109  0  0.09828  0.094325  0  1.033852  0
H  H28  1  0.73223736  0.23234114  0.46462012  1  0.059322  0  0.098177  0.095047  0  1.0326  0
H  H29  1  0.26776335  0.53537981  0.76766190  1  0.059338  0  0.09818  0.095044  0  1.032583  0
H  H30  1  0.42892750  0.23254900  0.51089193  1  0.050193  0  0.098915  0.096559  0  1.025752  0
H  H31  1  0.91804485  0.48905960  0.72159576  1  0.073369  0  0.098816  0.096634  0  1.026571  0
H  H32  1  0.19633919  0.27847830  0.76751356  1  0.054789  0  0.098975  0.0969  0  1.026309  0
H  H33  1  0.08196189  0.27840092  0.51094709  1  0.054564  0  0.098834  0.096621  0  1.026645  0
H  H34  1  0.80366699  0.23249535  0.72152130  1  0.054832  0  0.098978  0.096857  0  1.026449  0
H  H35  1  0.57106799  0.48910248  0.76744280  1  0.050333  0  0.098991  0.096582  0  1.025765  0
H  H36  1  0.45038020  0.52101048  0.67239008  1  0.088046  0  0.096713  0.097069  0  1.015796  0
H  H37  1  0.77810791  0.32770096  0.84869477  1  0.052023  0  0.096912  0.097517  0  1.017797  0
H  H38  1  0.92924841  0.15130012  0.47901755  1  0.047253  0  0.096814  0.097627  0  1.016409  0
H  H39  1  0.22190485  0.15130638  0.67231047  1  0.051764  0  0.096838  0.097316  0  1.017845  0
H  H40  1  0.07076570  0.52099372  0.84869460  1  0.046806  0  0.096796  0.0977  0  1.016463  0
H  H41  1  0.54961476  0.32760820  0.47898586  1  0.088065  0  0.096723  0.097048  0  1.015759  0
H  H42  1  0.44667545  0.60452695  0.58453735  1  0.096312  0  0.106169  0.111787  0  0.992938  0
H  H43  1  0.86226228  0.41560380  0.02005355  1  0.073069  0  0.106165  0.111418  0  0.992381  0
H  H44  1  0.84208667  0.97993957  0.39548500  1  0.079762  0  0.10625  0.11163  0  0.992591  0
H  H45  1  0.13775263  0.97994650  0.58441226  1  0.073347  0  0.106197  0.111341  0  0.992456  0
H  H46  1  0.15792969  0.60452937  0.02005656  1  0.079395  0  0.106227  0.111548  0  0.992631  0
H  H47  1  0.55332338  0.41546293  0.39547140  1  0.096286  0  0.106169  0.111769  0  0.992956  0
H  H48  1  0.27002607  0.42802249  0.20060318  1  0.624779  0  0.345748  0.424084  0  0.854014  0
H  H49  1  0.06939501  0.79935302  0.22755727  1  0.635697  0  0.345451  0.423592  0  0.854526  0
H  H50  1  0.84181958  0.77242815  0.57192931  1  0.623085  0  0.345648  0.423569  0  0.854599  0
H  H51  1  0.93060399  0.77242057  0.20062691  1  0.635709  0  0.345514  0.423645  0  0.85449  0
H  H52  1  0.15818055  0.42807345  0.22757410  1  0.623085  0  0.345645  0.423541  0  0.854642  0
H  H53  1  0.72997006  0.79939573  0.57197708  1  0.624643  0  0.34573  0.424056  0  0.854042  0
C  C54  1  0.29980284  0.82320950  0.44358906  1  1.523496  0  0.212239  0.591217  0  4.191022  0
C  C55  1  0.85618258  0.55651870  0.37967318  1  1.502473  0  0.210858  0.589126  0  4.195497  0
C  C56  1  0.47652500  0.62034718  0.17681866  1  1.520558  0  0.211266  0.587877  0  4.191579  0
C  C57  1  0.14381996  0.62032195  0.44348023  1  1.503031  0  0.211003  0.589371  0  4.195138  0
C  C58  1  0.52347628  0.82318264  0.37965480  1  1.520468  0  0.211264  0.587933  0  4.191474  0
C  C59  1  0.70019434  0.55641049  0.17678736  1  1.523647  0  0.212306  0.591224  0  4.19107  0
C  C60  1  0.33531943  0.92499383  0.49336549  1  0.018304  0  -0.012871  -0.03865  0  3.967307  0
C  C61  1  0.84199825  0.50674130  0.43167930  1  0.02766  0  -0.013001  -0.038014  0  3.96381  0
C  C62  1  0.41026812  0.56833572  0.07504318  1  -0.016042  0  -0.012288  -0.031874  0  3.960666  0
C  C63  1  0.15800606  0.56831559  0.49325733  1  0.027987  0  -0.012937  -0.037936  0  3.964025  0
C  C64  1  0.58973497  0.92495930  0.43166453  1  -0.015771  0  -0.012276  -0.031834  0  3.960579  0
C  C65  1  0.66467603  0.50663367  0.07500260  1  0.017968  0  -0.012885  -0.038607  0  3.967301  0
C  C66  1  0.43276722  0.97899651  0.57858175  1  0.031967  0  -0.078479  -0.07682  0  3.978945  0
C  C67  1  0.85421759  0.42150622  0.40040379  1  0.030606  0  -0.079058  -0.078095  0  3.978277  0
C  C68  1  0.45380470  0.59960545  0.02111257  1  0.012354  0  -0.079285  -0.080257  0  3.978274  0
C  C69  1  0.14578762  0.59959237  0.57849306  1  0.030481  0  -0.079162  -0.078435  0  3.978482  0
C  C70  1  0.54619925  0.97889022  0.40039397  1  0.012014  0  -0.07933  -0.080367  0  3.978286  0
C  C71  1  0.56722889  0.42141626  0.02100076  1  0.031914  0  -0.078488  -0.076813  0  3.978852  0
C  C72  1  0.47280296  0.07463816  0.62343838  1  -0.122351  0  -0.092547  -0.138577  0  3.993789  0
C  C73  1  0.84944084  0.37658103  0.45112293  1  -0.104885  0  -0.091567  -0.135946  0  3.990207  0
C  C74  1  0.39828975  0.54891027  0.92545792  1  -0.148397  0  -0.091546  -0.136583  0  3.991083  0
C  C75  1  0.15057011  0.54887630  0.62342169  1  -0.104832  0  -0.091578  -0.135892  0  3.990352  0
C  C76  1  0.60171359  0.07454334  0.45108925  1  -0.148174  0  -0.091533  -0.136497  0  3.99129  0
C  C77  1  0.52719574  0.37655866  0.92535849  1  -0.122178  0  -0.092606  -0.138719  0  3.993825  0
C  C78  1  0.41728884  0.11906265  0.58423391  1  -0.003378  0  -0.002397  0.075445  0  3.992917  0
C  C79  1  0.83311042  0.41574418  0.53476682  1  -0.03309  0  -0.002327  0.075975  0  3.993429  0
C  C80  1  0.29831099  0.46529888  0.88097900  1  0.009177  0  -0.001984  0.076506  0  3.991792  0
C  C81  1  0.16689709  0.46523111  0.58426049  1  -0.032704  0  -0.002348  0.075949  0  3.993671  0
C  C82  1  0.70169401  0.11902630  0.53470220  1  0.009123  0  -0.002079  0.075797  0  3.991421  0
C  C83  1  0.58270998  0.41576260  0.88093418  1  -0.003482  0  -0.002346  0.075611  0  3.992848  0
C  C84  1  0.31965642  0.06425650  0.49876296  1  0.005859  0  -0.090304  -0.135888  0  3.984403  0
C  C85  1  0.82099229  0.50125624  0.56553163  1  0.036103  0  -0.090537  -0.137005  0  3.98516  0
C  C86  1  0.25540047  0.43454523  0.93570844  1  0.005502  0  -0.090754  -0.136506  0  3.987095  0
C  C87  1  0.17901170  0.43446485  0.49874668  1  0.035151  0  -0.090647  -0.137153  0  3.985299  0
C  C88  1  0.74460294  0.06429400  0.56545292  1  0.005663  0  -0.090667  -0.13628  0  3.987128  0
C  C89  1  0.68034152  0.50123499  0.93573944  1  0.006038  0  -0.090315  -0.135945  0  3.984314  0
C  C90  1  0.27870182  0.96841461  0.45417859  1  -0.070848  0  -0.076134  -0.071718  0  3.976709  0
C  C91  1  0.82466247  0.54591551  0.51434002  1  -0.08566  0  -0.076481  -0.071546  0  3.974844  0
C  C92  1  0.31019544  0.48573999  0.03156202  1  -0.02361  0  -0.075493  -0.073984  0  3.976953  0
C  C93  1  0.17534378  0.48565683  0.45408633  1  -0.085374  0  -0.076364  -0.071349  0  3.974945  0
C  C94  1  0.68980911  0.96844249  0.51425951  1  -0.023691  0  -0.075526  -0.074069  0  3.977096  0
C  C95  1  0.72129426  0.54581963  0.03158252  1  -0.070558  0  -0.076062  -0.071584  0  3.976614  0
C  C96  1  0.45965420  0.22079444  0.63348907  1  0.067959  0  -0.007462  0.078736  0  4.031575  0
C  C97  1  0.82614259  0.36647181  0.58722660  1  -0.05491  0  -0.007008  0.077543  0  4.033393  0
C  C98  1  0.23892726  0.41281765  0.77924464  1  0.044979  0  -0.007254  0.079244  0  4.032254  0
C  C99  1  0.17386120  0.41277083  0.63353258  1  -0.054722  0  -0.007001  0.077624  0  4.033591  0
C  C100  1  0.76107661  0.22076293  0.58718273  1  0.045067  0  -0.007245  0.081029  0  4.029335  0
C  C101  1  0.54034549  0.36650667  0.77920145  1  0.068079  0  -0.007493  0.078654  0  4.031626  0
C  C102  1  0.50000038  0.27000309  0.72999234  1  -0.199658  0  -0.091585  -0.187454  0  3.952795  0
C  C103  1  0.76991323  0.26997965  0.53990442  1  -0.123544  0  -0.092054  -0.188944  0  3.953041  0
C  C104  1  0.23009233  0.46009532  0.73002462  1  -0.12336  0  -0.092  -0.188328  0  3.953741  0
C  C105  1  0.46007524  0.27008243  0.58598493  1  -0.141615  0  -0.086826  -0.172472  0  3.921697  0
C  C106  1  0.87409343  0.41397194  0.68403865  1  0.017096  0  -0.087076  -0.173243  0  3.92278  0
C  C107  1  0.18994923  0.31601232  0.72996074  1  -0.103037  0  -0.087052  -0.174077  0  3.922885  0
C  C108  1  0.12591206  0.31595935  0.58603387  1  0.036082  0  -0.087058  -0.173212  0  3.92309  0
C  C109  1  0.81005364  0.27004744  0.68398910  1  -0.102766  0  -0.086925  -0.174437  0  3.922175  0
C  C110  1  0.53992141  0.41400872  0.72991241  1  -0.141551  0  -0.086916  -0.172421  0  3.921666  0
C  C111  1  0.49999658  0.36676066  0.63323384  1  0.154415  0  -0.00537  0.083164  0  4.011968  0
C  C112  1  0.86687623  0.36673388  0.73348987  1  0.029521  0  -0.005493  0.084294  0  4.01024  0
C  C113  1  0.13313250  0.26650891  0.63327542  1  0.028518  0  -0.005437  0.084309  0  4.010272  0
C  C114  1  0.49999774  0.41786047  0.58213497  1  -0.069392  0  -0.008988  0.067393  0  3.992531  0
C  C115  1  0.91802511  0.41781699  0.83572585  1  -0.042645  0  -0.007645  0.069348  0  3.989362  0
C  C116  1  0.08198325  0.16427211  0.58219407  1  -0.041165  0  -0.007809  0.069265  0  3.989012  0
C  C117  1  0.47415714  0.49786493  0.61215719  1  -0.125212  0  -0.094519  -0.137986  0  3.990993  0
C  C118  1  0.86216199  0.38786695  0.88573536  1  0.033938  0  -0.095501  -0.140136  0  3.992707  0
C  C119  1  0.97618205  0.11423671  0.50218321  1  -0.064052  0  -0.094912  -0.139475  0  3.994545  0
C  C120  1  0.13785127  0.11426390  0.61214875  1  0.034351  0  -0.095242  -0.139706  0  3.992131  0
C  C121  1  0.02383149  0.49782922  0.88575737  1  -0.063842  0  -0.094957  -0.139669  0  3.994296  0
C  C122  1  0.52583760  0.38784296  0.50213300  1  -0.125626  0  -0.094573  -0.138  0  3.991074  0
C  C123  1  0.47191601  0.54500587  0.56315331  1  -0.026245  0  -0.08528  -0.09238  0  3.996052  0
C  C124  1  0.90891751  0.43688909  0.98188259  1  -0.082412  0  -0.08538  -0.091687  0  3.994587  0
C  C125  1  0.92682635  0.01808310  0.45501236  1  0.004934  0  -0.08562  -0.091938  0  3.995729  0
C  C126  1  0.09109614  0.01811676  0.56312919  1  -0.084115  0  -0.085594  -0.091802  0  3.9945  0
C  C127  1  0.07318781  0.54500375  0.98191365  1  0.00505  0  -0.085547  -0.091787  0  3.995138  0
C  C128  1  0.52808181  0.43684687  0.45499251  1  -0.026151  0  -0.085222  -0.092293  0  3.995885  0
C  C129  1  0.50000016  0.51547532  0.48452799  1  0.049008  0  -0.020248  -0.041698  0  3.973377  0
C  C130  1  0.01559967  0.51548973  0.03101327  1  0.002359  0  -0.01983  -0.041528  0  3.971879  0
C  C131  1  0.98441670  0.96898458  0.48452720  1  0.002777  0  -0.019714  -0.0415  0  3.971749  0
C  C132  1  0.49999677  0.56725279  0.43274866  1  1.53762  0  0.225814  0.609061  0  4.216846  0
C  C133  1  0.06726218  0.56724305  0.13457562  1  1.51643  0  0.227712  0.610916  0  4.21273  0
C  C134  1  0.93275427  0.86542271  0.43276853  1  1.516328  0  0.227501  0.610745  0  4.213423  0
O  O135  1  0.36437369  0.78834350  0.47566591  1  -1.174141  0  -0.365139  -0.574717  0  2.176691  0
O  O136  1  0.88852817  0.52437671  0.31262741  1  -1.17032  0  -0.36393  -0.573693  0  2.17867  0
O  O137  1  0.57589082  0.68735644  0.21169109  1  -1.175292  0  -0.364502  -0.57441  0  2.176209  0
O  O138  1  0.11147135  0.68736680  0.47562404  1  -1.17055  0  -0.363995  -0.573813  0  2.178336  0
O  O139  1  0.42411117  0.78831238  0.31264573  1  -1.175072  0  -0.364477  -0.574418  0  2.17622  0
O  O140  1  0.63562343  0.52433272  0.21165378  1  -1.174258  0  -0.365143  -0.574707  0  2.176698  0
O  O141  1  0.20885986  0.77258445  0.36544535  1  -1.218872  0  -0.411199  -0.68346  0  2.301716  0
O  O142  1  0.84352505  0.63472401  0.40726108  1  -1.205001  0  -0.410938  -0.682632  0  2.304329  0
O  O143  1  0.43627944  0.59280397  0.22746211  1  -1.21465  0  -0.411  -0.682541  0  2.303786  0
O  O144  1  0.15647602  0.59273497  0.36527529  1  -1.205074  0  -0.411011  -0.682717  0  2.304257  0
O  O145  1  0.56371576  0.77253670  0.40719586  1  -1.214918  0  -0.410991  -0.682551  0  2.303685  0
O  O146  1  0.79114075  0.63455247  0.22741269  1  -1.218825  0  -0.411234  -0.683507  0  2.301796  0
O  O147  1  0.42939754  0.60969711  0.43399573  1  -1.199694  0  -0.385073  -0.628013  0  2.24654  0
O  O148  1  0.99536878  0.56590668  0.17572555  1  -1.209743  0  -0.386588  -0.628893  0  2.244451  0
O  O149  1  0.81974033  0.82417539  0.39021437  1  -1.191096  0  -0.385718  -0.628634  0  2.244805  0
O  O150  1  0.00464582  0.82427342  0.43410966  1  -1.209675  0  -0.38636  -0.628633  0  2.244785  0
O  O151  1  0.18027444  0.60978698  0.17582439  1  -1.191066  0  -0.385734  -0.628613  0  2.244594  0
O  O152  1  0.57059749  0.56600651  0.39030069  1  -1.199857  0  -0.385011  -0.627986  0  2.246408  0
O  O153  1  0.23352679  0.46713306  0.23345534  1  -1.224717  0  -0.578293  -0.78025  0  2.012366  0
O  O154  1  0.00000847  0.76636589  0.23365800  1  -1.246111  0  -0.577712  -0.779712  0  2.012918  0
O  O155  1  0.76647169  0.76654510  0.53286799  1  -1.224583  0  -0.578275  -0.780248  0  2.012366  0
