# generated using pymatgen
data_Cu2Mo3H4C4(NO5)2
_symmetry_space_group_name_H-M   'P 1'
_cell_length_a   7.62392980
_cell_length_b   12.38740072
_cell_length_c   12.74802319
_cell_angle_alpha   90.00004763
_cell_angle_beta   90.00001874
_cell_angle_gamma   89.99999226
_symmetry_Int_Tables_number   1
_chemical_formula_structural   Cu2Mo3H4C4(NO5)2
_chemical_formula_sum   'Cu8 Mo12 H16 C16 N8 O40'
_cell_volume   1203.93189702
_cell_formula_units_Z   4
loop_
 _symmetry_equiv_pos_site_id
 _symmetry_equiv_pos_as_xyz
  1  'x, y, z'
loop_
 _atom_site_type_symbol
 _atom_site_label
 _atom_site_symmetry_multiplicity
 _atom_site_fract_x
 _atom_site_fract_y
 _atom_site_fract_z
 _atom_site_occupancy
 _atom_site_hle17_bader_spin_density
 _atom_site_hle17_ddec_charge
 _atom_site_hle17_ddec_spin_density
 _atom_site_hle17_ddec_sum_bond_order
 _atom_site_hle17_magmom
 _atom_site_hse06_10hf_bader_spin_density
 _atom_site_hse06_10hf_ddec_charge
 _atom_site_hse06_10hf_ddec_spin_density
 _atom_site_hse06_10hf_ddec_sum_bond_order
 _atom_site_hse06_10hf_magmom
 _atom_site_hse06_bader_spin_density
 _atom_site_hse06_ddec_charge
 _atom_site_hse06_ddec_spin_density
 _atom_site_hse06_ddec_sum_bond_order
 _atom_site_hse06_magmom
 _atom_site_pbe_bader_spin_density
 _atom_site_pbe_cm5_charge
 _atom_site_pbe_ddec_charge
 _atom_site_pbe_ddec_spin_density
 _atom_site_pbe_ddec_sum_bond_order
 _atom_site_pbe_magmom
Cu  Cu0  1  0.24999981  0.76912051  0.78653876  1  0  0.843364  0  1.687993  0  0  0.7603  0  2.160257  0  0  0.741084  0  2.118343  0  0  0.595476  0.774759  0  2.186714  0
Cu  Cu1  1  0.75000035  0.73088062  0.28653970  1  0  0.843368  0  1.688055  0  0  0.760401  0  2.160257  0  0  0.741192  0  2.118346  0  0  0.59554  0.774871  0  2.186721  0
Cu  Cu2  1  0.75000038  0.23088062  0.21346150  1  0  0.843367  0  1.687981  0  0  0.760312  0  2.160243  0  0  0.7411  0  2.118317  0  0  0.595473  0.774768  0  2.186702  0
Cu  Cu3  1  0.24999985  0.26912051  0.71346134  1  0  0.843402  0  1.68805  0  0  0.760349  0  2.160322  0  0  0.74115  0  2.118397  0  0  0.595508  0.77482  0  2.186785  0
Cu  Cu4  1  0.24999968  0.38987524  0.17340511  1  0  0.861642  0  1.769446  0  0  0.781867  0  2.264576  0  0  0.765402  0  2.218566  0  0  0.60119  0.793688  0  2.29398  0
Cu  Cu5  1  0.75000052  0.11012182  0.67340570  1  0  0.861741  0  1.769466  0  0  0.78199  0  2.26456  0  0  0.765527  0  2.218541  0  0  0.601248  0.793789  0  2.293956  0
Cu  Cu6  1  0.75000051  0.61012508  0.82659358  1  0  0.86161  0  1.769459  0  0  0.78183  0  2.264598  0  0  0.765375  0  2.21857  0  0  0.601166  0.793647  0  2.293995  0
Cu  Cu7  1  0.24999967  0.88987931  0.32659534  1  0  0.861707  0  1.769432  0  0  0.781969  0  2.264523  0  0  0.765513  0  2.218495  0  0  0.601252  0.793766  0  2.293917  0
Mo  Mo8  1  0.24999975  0.66366890  0.51539785  1  0  2.209953  0  4.059205  0  0  2.212002  0  4.579538  0  0  2.308253  0  4.55028  0  0  1.492785  2.140952  0  4.606244  0
Mo  Mo9  1  0.75000026  0.83633281  0.01539810  1  0  2.210023  0  4.059441  0  0  2.212043  0  4.579814  0  0  2.308302  0  4.550543  0  0  1.492732  2.140998  0  4.606521  0
Mo  Mo10  1  0.74999913  0.33633223  0.48460240  1  0  2.209976  0  4.059181  0  0  2.212008  0  4.579522  0  0  2.308258  0  4.550263  0  0  1.492772  2.140958  0  4.606223  0
Mo  Mo11  1  0.25000125  0.16366751  0.98460216  1  0  2.210055  0  4.059352  0  0  2.212112  0  4.579684  0  0  2.308356  0  4.550429  0  0  1.492769  2.141062  0  4.606397  0
Mo  Mo12  1  0.99895083  0.98699915  0.86301823  1  0  2.248158  0  3.951944  0  0  2.259031  0  4.450853  0  0  2.358773  0  4.418896  0  0  1.495607  2.182303  0  4.485282  0
Mo  Mo13  1  0.00104937  0.51299962  0.36301806  1  0  2.248188  0  3.951864  0  0  2.259062  0  4.450784  0  0  2.358804  0  4.418825  0  0  1.495621  2.18234  0  4.485219  0
Mo  Mo14  1  0.49895007  0.01300034  0.13698129  1  0  2.248164  0  3.951913  0  0  2.259031  0  4.450834  0  0  2.358777  0  4.418873  0  0  1.495589  2.182306  0  4.485263  0
Mo  Mo15  1  0.50104881  0.48700153  0.63698293  1  0  2.248135  0  3.951986  0  0  2.25898  0  4.45092  0  0  2.358733  0  4.418949  0  0  1.495576  2.18226  0  4.485348  0
Mo  Mo16  1  0.00104805  0.01299956  0.13698203  1  0  2.248146  0  3.951919  0  0  2.259014  0  4.450834  0  0  2.358759  0  4.418875  0  0  1.495595  2.182288  0  4.485258  0
Mo  Mo17  1  0.99895082  0.48700070  0.63698141  1  0  2.248179  0  3.951873  0  0  2.259037  0  4.450793  0  0  2.358785  0  4.418833  0  0  1.495594  2.182316  0  4.485225  0
Mo  Mo18  1  0.50105144  0.98699917  0.86301818  1  0  2.248185  0  3.951857  0  0  2.259052  0  4.450766  0  0  2.358793  0  4.418806  0  0  1.495633  2.182326  0  4.485197  0
Mo  Mo19  1  0.49894876  0.51299960  0.36301733  1  0  2.248093  0  3.952033  0  0  2.25894  0  4.450967  0  0  2.358697  0  4.418989  0  0  1.495545  2.18222  0  4.485398  0
H  H20  1  0.25000116  0.53227180  0.80385899  1  0  0.083898  0  1.000294  0  0  0.083862  0  1.075471  0  0  0.085322  0  1.074698  0  0  0.117024  0.082666  0  1.076189  0
H  H21  1  0.75000164  0.96772773  0.30385935  1  0  0.083883  0  1.000146  0  0  0.083862  0  1.075333  0  0  0.085319  0  1.074561  0  0  0.117027  0.082666  0  1.076053  0
H  H22  1  0.75000166  0.46772933  0.19614126  1  0  0.083908  0  1.000263  0  0  0.083866  0  1.075448  0  0  0.085324  0  1.074675  0  0  0.117033  0.082669  0  1.076169  0
H  H23  1  0.24999856  0.03227259  0.69614170  1  0  0.083898  0  1.00016  0  0  0.083857  0  1.075364  0  0  0.085314  0  1.074592  0  0  0.117017  0.08267  0  1.076061  0
H  H24  1  0.24999859  0.39696744  0.94703643  1  0  0.09836  0  0.990774  0  0  0.103171  0  1.057932  0  0  0.105095  0  1.057227  0  0  0.11754  0.101627  0  1.058667  0
H  H25  1  0.75000046  0.10302823  0.44703884  1  0  0.098408  0  0.990724  0  0  0.103193  0  1.057876  0  0  0.105119  0  1.057162  0  0  0.117558  0.101641  0  1.058618  0
H  H26  1  0.75000030  0.60303126  0.05295990  1  0  0.098433  0  0.990695  0  0  0.103182  0  1.057892  0  0  0.105164  0  1.057118  0  0  0.117555  0.101631  0  1.05864  0
H  H27  1  0.24999842  0.89697209  0.55296220  1  0  0.098416  0  0.990727  0  0  0.103185  0  1.057903  0  0  0.105111  0  1.057193  0  0  0.117562  0.101657  0  1.058618  0
H  H28  1  0.24999965  0.64549545  0.16820284  1  0  0.111897  0  0.919366  0  0  0.119545  0  0.978499  0  0  0.121898  0  0.977238  0  0  0.130366  0.117613  0  0.979862  0
H  H29  1  0.74999913  0.85450074  0.66820520  1  0  0.111909  0  0.919379  0  0  0.119541  0  0.978499  0  0  0.121895  0  0.977239  0  0  0.130377  0.117603  0  0.979863  0
H  H30  1  0.75000185  0.35450245  0.83179663  1  0  0.111931  0  0.919413  0  0  0.11959  0  0.978539  0  0  0.121931  0  0.977275  0  0  0.130374  0.117654  0  0.979901  0
H  H31  1  0.24999844  0.14550039  0.33179819  1  0  0.111902  0  0.919424  0  0  0.119554  0  0.97855  0  0  0.121898  0  0.977283  0  0  0.130382  0.117615  0  0.979913  0
H  H32  1  0.25000091  0.78144319  0.02264856  1  0  0.12857  0  0.928276  0  0  0.13493  0  0.986055  0  0  0.138223  0  0.982943  0  0  0.127471  0.132164  0  0.988934  0
H  H33  1  0.75000041  0.71855206  0.52265003  1  0  0.12858  0  0.928271  0  0  0.134925  0  0.986055  0  0  0.138219  0  0.98294  0  0  0.127457  0.132157  0  0.988934  0
H  H34  1  0.74999797  0.21855390  0.97735169  1  0  0.12858  0  0.928281  0  0  0.134942  0  0.986063  0  0  0.138233  0  0.982953  0  0  0.127462  0.132175  0  0.988941  0
H  H35  1  0.24999978  0.28144826  0.47735180  1  0  0.128556  0  0.928306  0  0  0.134901  0  0.986093  0  0  0.138194  0  0.982979  0  0  0.12745  0.132133  0  0.988973  0
C  C36  1  0.24999986  0.55819656  0.88489667  1  0  0.098107  0  3.674171  0  0  0.072439  0  3.929033  0  0  0.075264  0  3.94481  0  0  0.049638  0.069957  0  3.91962  0
C  C37  1  0.75000166  0.94179981  0.38490170  1  0  0.098162  0  3.6741  0  0  0.072484  0  3.929053  0  0  0.075311  0  3.944849  0  0  0.049631  0.069992  0  3.919638  0
C  C38  1  0.75000033  0.44180215  0.11509967  1  0  0.098178  0  3.674234  0  0  0.072513  0  3.929064  0  0  0.075343  0  3.944851  0  0  0.049654  0.070045  0  3.919623  0
C  C39  1  0.24999722  0.05820051  0.61510012  1  0  0.098172  0  3.674124  0  0  0.072516  0  3.928986  0  0  0.075344  0  3.944779  0  0  0.049674  0.07003  0  3.91958  0
C  C40  1  0.24999989  0.48286198  0.96502749  1  0  0.07057  0  3.664913  0  0  0.04614  0  3.911725  0  0  0.047151  0  3.929537  0  0  0.044041  0.045151  0  3.900494  0
C  C41  1  0.75000047  0.01713693  0.46502434  1  0  0.070431  0  3.664885  0  0  0.046056  0  3.911725  0  0  0.047072  0  3.92953  0  0  0.044018  0.045072  0  3.900489  0
C  C42  1  0.75000161  0.51713511  0.03497120  1  0  0.070406  0  3.665127  0  0  0.046017  0  3.911981  0  0  0.046987  0  3.929767  0  0  0.044032  0.045027  0  3.900762  0
C  C43  1  0.24999972  0.98286339  0.53497514  1  0  0.070406  0  3.664956  0  0  0.046014  0  3.911805  0  0  0.047028  0  3.929612  0  0  0.043988  0.045009  0  3.900562  0
C  C44  1  0.24999963  0.61960782  0.08657449  1  0  0.095363  0  3.620121  0  0  0.070903  0  3.870195  0  0  0.070984  0  3.889322  0  0  0.060748  0.070288  0  3.85846  0
C  C45  1  0.75000041  0.88038911  0.58657216  1  0  0.095392  0  3.620476  0  0  0.071007  0  3.87043  0  0  0.071074  0  3.88958  0  0  0.060766  0.070395  0  3.858676  0
C  C46  1  0.74999925  0.38038927  0.91342342  1  0  0.095336  0  3.620137  0  0  0.070878  0  3.870191  0  0  0.070976  0  3.8893  0  0  0.060803  0.070264  0  3.858449  0
C  C47  1  0.24999847  0.11961444  0.41342574  1  0  0.095416  0  3.620222  0  0  0.07096  0  3.870266  0  0  0.071066  0  3.889362  0  0  0.060781  0.070347  0  3.858516  0
C  C48  1  0.25000092  0.69544694  0.00582710  1  0  0.101476  0  3.594664  0  0  0.074547  0  3.848896  0  0  0.076613  0  3.863938  0  0  0.060229  0.072381  0  3.84053  0
C  C49  1  0.75000040  0.80455234  0.50583099  1  0  0.101286  0  3.594797  0  0  0.074415  0  3.849009  0  0  0.076499  0  3.864041  0  0  0.060227  0.072246  0  3.840632  0
C  C50  1  0.74999797  0.30455338  0.99417238  1  0  0.10139  0  3.594776  0  0  0.074436  0  3.849  0  0  0.07651  0  3.864034  0  0  0.060187  0.07227  0  3.840632  0
C  C51  1  0.24999848  0.19544717  0.49417241  1  0  0.101388  0  3.594775  0  0  0.074509  0  3.848946  0  0  0.076572  0  3.864012  0  0  0.060217  0.072342  0  3.840576  0
N  N52  1  0.25000117  0.66535383  0.90387456  1  0  -0.282571  0  3.314781  0  0  -0.229163  0  3.635302  0  0  -0.231127  0  3.638159  0  0  -0.338628  -0.228391  0  3.633876  0
N  N53  1  0.75000168  0.83464497  0.40387245  1  0  -0.282404  0  3.314479  0  0  -0.229156  0  3.635135  0  0  -0.23114  0  3.638012  0  0  -0.33866  -0.228369  0  3.633699  0
N  N54  1  0.74999771  0.33464568  0.09612570  1  0  -0.28256  0  3.314738  0  0  -0.229137  0  3.635229  0  0  -0.231112  0  3.638095  0  0  -0.338642  -0.22837  0  3.63381  0
N  N55  1  0.24999851  0.16535616  0.59612703  1  0  -0.282508  0  3.314622  0  0  -0.22916  0  3.635165  0  0  -0.231145  0  3.638043  0  0  -0.338646  -0.228387  0  3.633744  0
N  N56  1  0.24999964  0.51253773  0.06688355  1  0  -0.295222  0  3.320722  0  0  -0.24227  0  3.626575  0  0  -0.2463  0  3.635428  0  0  -0.333892  -0.239794  0  3.620661  0
N  N57  1  0.75000040  0.98745676  0.56688602  1  0  -0.295198  0  3.320549  0  0  -0.242299  0  3.62639  0  0  -0.246324  0  3.635242  0  0  -0.333952  -0.239818  0  3.620454  0
N  N58  1  0.75000186  0.48746098  0.93311671  1  0  -0.29512  0  3.32064  0  0  -0.242161  0  3.626447  0  0  -0.246196  0  3.635316  0  0  -0.333913  -0.239684  0  3.620527  0
N  N59  1  0.24999849  0.01254275  0.43311659  1  0  -0.295222  0  3.32049  0  0  -0.242306  0  3.626343  0  0  -0.246335  0  3.635194  0  0  -0.333968  -0.239824  0  3.620413  0
O  O60  1  0.24999979  0.51633940  0.61518817  1  0  -1.03836  0  2.003193  0  0  -1.026059  0  2.307186  0  0  -1.071306  0  2.305303  0  0  -0.628146  -0.990723  0  2.308555  0
O  O61  1  0.75000027  0.98366158  0.11518775  1  0  -1.038329  0  2.003161  0  0  -1.026045  0  2.307197  0  0  -1.071272  0  2.305256  0  0  -0.628134  -0.990707  0  2.308565  0
O  O62  1  0.75000040  0.48366173  0.38481131  1  0  -1.038307  0  2.003084  0  0  -1.026032  0  2.307129  0  0  -1.07126  0  2.305198  0  0  -0.628141  -0.990696  0  2.308499  0
O  O63  1  0.24999992  0.01633631  0.88481251  1  0  -1.038309  0  2.003113  0  0  -1.02604  0  2.307151  0  0  -1.071259  0  2.30521  0  0  -0.628108  -0.9907  0  2.30852  0
O  O64  1  0.48741275  0.60734875  0.50980483  1  0  -0.976758  0  1.725029  0  0  -0.971043  0  2.011397  0  0  -1.011139  0  2.005236  0  0  -0.5961  -0.939587  0  2.015313  0
O  O65  1  0.51258726  0.89265053  0.00980507  1  0  -0.976769  0  1.725055  0  0  -0.971062  0  2.011435  0  0  -1.011164  0  2.005273  0  0  -0.596109  -0.939608  0  2.015354  0
O  O66  1  0.98741343  0.39265235  0.49019547  1  0  -0.976798  0  1.725088  0  0  -0.971091  0  2.011461  0  0  -1.011185  0  2.005302  0  0  -0.596117  -0.939629  0  2.015365  0
O  O67  1  0.01258826  0.10734820  0.99019514  1  0  -0.976786  0  1.725097  0  0  -0.971081  0  2.011465  0  0  -1.011182  0  2.005308  0  0  -0.596123  -0.939621  0  2.015374  0
O  O68  1  0.51258745  0.39265157  0.49019543  1  0  -0.976776  0  1.725054  0  0  -0.971066  0  2.011427  0  0  -1.011163  0  2.00527  0  0  -0.596115  -0.939606  0  2.015334  0
O  O69  1  0.48741294  0.10734818  0.99019518  1  0  -0.976819  0  1.725137  0  0  -0.971111  0  2.011508  0  0  -1.01121  0  2.005351  0  0  -0.596122  -0.939652  0  2.015421  0
O  O70  1  0.01258676  0.60734877  0.50980478  1  0  -0.97678  0  1.725049  0  0  -0.971073  0  2.01142  0  0  -1.011168  0  2.005259  0  0  -0.59611  -0.939621  0  2.015341  0
O  O71  1  0.98741193  0.89265131  0.00980512  1  0  -0.97681  0  1.725146  0  0  -0.971098  0  2.011525  0  0  -1.011202  0  2.005364  0  0  -0.596129  -0.939638  0  2.015431  0
O  O72  1  0.24999973  0.53770537  0.39161861  1  0  -1.023864  0  2.00322  0  0  -1.01169  0  2.305765  0  0  -1.058242  0  2.305694  0  0  -0.629402  -0.975301  0  2.305435  0
O  O73  1  0.75000049  0.96229746  0.89162106  1  0  -1.023828  0  2.003152  0  0  -1.011673  0  2.305756  0  0  -1.058187  0  2.305598  0  0  -0.629388  -0.975288  0  2.305436  0
O  O74  1  0.75000047  0.46229737  0.60838008  1  0  -1.023839  0  2.003162  0  0  -1.011638  0  2.305668  0  0  -1.058199  0  2.305624  0  0  -0.629376  -0.975254  0  2.305347  0
O  O75  1  0.24999970  0.03770125  0.10837998  1  0  -1.023847  0  2.00319  0  0  -1.011645  0  2.305675  0  0  -1.058207  0  2.305639  0  0  -0.629372  -0.975261  0  2.305359  0
O  O76  1  0.24999977  0.73728245  0.63243799  1  0  -0.765213  0  1.700652  0  0  -0.743042  0  2.014909  0  0  -0.762514  0  1.996148  0  0  -0.54439  -0.729094  0  2.028316  0
O  O77  1  0.75000030  0.76271693  0.13243896  1  0  -0.765312  0  1.700714  0  0  -0.743121  0  2.01493  0  0  -0.762598  0  1.996159  0  0  -0.544382  -0.729176  0  2.028342  0
O  O78  1  0.74999911  0.26271868  0.36756148  1  0  -0.765247  0  1.700681  0  0  -0.743055  0  2.014912  0  0  -0.762523  0  1.996142  0  0  -0.544385  -0.729101  0  2.02831  0
O  O79  1  0.25000121  0.23728339  0.86756130  1  0  -0.765286  0  1.700679  0  0  -0.743109  0  2.014929  0  0  -0.762568  0  1.996136  0  0  -0.544382  -0.729166  0  2.028343  0
O  O80  1  0.24999967  0.26291878  0.08288279  1  0  -0.794969  0  1.726006  0  0  -0.781493  0  2.068787  0  0  -0.79992  0  2.047531  0  0  -0.556405  -0.768009  0  2.083783  0
O  O81  1  0.74999917  0.23707497  0.58288191  1  0  -0.795009  0  1.725918  0  0  -0.781518  0  2.068667  0  0  -0.799945  0  2.047414  0  0  -0.556457  -0.768031  0  2.083655  0
O  O82  1  0.75000052  0.73707912  0.91711825  1  0  -0.794948  0  1.725989  0  0  -0.781437  0  2.068741  0  0  -0.79988  0  2.047493  0  0  -0.556387  -0.767953  0  2.083731  0
O  O83  1  0.24999971  0.76292697  0.41711913  1  0  -0.795017  0  1.725949  0  0  -0.781527  0  2.068695  0  0  -0.799958  0  2.047445  0  0  -0.556488  -0.768041  0  2.083689  0
O  O84  1  0.04926605  0.87219380  0.78897524  1  0  -0.746924  0  1.663963  0  0  -0.733186  0  1.977415  0  0  -0.748753  0  1.956638  0  0  -0.537057  -0.721034  0  1.992821  0
O  O85  1  0.95073279  0.62780733  0.28897535  1  0  -0.746903  0  1.663881  0  0  -0.733186  0  1.977317  0  0  -0.748753  0  1.956543  0  0  -0.537048  -0.72104  0  1.992733  0
O  O86  1  0.54926664  0.12780573  0.21102498  1  0  -0.746913  0  1.663917  0  0  -0.733182  0  1.97737  0  0  -0.748749  0  1.956588  0  0  -0.537039  -0.721029  0  1.992773  0
O  O87  1  0.45073358  0.37219458  0.71102573  1  0  -0.746934  0  1.663899  0  0  -0.7332  0  1.977348  0  0  -0.748769  0  1.956571  0  0  -0.53706  -0.721054  0  1.992761  0
O  O88  1  0.95073283  0.12780491  0.21102502  1  0  -0.746893  0  1.663915  0  0  -0.733173  0  1.977385  0  0  -0.748741  0  1.956604  0  0  -0.537042  -0.721022  0  1.992789  0
O  O89  1  0.04926740  0.37219460  0.71102491  1  0  -0.746934  0  1.663915  0  0  -0.733211  0  1.97738  0  0  -0.748778  0  1.956601  0  0  -0.537058  -0.721063  0  1.99279  0
O  O90  1  0.45073486  0.87219378  0.78897528  1  0  -0.746918  0  1.663931  0  0  -0.733179  0  1.977383  0  0  -0.748747  0  1.956607  0  0  -0.537067  -0.721026  0  1.992787  0
O  O91  1  0.54926661  0.62780654  0.28897531  1  0  -0.746888  0  1.663892  0  0  -0.733158  0  1.977329  0  0  -0.748728  0  1.956553  0  0  -0.537038  -0.721014  0  1.992746  0
O  O92  1  0.05375708  0.41439213  0.26921054  1  0  -0.776008  0  1.724114  0  0  -0.76781  0  2.063701  0  0  -0.781851  0  2.03957  0  0  -0.545261  -0.756665  0  2.081357  0
O  O93  1  0.94624449  0.08560904  0.76920958  1  0  -0.776018  0  1.724097  0  0  -0.767822  0  2.063691  0  0  -0.781868  0  2.039564  0  0  -0.545265  -0.756672  0  2.08134  0
O  O94  1  0.55375655  0.58560982  0.73079046  1  0  -0.775968  0  1.724253  0  0  -0.767767  0  2.063863  0  0  -0.78181  0  2.039731  0  0  -0.545231  -0.756622  0  2.081516  0
O  O95  1  0.44624489  0.91438965  0.23078993  1  0  -0.77598  0  1.724043  0  0  -0.767801  0  2.063635  0  0  -0.781844  0  2.03951  0  0  -0.545238  -0.756651  0  2.081286  0
O  O96  1  0.94624705  0.58561061  0.73078893  1  0  -0.775993  0  1.724057  0  0  -0.7678  0  2.06366  0  0  -0.781841  0  2.039527  0  0  -0.545241  -0.756651  0  2.081311  0
O  O97  1  0.05375571  0.91438966  0.23078989  1  0  -0.776008  0  1.724075  0  0  -0.767827  0  2.063666  0  0  -0.781867  0  2.03954  0  0  -0.545273  -0.756676  0  2.081316  0
O  O98  1  0.44624364  0.41439050  0.26920901  1  0  -0.775957  0  1.724217  0  0  -0.767734  0  2.063792  0  0  -0.78178  0  2.039661  0  0  -0.545202  -0.75659  0  2.081447  0
O  O99  1  0.55375661  0.08560906  0.76920955  1  0  -0.776039  0  1.724086  0  0  -0.767833  0  2.063664  0  0  -0.781879  0  2.039538  0  0  -0.545274  -0.756684  0  2.081312  0
