# generated using pymatgen
data_CdH16C17O7
_symmetry_space_group_name_H-M   'P 1'
_cell_length_a   6.05860918
_cell_length_b   9.46234521
_cell_length_c   15.22165385
_cell_angle_alpha   97.36869586
_cell_angle_beta   90.08189512
_cell_angle_gamma   108.62750714
_symmetry_Int_Tables_number   1
_chemical_formula_structural   CdH16C17O7
_chemical_formula_sum   'Cd2 H32 C34 O14'
_cell_volume   819.25981201
_cell_formula_units_Z   2
loop_
 _symmetry_equiv_pos_site_id
 _symmetry_equiv_pos_as_xyz
  1  'x, y, z'
loop_
 _atom_site_type_symbol
 _atom_site_label
 _atom_site_symmetry_multiplicity
 _atom_site_fract_x
 _atom_site_fract_y
 _atom_site_fract_z
 _atom_site_occupancy
 _atom_site_hle17_bader_spin_density
 _atom_site_hle17_ddec_charge
 _atom_site_hle17_ddec_spin_density
 _atom_site_hle17_ddec_sum_bond_order
 _atom_site_hle17_magmom
 _atom_site_hse06_10hf_bader_spin_density
 _atom_site_hse06_10hf_ddec_charge
 _atom_site_hse06_10hf_ddec_spin_density
 _atom_site_hse06_10hf_ddec_sum_bond_order
 _atom_site_hse06_10hf_magmom
 _atom_site_hse06_bader_spin_density
 _atom_site_hse06_ddec_charge
 _atom_site_hse06_ddec_spin_density
 _atom_site_hse06_ddec_sum_bond_order
 _atom_site_hse06_magmom
 _atom_site_pbe_bader_spin_density
 _atom_site_pbe_cm5_charge
 _atom_site_pbe_ddec_charge
 _atom_site_pbe_ddec_spin_density
 _atom_site_pbe_ddec_sum_bond_order
 _atom_site_pbe_magmom
Cd  Cd0  1  0.50547615  0.55220512  0.93708577  1  0  1.250195  0  1.571839  0  0  1.07007  0  2.014151  0  0  1.13213  0  1.953125  0  0  0.780195  1.026141  0  2.055916  0
Cd  Cd1  1  0.95379538  0.44768096  0.06308096  1  0  1.250819  0  1.571099  0  0  1.07082  0  2.013434  0  0  1.132885  0  1.952287  0  0  0.78038  1.026359  0  2.055595  0
H  H2  1  0.89738421  0.92779029  0.23060241  1  0  0.098953  0  0.947697  0  0  0.110235  0  1.006549  0  0  0.113658  0  1.004248  0  0  0.107439  0.107779  0  1.008032  0
H  H3  1  0.96973550  0.07202933  0.76896874  1  0  0.098961  0  0.947431  0  0  0.110314  0  1.006117  0  0  0.113685  0  1.00387  0  0  0.107216  0.10787  0  1.007807  0
H  H4  1  0.02468628  0.14422976  0.35173557  1  0  0.094626  0  0.969115  0  0  0.102544  0  1.035597  0  0  0.10569  0  1.033964  0  0  0.101265  0.100605  0  1.036343  0
H  H5  1  0.88157134  0.85566074  0.64776990  1  0  0.094591  0  0.96783  0  0  0.102878  0  1.033784  0  0  0.106049  0  1.032076  0  0  0.101193  0.100476  0  1.035461  0
H  H6  1  0.63602777  0.02585268  0.40646933  1  0  0.092944  0  0.950977  0  0  0.105206  0  1.009623  0  0  0.108311  0  1.008526  0  0  0.101722  0.102948  0  1.010532  0
H  H7  1  0.61129202  0.97477797  0.59410330  1  0  0.092649  0  0.951656  0  0  0.105343  0  1.009858  0  0  0.108364  0  1.008862  0  0  0.101777  0.103287  0  1.010499  0
H  H8  1  0.50434281  0.80791018  0.28586783  1  0  0.096355  0  0.962706  0  0  0.105209  0  1.029321  0  0  0.108182  0  1.027376  0  0  0.104019  0.103294  0  1.030333  0
H  H9  1  0.69653034  0.19268699  0.71464531  1  0  0.096712  0  0.964409  0  0  0.10607  0  1.03015  0  0  0.108947  0  1.028351  0  0  0.104422  0.104052  0  1.031438  0
H  H10  1  0.54256072  0.21319130  0.50563897  1  0  0.053407  0  0.93992  0  0  0.065868  0  1.009017  0  0  0.066233  0  1.008185  0  0  0.099976  0.065601  0  1.00958  0
H  H11  1  0.33155124  0.78761947  0.49451115  1  0  0.053896  0  0.940294  0  0  0.066357  0  1.008987  0  0  0.066714  0  1.008123  0  0  0.10009  0.065992  0  1.009806  0
H  H12  1  0.52593300  0.33415465  0.42671939  1  0  0.055839  0  0.958093  0  0  0.066986  0  1.028765  0  0  0.065592  0  1.031707  0  0  0.098076  0.068035  0  1.026594  0
H  H13  1  0.19508245  0.66638826  0.57333562  1  0  0.054884  0  0.959946  0  0  0.066362  0  1.030039  0  0  0.064887  0  1.033052  0  0  0.097388  0.066852  0  1.028996  0
H  H14  1  0.91699251  0.30356666  0.60149920  1  0  0.102454  0  0.956534  0  0  0.113794  0  1.018946  0  0  0.117286  0  1.016708  0  0  0.10218  0.111445  0  1.020447  0
H  H15  1  0.61540139  0.69611325  0.39811062  1  0  0.102584  0  0.956193  0  0  0.114096  0  1.018474  0  0  0.11758  0  1.016246  0  0  0.102354  0.111722  0  1.019896  0
H  H16  1  0.97441491  0.47923503  0.74173325  1  0  0.124627  0  0.947694  0  0  0.134517  0  1.00919  0  0  0.138031  0  1.006784  0  0  0.108862  0.132047  0  1.010756  0
H  H17  1  0.49699939  0.52020274  0.25798006  1  0  0.124228  0  0.946717  0  0  0.133737  0  1.008621  0  0  0.137172  0  1.006326  0  0  0.108251  0.131188  0  1.010459  0
H  H18  1  0.71354222  0.63407045  0.70399000  1  0  0.112069  0  0.94459  0  0  0.122657  0  1.006509  0  0  0.126087  0  1.004018  0  0  0.107229  0.120056  0  1.008674  0
H  H19  1  0.08297332  0.36643552  0.29581537  1  0  0.111192  0  0.945082  0  0  0.121681  0  1.00749  0  0  0.125183  0  1.004905  0  0  0.106944  0.119438  0  1.008938  0
H  H20  1  0.65723362  0.45813256  0.56407088  1  0  0.103064  0  0.976805  0  0  0.112356  0  1.041866  0  0  0.115293  0  1.040959  0  0  0.100841  0.110377  0  1.042419  0
H  H21  1  0.20271283  0.54264894  0.43567666  1  0  0.103481  0  0.976872  0  0  0.1124  0  1.042364  0  0  0.115294  0  1.041522  0  0  0.100765  0.110254  0  1.043202  0
H  H22  1  0.15028169  0.76018437  0.77991448  1  0  0.055201  0  0.945226  0  0  0.061848  0  1.011904  0  0  0.062504  0  1.012584  0  0  0.106685  0.061317  0  1.011818  0
H  H23  1  0.39235771  0.23956494  0.22020584  1  0  0.054647  0  0.944417  0  0  0.062185  0  1.011239  0  0  0.062818  0  1.011975  0  0  0.107032  0.06157  0  1.011094  0
H  H24  1  0.51621396  0.96128563  0.84314318  1  0  0.116278  0  0.955964  0  0  0.134963  0  1.020292  0  0  0.136743  0  1.020109  0  0  0.089717  0.13378  0  1.020255  0
H  H25  1  0.55614031  0.03810838  0.15694024  1  0  0.115017  0  0.956601  0  0  0.1336  0  1.021278  0  0  0.135409  0  1.021025  0  0  0.089838  0.132657  0  1.020705  0
H  H26  1  0.48366050  0.88485938  0.94535464  1  0  0.132211  0  0.954506  0  0  0.152982  0  1.01318  0  0  0.154913  0  1.012566  0  0  0.096746  0.151488  0  1.013748  0
H  H27  1  0.59943312  0.11445061  0.05471113  1  0  0.131528  0  0.955019  0  0  0.152417  0  1.013463  0  0  0.154357  0  1.01285  0  0  0.096422  0.150931  0  1.014013  0
H  H28  1  0.27559557  0.96557690  0.90945555  1  0  0.122947  0  0.930227  0  0  0.146484  0  0.983551  0  0  0.147629  0  0.984113  0  0  0.098319  0.145655  0  0.983193  0
H  H29  1  0.31099399  0.03419454  0.09065426  1  0  0.122063  0  0.92957  0  0  0.14555  0  0.983164  0  0  0.146699  0  0.983695  0  0  0.097784  0.144611  0  0.982911  0
H  H30  1  0.45922359  0.71371513  0.09643243  1  0  0.411508  0  0.898525  0  0  0.38081  0  0.962905  0  0  0.390932  0  0.948436  0  0  0.285098  0.373726  0  0.972954  0
H  H31  1  0.74565424  0.28626965  0.90371445  1  0  0.41141  0  0.898596  0  0  0.381287  0  0.961891  0  0  0.391371  0  0.947498  0  0  0.285493  0.374164  0  0.972013  0
H  H32  1  0.72595336  0.74885264  0.08427708  1  0  0.431549  0  0.868469  0  0  0.402019  0  0.929496  0  0  0.413161  0  0.913285  0  0  0.290726  0.394117  0  0.940941  0
H  H33  1  0.97723811  0.25095245  0.91591546  1  0  0.43169  0  0.86818  0  0  0.402101  0  0.929309  0  0  0.413232  0  0.913112  0  0  0.290638  0.394194  0  0.940784  0
C  C34  1  0.11639027  0.72224327  0.18010334  1  0  0.645221  0  3.914428  0  0  0.593437  0  4.202685  0  0  0.627198  0  4.198337  0  0  0.204782  0.570625  0  4.20479  0
C  C35  1  0.39372972  0.27778285  0.82002864  1  0  0.646939  0  3.912753  0  0  0.595148  0  4.200655  0  0  0.628902  0  4.196328  0  0  0.205483  0.572124  0  4.203041  0
C  C36  1  0.19274378  0.85396072  0.25124579  1  0  -0.071085  0  3.767577  0  0  -0.047699  0  4.000085  0  0  -0.057062  0  4.024851  0  0  -0.01808  -0.041666  0  3.983542  0
C  C37  1  0.33880838  0.14623405  0.74878265  1  0  -0.072602  0  3.769146  0  0  -0.048593  0  4.000437  0  0  -0.057927  0  4.025125  0  0  -0.018417  -0.041869  0  3.984059  0
C  C38  1  0.05806512  0.94919032  0.26986872  1  0  -0.047086  0  3.717101  0  0  -0.069778  0  3.962957  0  0  -0.068715  0  3.982889  0  0  -0.075333  -0.070112  0  3.949047  0
C  C39  1  0.10918364  0.05082666  0.72986511  1  0  -0.046319  0  3.716721  0  0  -0.069404  0  3.962413  0  0  -0.068256  0  3.982339  0  0  -0.074598  -0.069771  0  3.948555  0
C  C40  1  0.13029049  0.07078002  0.33717467  1  0  -0.119317  0  3.729162  0  0  -0.13938  0  3.979545  0  0  -0.143161  0  3.999134  0  0  -0.090387  -0.136926  0  3.965765  0
C  C41  1  0.06039237  0.92928596  0.66253564  1  0  -0.119518  0  3.727603  0  0  -0.139808  0  3.977858  0  0  -0.143624  0  3.997423  0  0  -0.090571  -0.137379  0  3.964506  0
C  C42  1  0.33898698  0.09982980  0.38670081  1  0  0.085108  0  3.732646  0  0  0.101885  0  3.97132  0  0  0.10357  0  3.993853  0  0  -0.006082  0.100843  0  3.956082  0
C  C43  1  0.24038390  0.90047568  0.61330756  1  0  0.086598  0  3.731974  0  0  0.103831  0  3.969792  0  0  0.105541  0  3.992283  0  0  -0.005535  0.102228  0  3.95521  0
C  C44  1  0.47363213  0.00454682  0.36795294  1  0  -0.131791  0  3.7473  0  0  -0.148513  0  3.99359  0  0  -0.1542  0  4.016499  0  0  -0.092207  -0.144739  0  3.978049  0
C  C45  1  0.47000102  0.99599622  0.63235135  1  0  -0.132012  0  3.747091  0  0  -0.14956  0  3.993861  0  0  -0.155251  0  4.016894  0  0  -0.09207  -0.145266  0  3.977995  0
C  C46  1  0.40114358  0.88273672  0.30085418  1  0  -0.060758  0  3.743627  0  0  -0.086868  0  3.99592  0  0  -0.085493  0  4.016357  0  0  -0.081888  -0.087743  0  3.981835  0
C  C47  1  0.51870913  0.11774807  0.69943857  1  0  -0.061289  0  3.74647  0  0  -0.088018  0  3.998592  0  0  -0.08663  0  4.019075  0  0  -0.08292  -0.089189  0  3.984563  0
C  C48  1  0.42565521  0.23388194  0.45684011  1  0  0.052559  0  3.651715  0  0  -0.010146  0  3.911198  0  0  -0.002054  0  3.915948  0  0  -0.061054  -0.015624  0  3.907702  0
C  C49  1  0.19398372  0.76649898  0.54317526  1  0  0.051842  0  3.654653  0  0  -0.010323  0  3.912899  0  0  -0.002074  0  3.917527  0  0  -0.061113  -0.015972  0  3.910447  0
C  C50  1  0.28088205  0.36783365  0.57403053  1  0  0.249467  0  3.837469  0  0  0.23989  0  4.098676  0  0  0.249928  0  4.115728  0  0  0.071868  0.232612  0  4.08783  0
C  C51  1  0.91559169  0.63213368  0.42573804  1  0  0.250455  0  3.839172  0  0  0.241111  0  4.100436  0  0  0.251234  0  4.117426  0  0  0.07255  0.234141  0  4.088764  0
C  C52  1  0.09088728  0.37848327  0.62375835  1  0  -0.164934  0  3.759878  0  0  -0.186854  0  4.018131  0  0  -0.19081  0  4.036693  0  0  -0.105524  -0.184602  0  4.006765  0
C  C53  1  0.71461749  0.62128357  0.37593770  1  0  -0.166639  0  3.761153  0  0  -0.188965  0  4.020064  0  0  -0.192919  0  4.038551  0  0  -0.106469  -0.186305  0  4.007395  0
C  C54  1  0.12396999  0.47857237  0.70202474  1  0  -0.162528  0  3.748953  0  0  -0.184771  0  4.007838  0  0  -0.186188  0  4.025576  0  0  -0.102774  -0.183547  0  3.996387  0
C  C55  1  0.64750039  0.52104849  0.29773206  1  0  -0.161682  0  3.746983  0  0  -0.183096  0  4.006161  0  0  -0.184547  0  4.024001  0  0  -0.102236  -0.182258  0  3.994287  0
C  C56  1  0.35044226  0.57050501  0.73001508  1  0  0.234401  0  3.813178  0  0  0.223035  0  4.079843  0  0  0.230793  0  4.097154  0  0  0.061911  0.217304  0  4.06847  0
C  C57  1  0.78225850  0.42922225  0.26984065  1  0  0.23443  0  3.809767  0  0  0.222346  0  4.076917  0  0  0.229985  0  4.09423  0  0  0.062113  0.217076  0  4.065288  0
C  C58  1  0.53932762  0.56251696  0.67985579  1  0  -0.136257  0  3.757028  0  0  -0.15973  0  4.014626  0  0  -0.160707  0  4.031947  0  0  -0.100662  -0.159344  0  4.003672  0
C  C59  1  0.97985824  0.43771329  0.31996122  1  0  -0.135405  0  3.75562  0  0  -0.159065  0  4.014031  0  0  -0.160097  0  4.0314  0  0  -0.100721  -0.158544  0  4.002206  0
C  C60  1  0.50647047  0.46185070  0.60185138  1  0  -0.189414  0  3.776894  0  0  -0.20954  0  4.030743  0  0  -0.214267  0  4.051375  0  0  -0.112457  -0.206202  0  4.01715  0
C  C61  1  0.04774509  0.53852966  0.39792225  1  0  -0.189804  0  3.778192  0  0  -0.209552  0  4.03228  0  0  -0.214311  0  4.052986  0  0  -0.112143  -0.206441  0  4.018453  0
C  C62  1  0.24454633  0.74762206  0.83851431  1  0  0.1066  0  3.612246  0  0  0.088161  0  3.860026  0  0  0.09056  0  3.868189  0  0  0.00053  0.086162  0  3.854597  0
C  C63  1  0.49857859  0.25201944  0.16155203  1  0  0.109532  0  3.607085  0  0  0.088043  0  3.859501  0  0  0.090336  0  3.86771  0  0  -1.1e-05  0.086012  0  3.854544  0
C  C64  1  0.38973202  0.89958295  0.88736573  1  0  -0.339017  0  3.667604  0  0  -0.423647  0  3.90938  0  0  -0.426251  0  3.917692  0  0  -0.248433  -0.421548  0  3.903623  0
C  C65  1  0.49124658  0.09993009  0.11270086  1  0  -0.336503  0  3.666259  0  0  -0.420533  0  3.909009  0  0  -0.4232  0  3.917441  0  0  -0.247334  -0.418275  0  3.902796  0
C  C66  1  0.06626258  0.66287657  0.90074986  1  0  0.66777  0  3.835249  0  0  0.615837  0  4.131703  0  0  0.651263  0  4.123481  0  0  0.216018  0.591773  0  4.136415  0
C  C67  1  0.40434910  0.33690317  0.09939378  1  0  0.667859  0  3.832597  0  0  0.615485  0  4.131096  0  0  0.650796  0  4.123116  0  0  0.216624  0.591122  0  4.136296  0
O  O68  1  0.92552295  0.69347642  0.13590879  1  0  -0.651903  0  2.036507  0  0  -0.586773  0  2.270954  0  0  -0.616095  0  2.262447  0  0  -0.314371  -0.566347  0  2.276258  0
O  O69  1  0.23160435  0.30621396  0.86415592  1  0  -0.652415  0  2.034958  0  0  -0.587511  0  2.269432  0  0  -0.616772  0  2.260909  0  0  -0.314611  -0.567032  0  2.274902  0
O  O70  1  0.24483613  0.63748590  0.16586811  1  0  -0.667359  0  2.008983  0  0  -0.597333  0  2.242158  0  0  -0.627073  0  2.23411  0  0  -0.323926  -0.576525  0  2.246883  0
O  O71  1  0.60673558  0.36270221  0.83441623  1  0  -0.668517  0  2.009435  0  0  -0.599197  0  2.243099  0  0  -0.628969  0  2.235025  0  0  -0.324728  -0.577911  0  2.24775  0
O  O72  1  0.23037964  0.26119698  0.50036410  1  0  -0.287369  0  2.308813  0  0  -0.217345  0  2.541212  0  0  -0.234516  0  2.543209  0  0  -0.184956  -0.204948  0  2.539261  0
O  O73  1  0.97127066  0.73863219  0.49947846  1  0  -0.287175  0  2.310389  0  0  -0.218109  0  2.543123  0  0  -0.235404  0  2.545111  0  0  -0.185189  -0.205694  0  2.541201  0
O  O74  1  0.40548269  0.66781483  0.80940266  1  0  -0.338284  0  2.35506  0  0  -0.257679  0  2.589272  0  0  -0.27698  0  2.591248  0  0  -0.186848  -0.24384  0  2.5878  0
O  O75  1  0.73946358  0.33160159  0.19056696  1  0  -0.339292  0  2.352813  0  0  -0.256822  0  2.587335  0  0  -0.275799  0  2.588964  0  0  -0.186974  -0.243488  0  2.585973  0
O  O76  1  0.87384968  0.68659716  0.90147329  1  0  -0.611117  0  2.008712  0  0  -0.553055  0  2.260521  0  0  -0.581489  0  2.248022  0  0  -0.316703  -0.533111  0  2.268205  0
O  O77  1  0.18836038  0.31331523  0.09876145  1  0  -0.611655  0  2.009176  0  0  -0.553148  0  2.261563  0  0  -0.581582  0  2.249176  0  0  -0.317304  -0.533713  0  2.269698  0
O  O78  1  0.13182679  0.58095615  0.94914900  1  0  -0.689199  0  2.141536  0  0  -0.60659  0  2.413449  0  0  -0.640663  0  2.39898  0  0  -0.325276  -0.582726  0  2.422327  0
O  O79  1  0.55131284  0.41887094  0.05100489  1  0  -0.689585  0  2.140009  0  0  -0.606544  0  2.412573  0  0  -0.64071  0  2.398387  0  0  -0.32548  -0.582692  0  2.421438  0
O  O80  1  0.58188748  0.75046633  0.05373083  1  0  -0.827898  0  1.851339  0  0  -0.765077  0  2.029745  0  0  -0.789704  0  1.998661  0  0  -0.586661  -0.747356  0  2.050592  0
O  O81  1  0.83177021  0.24942101  0.94642633  1  0  -0.827636  0  1.850106  0  0  -0.764932  0  2.027825  0  0  -0.789629  0  1.996889  0  0  -0.58691  -0.747344  0  2.049186  0
