# generated using pymatgen
data_BaH9C8N3O5
_symmetry_space_group_name_H-M   'P 1'
_cell_length_a   7.03615048
_cell_length_b   9.73912686
_cell_length_c   9.73907529
_cell_angle_alpha   113.81772790
_cell_angle_beta   103.42400885
_cell_angle_gamma   103.42509225
_symmetry_Int_Tables_number   1
_chemical_formula_structural   BaH9C8N3O5
_chemical_formula_sum   'Ba2 H18 C16 N6 O10'
_cell_volume   552.59211537
_cell_formula_units_Z   2
loop_
 _symmetry_equiv_pos_site_id
 _symmetry_equiv_pos_as_xyz
  1  'x, y, z'
loop_
 _atom_site_type_symbol
 _atom_site_label
 _atom_site_symmetry_multiplicity
 _atom_site_fract_x
 _atom_site_fract_y
 _atom_site_fract_z
 _atom_site_occupancy
 _atom_site_hle17_bader_spin_density
 _atom_site_hle17_ddec_charge
 _atom_site_hle17_ddec_spin_density
 _atom_site_hle17_ddec_sum_bond_order
 _atom_site_hle17_magmom
 _atom_site_hse06_10hf_bader_spin_density
 _atom_site_hse06_10hf_ddec_charge
 _atom_site_hse06_10hf_ddec_spin_density
 _atom_site_hse06_10hf_ddec_sum_bond_order
 _atom_site_hse06_10hf_magmom
 _atom_site_hse06_bader_spin_density
 _atom_site_hse06_ddec_charge
 _atom_site_hse06_ddec_spin_density
 _atom_site_hse06_ddec_sum_bond_order
 _atom_site_hse06_magmom
 _atom_site_pbe_bader_spin_density
 _atom_site_pbe_cm5_charge
 _atom_site_pbe_ddec_charge
 _atom_site_pbe_ddec_spin_density
 _atom_site_pbe_ddec_sum_bond_order
 _atom_site_pbe_magmom
Ba  Ba0  1  0.39222426  0.52602995  0.37123428  1  0  1.619124  0  1.241003  0  0  1.459827  0  1.660074  0  0  1.50279  0  1.615314  0  0  0.974083  1.427115  0  1.693255  0
Ba  Ba1  1  0.89221980  0.37122858  0.52603378  1  0  1.619103  0  1.241004  0  0  1.459794  0  1.660093  0  0  1.502754  0  1.615333  0  0  0.974081  1.427078  0  1.693249  0
H  H2  1  0.82269702  0.48155814  0.89158806  1  0  0.3099  0  0.921111  0  0  0.284296  0  0.993929  0  0  0.295279  0  0.984018  0  0  0.310591  0.276221  0  1.001437  0
H  H3  1  0.32269045  0.89158954  0.48155703  1  0  0.309887  0  0.921162  0  0  0.284294  0  0.993983  0  0  0.295273  0  0.984075  0  0  0.310604  0.27622  0  1.001504  0
H  H4  1  0.85599290  0.50977984  0.16575648  1  0  0.097813  0  0.969823  0  0  0.1036  0  1.038307  0  0  0.107073  0  1.034331  0  0  0.142447  0.10094  0  1.041009  0
H  H5  1  0.35598470  0.16575751  0.50977684  1  0  0.097747  0  0.969945  0  0  0.103656  0  1.03831  0  0  0.107138  0  1.034306  0  0  0.142417  0.100986  0  1.041031  0
H  H6  1  0.89774652  0.23314345  0.01638145  1  0  0.045909  0  0.939951  0  0  0.053644  0  1.010842  0  0  0.055982  0  1.005196  0  0  0.128937  0.051889  0  1.014703  0
H  H7  1  0.39775020  0.01638478  0.23314307  1  0  0.045901  0  0.939905  0  0  0.053624  0  1.010821  0  0  0.055959  0  1.005177  0  0  0.128932  0.051869  0  1.014681  0
H  H8  1  0.85851729  0.99363787  0.21766512  1  0  0.115867  0  0.980742  0  0  0.130408  0  1.048419  0  0  0.131772  0  1.04843  0  0  0.117598  0.129455  0  1.048492  0
H  H9  1  0.35852074  0.21766888  0.99363950  1  0  0.115878  0  0.980678  0  0  0.13043  0  1.048348  0  0  0.131793  0  1.048359  0  0  0.117592  0.129471  0  1.048423  0
H  H10  1  0.85277945  0.82728525  0.04470928  1  0  0.09892  0  0.944771  0  0  0.120323  0  1.007038  0  0  0.120118  0  1.00828  0  0  0.105075  0.120343  0  1.006286  0
H  H11  1  0.35278039  0.04471220  0.82728405  1  0  0.09894  0  0.944735  0  0  0.120334  0  1.00701  0  0  0.120128  0  1.008253  0  0  0.10506  0.12035  0  1.006253  0
H  H12  1  0.61331234  0.84722325  0.06010130  1  0  0.097335  0  0.944111  0  0  0.116831  0  1.010546  0  0  0.116185  0  1.012478  0  0  0.106  0.117205  0  1.009385  0
H  H13  1  0.11331476  0.06010378  0.84722737  1  0  0.09733  0  0.944208  0  0  0.11684  0  1.010605  0  0  0.116194  0  1.012538  0  0  0.105999  0.117211  0  1.009447  0
H  H14  1  0.68949215  0.02339667  0.79312130  1  0  0.107382  0  0.941467  0  0  0.127483  0  1.004479  0  0  0.12844  0  1.003739  0  0  0.11422  0.126684  0  1.005189  0
H  H15  1  0.18948897  0.79312172  0.02339361  1  0  0.107414  0  0.941433  0  0  0.127512  0  1.004448  0  0  0.12847  0  1.003707  0  0  0.114218  0.126713  0  1.005161  0
H  H16  1  0.52168299  0.85687759  0.79601237  1  0  0.103767  0  0.950498  0  0  0.124319  0  1.013767  0  0  0.125345  0  1.013554  0  0  0.112951  0.123564  0  1.013796  0
H  H17  1  0.02168349  0.79601372  0.85687616  1  0  0.103752  0  0.950501  0  0  0.124305  0  1.013773  0  0  0.125324  0  1.013574  0  0  0.11295  0.123554  0  1.013803  0
H  H18  1  0.76292843  0.85488500  0.77128315  1  0  0.107243  0  0.952752  0  0  0.123819  0  1.022571  0  0  0.125157  0  1.021712  0  0  0.111419  0.122737  0  1.023336  0
H  H19  1  0.26292990  0.77128755  0.85488226  1  0  0.107221  0  0.952699  0  0  0.123821  0  1.022499  0  0  0.125159  0  1.021637  0  0  0.111401  0.122729  0  1.023267  0
C  C20  1  0.18576403  0.48378999  0.96572526  1  0  0.655985  0  3.938006  0  0  0.607721  0  4.237161  0  0  0.642294  0  4.226533  0  0  0.218286  0.583849  0  4.244902  0
C  C21  1  0.68575913  0.96572146  0.48378950  1  0  0.655936  0  3.938079  0  0  0.607697  0  4.237181  0  0  0.642269  0  4.226551  0  0  0.218213  0.583832  0  4.244917  0
C  C22  1  0.40533406  0.49720016  0.97346594  1  0  -0.009838  0  3.718817  0  0  -0.012832  0  3.979183  0  0  -0.014693  0  3.997753  0  0  0.081885  -0.012418  0  3.967766  0
C  C23  1  0.90532483  0.97345909  0.49719389  1  0  -0.009778  0  3.718816  0  0  -0.012762  0  3.979152  0  0  -0.014616  0  3.997711  0  0  0.081928  -0.01235  0  3.96774  0
C  C24  1  0.71573328  0.50320555  0.08396392  1  0  0.230706  0  3.689133  0  0  0.170113  0  3.971929  0  0  0.183001  0  3.982372  0  0  0.152939  0.16226  0  3.964092  0
C  C25  1  0.21572167  0.08395864  0.50319254  1  0  0.230676  0  3.689068  0  0  0.170008  0  3.971813  0  0  0.182895  0  3.98226  0  0  0.152946  0.16216  0  3.963955  0
C  C26  1  0.50927858  0.48852095  0.86490596  1  0  0.001186  0  3.657609  0  0  -0.01164  0  3.916084  0  0  -0.012391  0  3.93395  0  0  0.08965  -0.010937  0  3.903437  0
C  C27  1  0.00926979  0.86490284  0.48851708  1  0  0.001166  0  3.657532  0  0  -0.011668  0  3.916032  0  0  -0.012433  0  3.933897  0  0  0.089611  -0.010973  0  3.903402  0
C  C28  1  0.46403816  0.48388632  0.70590979  1  0  0.656372  0  3.974775  0  0  0.609382  0  4.270373  0  0  0.643417  0  4.260598  0  0  0.221314  0.586538  0  4.275856  0
C  C29  1  0.96404161  0.70590857  0.48388872  1  0  0.656398  0  3.974969  0  0  0.609429  0  4.270527  0  0  0.643469  0  4.260748  0  0  0.221358  0.586577  0  4.276026  0
C  C30  1  0.89888809  0.17257391  0.09110650  1  0  0.402526  0  3.816755  0  0  0.328626  0  4.10469  0  0  0.357453  0  4.104091  0  0  0.189293  0.309704  0  4.103706  0
C  C31  1  0.39889072  0.09110987  0.17257393  1  0  0.402546  0  3.816741  0  0  0.32859  0  4.104707  0  0  0.357418  0  4.10411  0  0  0.189275  0.309669  0  4.103727  0
C  C32  1  0.77775449  0.91503510  0.08747085  1  0  -0.171474  0  3.625183  0  0  -0.269964  0  3.868086  0  0  -0.266327  0  3.878944  0  0  -0.13265  -0.272299  0  3.860914  0
C  C33  1  0.27775562  0.08747248  0.91503444  1  0  -0.171492  0  3.6252  0  0  -0.270009  0  3.867997  0  0  -0.266371  0  3.878854  0  0  -0.132622  -0.272336  0  3.860818  0
C  C34  1  0.68573065  0.93295751  0.83314347  1  0  -0.186906  0  3.661547  0  0  -0.293737  0  3.920834  0  0  -0.290148  0  3.930552  0  0  -0.127894  -0.295532  0  3.913886  0
C  C35  1  0.18573005  0.83314631  0.93295533  1  0  -0.186878  0  3.661421  0  0  -0.293765  0  3.920676  0  0  -0.290174  0  3.93039  0  0  -0.127884  -0.295553  0  3.913735  0
N  N36  1  0.53879708  0.50695025  0.10914237  1  0  -0.452737  0  3.14516  0  0  -0.406845  0  3.42502  0  0  -0.421839  0  3.440892  0  0  -0.382299  -0.396346  0  3.414234  0
N  N37  1  0.03878404  0.10913436  0.50693831  1  0  -0.452796  0  3.145029  0  0  -0.406898  0  3.424906  0  0  -0.421893  0  3.440774  0  0  -0.382323  -0.396392  0  3.414103  0
N  N38  1  0.70353445  0.49056680  0.93853367  1  0  -0.29869  0  3.444632  0  0  -0.234106  0  3.678707  0  0  -0.249771  0  3.691664  0  0  -0.366921  -0.223867  0  3.670325  0
N  N39  1  0.20352757  0.93852845  0.49055765  1  0  -0.298569  0  3.444407  0  0  -0.234043  0  3.678556  0  0  -0.249694  0  3.691497  0  0  -0.366917  -0.223804  0  3.670183  0
N  N40  1  0.78882020  0.01332003  0.00779607  1  0  -0.091696  0  3.505494  0  0  0.012157  0  3.740441  0  0  -0.008326  0  3.765812  0  0  -0.281854  0.025632  0  3.722744  0
N  N41  1  0.28882428  0.00779985  0.01332353  1  0  -0.091772  0  3.505485  0  0  0.01219  0  3.740356  0  0  -0.008293  0  3.765724  0  0  -0.28187  0.025664  0  3.72266  0
O  O42  1  0.14451140  0.48500056  0.08637487  1  0  -0.68016  0  1.967415  0  0  -0.6276  0  2.210336  0  0  -0.652279  0  2.199578  0  0  -0.374835  -0.60974  0  2.218035  0
O  O43  1  0.64450332  0.08636243  0.48499491  1  0  -0.680047  0  1.967477  0  0  -0.627509  0  2.21041  0  0  -0.652192  0  2.199651  0  0  -0.374734  -0.609649  0  2.218098  0
O  O44  1  0.05084229  0.47019870  0.84311521  1  0  -0.69281  0  2.007825  0  0  -0.633806  0  2.252152  0  0  -0.659755  0  2.241126  0  0  -0.382171  -0.615307  0  2.259982  0
O  O45  1  0.55083797  0.84311191  0.47021035  1  0  -0.692879  0  2.00772  0  0  -0.63389  0  2.252039  0  0  -0.659839  0  2.241018  0  0  -0.382186  -0.615386  0  2.259867  0
O  O46  1  0.31392738  0.52316308  0.65287603  1  0  -0.736859  0  2.022082  0  0  -0.674587  0  2.269042  0  0  -0.700747  0  2.259587  0  0  -0.403429  -0.656043  0  2.275782  0
O  O47  1  0.81392599  0.65287370  0.52316554  1  0  -0.736923  0  2.022088  0  0  -0.674663  0  2.269068  0  0  -0.700824  0  2.259608  0  0  -0.403483  -0.656116  0  2.275821  0
O  O48  1  0.58512142  0.44379635  0.63125565  1  0  -0.71139  0  1.986014  0  0  -0.652696  0  2.232982  0  0  -0.677771  0  2.221823  0  0  -0.382169  -0.635043  0  2.239848  0
O  O49  1  0.08512169  0.63126237  0.44380323  1  0  -0.711326  0  1.98624  0  0  -0.652631  0  2.23318  0  0  -0.677695  0  2.222004  0  0  -0.382099  -0.634973  0  2.240051  0
O  O50  1  0.99931129  0.25099028  0.24041598  1  0  -0.617475  0  2.051478  0  0  -0.554736  0  2.304805  0  0  -0.580266  0  2.299441  0  0  -0.342496  -0.536607  0  2.307403  0
O  O51  1  0.49931333  0.24041988  0.25099202  1  0  -0.617434  0  2.051477  0  0  -0.554684  0  2.304831  0  0  -0.580214  0  2.299466  0  0  -0.342439  -0.536549  0  2.307425  0
