# generated using pymatgen
data_FeH24C18(SN7)2
_symmetry_space_group_name_H-M   'P 1'
_cell_length_a   8.87005772
_cell_length_b   10.38596748
_cell_length_c   13.47050000
_cell_angle_alpha   103.80630142
_cell_angle_beta   100.05340630
_cell_angle_gamma   99.65525164
_symmetry_Int_Tables_number   1
_chemical_formula_structural   FeH24C18(SN7)2
_chemical_formula_sum   'Fe2 H48 C36 S4 N28'
_cell_volume   1157.80381056
_cell_formula_units_Z   2
loop_
 _symmetry_equiv_pos_site_id
 _symmetry_equiv_pos_as_xyz
  1  'x, y, z'
loop_
 _atom_site_type_symbol
 _atom_site_label
 _atom_site_symmetry_multiplicity
 _atom_site_fract_x
 _atom_site_fract_y
 _atom_site_fract_z
 _atom_site_occupancy
 _atom_site_hle17_bader_spin_density
 _atom_site_hle17_ddec_charge
 _atom_site_hle17_ddec_spin_density
 _atom_site_hle17_ddec_sum_bond_order
 _atom_site_hle17_magmom
 _atom_site_hse06_10hf_bader_spin_density
 _atom_site_hse06_10hf_ddec_charge
 _atom_site_hse06_10hf_ddec_spin_density
 _atom_site_hse06_10hf_ddec_sum_bond_order
 _atom_site_hse06_10hf_magmom
 _atom_site_hse06_bader_spin_density
 _atom_site_hse06_ddec_charge
 _atom_site_hse06_ddec_spin_density
 _atom_site_hse06_ddec_sum_bond_order
 _atom_site_hse06_magmom
 _atom_site_pbe_bader_charge
 _atom_site_pbe_bader_spin_density
 _atom_site_pbe_cm5_charge
 _atom_site_pbe_ddec_charge
 _atom_site_pbe_ddec_spin_density
 _atom_site_pbe_ddec_sum_bond_order
 _atom_site_pbe_magmom
Fe  Fe0  1  0.00016469  0.50009811  0.49998984  1  0  0.528894  0  3.353054  0  0  0.509763  0  3.823361  0  0  0.547578  0  3.772964  0  1.1713  0  0.808365  0.492476  0  3.849962  0
Fe  Fe1  1  0.00823033  0.98996568  0.00370616  1  0  0.558043  0  3.035307  0  0  0.517369  0  3.523503  0  0  0.573784  0  3.458848  0  1.18416  0  0.707898  0.48525  0  3.563205  0
H  H2  1  0.19457026  0.40586298  0.68652464  1  0  0.116096  0  0.938144  0  0  0.121134  0  1.008379  0  0  0.123846  0  1.003894  0  0.174361  0  0.145649  0.119228  0  1.011259  0
H  H3  1  0.80544504  0.59402940  0.31345368  1  0  0.115941  0  0.937641  0  0  0.121339  0  1.007336  0  0  0.124006  0  1.002882  0  0.170665  0  0.145686  0.119472  0  1.010133  0
H  H4  1  0.25868557  0.37172869  0.37872498  1  0  0.087798  0  0.989995  0  0  0.0905  0  1.064579  0  0  0.092005  0  1.063082  0  0.194321  0  0.118952  0.089091  0  1.066563  0
H  H5  1  0.74127859  0.62811086  0.62121769  1  0  0.087894  0  0.989331  0  0  0.090445  0  1.064041  0  0  0.091979  0  1.062474  0  0.196459  0  0.119068  0.088985  0  1.066135  0
H  H6  1  0.40602005  0.29833467  0.74901907  1  0  0.083753  0  0.935002  0  0  0.101132  0  0.998158  0  0  0.101959  0  0.997312  0  0.10406  0  0.116856  0.100635  0  0.998314  0
H  H7  1  0.59433829  0.70189101  0.25103699  1  0  0.083735  0  0.933925  0  0  0.101248  0  0.997085  0  0  0.101985  0  0.99628  0  0.104336  0  0.117111  0.1008  0  0.997191  0
H  H8  1  0.57481306  0.33170787  0.69726945  1  0  0.080917  0  0.956912  0  0  0.090657  0  1.030786  0  0  0.091205  0  1.030051  0  0.111622  0  0.100021  0.09042  0  1.030684  0
H  H9  1  0.42533757  0.66858385  0.30271624  1  0  0.081494  0  0.955439  0  0  0.091721  0  1.028109  0  0  0.092253  0  1.027406  0  0.112397  0  0.100533  0.091475  0  1.028041  0
H  H10  1  0.49631335  0.09888703  0.57354586  1  0  0.060114  0  0.940896  0  0  0.079555  0  1.002948  0  0  0.080186  0  1.003118  0  0.009698  0  0.08634  0.079301  0  1.002405  0
H  H11  1  0.50361959  0.90124110  0.42628746  1  0  0.060709  0  0.940279  0  0  0.080135  0  1.002203  0  0  0.080866  0  1.002288  0  0.011522  0  0.086398  0.079815  0  1.001698  0
H  H12  1  0.31394792  0.07170824  0.61128614  1  0  0.070004  0  0.963205  0  0  0.082944  0  1.036138  0  0  0.084155  0  1.036399  0  0.022766  0  0.091009  0.082214  0  1.035569  0
H  H13  1  0.68636699  0.92839551  0.38901049  1  0  0.070467  0  0.963132  0  0  0.083421  0  1.036322  0  0  0.084719  0  1.036417  0  0.028845  0  0.091518  0.082635  0  1.035823  0
H  H14  1  0.63529447  0.12193520  0.76011689  1  0  0.076802  0  0.938109  0  0  0.093502  0  1.001152  0  0  0.094082  0  1.002093  0  0.041377  0  0.090479  0.093251  0  1.000128  0
H  H15  1  0.36566075  0.87802019  0.23963290  1  0  0.074892  0  0.942441  0  0  0.090835  0  1.007121  0  0  0.091354  0  1.007869  0  0.043267  0  0.089847  0.090673  0  1.006193  0
H  H16  1  0.45282058  0.09364373  0.79449384  1  0  0.081863  0  0.951041  0  0  0.094857  0  1.019918  0  0  0.095959  0  1.020285  0  0.071512  0  0.095772  0.094309  0  1.019053  0
H  H17  1  0.54848724  0.90639295  0.20557126  1  0  0.084067  0  0.946945  0  0  0.097487  0  1.01409  0  0  0.098581  0  1.014433  0  0.04455  0  0.096732  0.096984  0  1.013197  0
H  H18  1  0.55600639  0.88462309  0.63111492  1  0  0.067377  0  0.953877  0  0  0.077399  0  1.03307  0  0  0.078406  0  1.032349  0  0.054754  0  0.105594  0.076621  0  1.033624  0
H  H19  1  0.44485269  0.11545017  0.36868484  1  0  0.068866  0  0.952941  0  0  0.079237  0  1.031884  0  0  0.080242  0  1.031176  0  0.052239  0  0.106491  0.078444  0  1.032379  0
H  H20  1  0.56602174  0.88680678  0.76427926  1  0  0.076578  0  0.962147  0  0  0.087361  0  1.035623  0  0  0.087063  0  1.036372  0  0.090768  0  0.104537  0.087812  0  1.034643  0
H  H21  1  0.43509445  0.11321465  0.23550564  1  0  0.0763  0  0.965154  0  0  0.088251  0  1.037518  0  0  0.087861  0  1.038358  0  0.091211  0  0.105768  0.088682  0  1.036621  0
H  H22  1  0.34270256  0.68899005  0.52523983  1  0  0.115486  0  0.940765  0  0  0.117727  0  1.015774  0  0  0.121069  0  1.011091  0  0.167603  0  0.140805  0.115101  0  1.019616  0
H  H23  1  0.65764210  0.31110455  0.47442381  1  0  0.115243  0  0.940273  0  0  0.117211  0  1.015488  0  0  0.120574  0  1.01075  0  0.170164  0  0.140496  0.114564  0  1.019376  0
H  H24  1  0.01816554  0.73086837  0.71901431  1  0  0.101615  0  0.927994  0  0  0.111445  0  0.987946  0  0  0.112337  0  0.986769  0  0.135203  0  0.139087  0.110597  0  0.989282  0
H  H25  1  0.98285691  0.26910835  0.28109901  1  0  0.101817  0  0.927724  0  0  0.111992  0  0.987148  0  0  0.112926  0  0.98586  0  0.142419  0  0.139244  0.111086  0  0.988587  0
H  H26  1  0.19561362  0.04901165  0.24495276  1  0  0.104708  0  0.962184  0  0  0.114731  0  1.028168  0  0  0.116306  0  1.025616  0  0.166824  0  0.141803  0.113689  0  1.029791  0
H  H27  1  0.81408915  0.94265302  0.75351171  1  0  0.102711  0  0.954963  0  0  0.113257  0  1.02063  0  0  0.114362  0  1.018299  0  0.157951  0  0.141308  0.112581  0  1.021541  0
H  H28  1  0.74085987  0.82199918  0.09584193  1  0  0.095913  0  0.945585  0  0  0.103388  0  1.0106  0  0  0.105046  0  1.007917  0  0.163519  0  0.136131  0.101898  0  1.012997  0
H  H29  1  0.26731680  0.17471471  0.89925604  1  0  0.092361  0  0.947624  0  0  0.100284  0  1.013442  0  0  0.101729  0  1.011093  0  0.108012  0  0.134905  0.098926  0  1.01559  0
H  H30  1  0.21518084  0.99745364  0.41863087  1  0  0.071329  0  0.928057  0  0  0.089944  0  0.992105  0  0  0.090055  0  0.992891  0  0.039833  0  0.110995  0.089843  0  0.991385  0
H  H31  1  0.78413583  0.00379631  0.58234763  1  0  0.070859  0  0.929318  0  0  0.090018  0  0.992521  0  0  0.090037  0  0.992317  0  0.042823  0  0.110777  0.089954  0  0.991881  0
H  H32  1  0.14320885  0.81780555  0.38139679  1  0  0.080592  0  0.950204  0  0  0.093669  0  1.018194  0  0  0.093448  0  1.019055  0  0.116937  0  0.107002  0.093615  0  1.017591  0
H  H33  1  0.85633099  0.18345761  0.61952517  1  0  0.081431  0  0.951239  0  0  0.094718  0  1.018623  0  0  0.09444  0  1.018412  0  0.104858  0  0.107788  0.094815  0  1.018034  0
H  H34  1  0.90873518  0.85173865  0.45612994  1  0  0.071891  0  0.971745  0  0  0.08758  0  1.03824  0  0  0.088089  0  1.039204  0  0.05271  0  0.094634  0.087157  0  1.03761  0
H  H35  1  0.08953225  0.14922881  0.54342733  1  0  0.072733  0  0.9715  0  0  0.0886  0  1.038044  0  0  0.089036  0  1.039086  0  0.049121  0  0.094893  0.088148  0  1.03744  0
H  H36  1  0.08745126  0.90772207  0.54907381  1  0  0.077939  0  0.954999  0  0  0.092141  0  1.022344  0  0  0.092742  0  1.023617  0  0.021757  0  0.095085  0.091599  0  1.021586  0
H  H37  1  0.91055441  0.09347810  0.45065802  1  0  0.076588  0  0.956258  0  0  0.091123  0  1.024101  0  0  0.091414  0  1.025847  0  0.032397  0  0.094715  0.090819  0  1.023107  0
H  H38  1  0.03702243  0.66570817  0.94562119  1  0  0.110048  0  0.949958  0  0  0.113103  0  1.023712  0  0  0.115468  0  1.020337  0  0.189892  0  0.134334  0.111386  0  1.026195  0
H  H39  1  0.95724040  0.33633438  0.05803346  1  0  0.10655  0  0.947764  0  0  0.111145  0  1.020002  0  0  0.113263  0  1.017342  0  0.166213  0  0.132257  0.109769  0  1.021703  0
H  H40  1  0.38044845  0.03077391  0.03003630  1  0  0.098885  0  0.969898  0  0  0.102674  0  1.03922  0  0  0.104276  0  1.037314  0  0.15925  0  0.135219  0.100783  0  1.042044  0
H  H41  1  0.61316917  0.97242094  0.97032129  1  0  0.093065  0  0.968028  0  0  0.098621  0  1.036642  0  0  0.100083  0  1.035065  0  0.167014  0  0.132658  0.097205  0  1.03862  0
H  H42  1  0.35078973  0.55948255  0.86220629  1  0  0.069763  0  0.950766  0  0  0.080701  0  1.025165  0  0  0.081442  0  1.024565  0  0.052205  0  0.0975  0.079711  0  1.026103  0
H  H43  1  0.64451923  0.44493574  0.13771414  1  0  0.066431  0  0.953614  0  0  0.078384  0  1.027523  0  0  0.078917  0  1.027127  0  0.06583  0  0.096437  0.077785  0  1.02804  0
H  H44  1  0.22309521  0.50107360  0.93929171  1  0  0.078924  0  0.930803  0  0  0.092772  0  0.996774  0  0  0.09329  0  0.997141  0  0.090627  0  0.107053  0.092327  0  0.996427  0
H  H45  1  0.77240549  0.50180726  0.06019862  1  0  0.077453  0  0.928788  0  0  0.091498  0  0.995273  0  0  0.091849  0  0.995769  0  0.098351  0  0.106947  0.091306  0  0.994757  0
H  H46  1  0.44685027  0.57994870  0.09608155  1  0  0.069113  0  0.958221  0  0  0.083877  0  1.02618  0  0  0.084664  0  1.026913  0  0.035367  0  0.086406  0.083227  0  1.025877  0
H  H47  1  0.54837285  0.42407126  0.90382624  1  0  0.069045  0  0.957261  0  0  0.083963  0  1.02507  0  0  0.084773  0  1.025731  0  0.040503  0  0.086928  0.083271  0  1.024839  0
H  H48  1  0.56746345  0.65401642  0.02211818  1  0  0.06962  0  0.960329  0  0  0.085074  0  1.025865  0  0  0.08578  0  1.026004  0  0.040879  0  0.091288  0.084577  0  1.025885  0
H  H49  1  0.42758384  0.35025453  0.97783712  1  0  0.070709  0  0.960182  0  0  0.085643  0  1.02603  0  0  0.086555  0  1.025962  0  0.04955  0  0.090903  0.084969  0  1.026172  0
C  C50  1  0.91375481  0.43534842  0.69797806  1  0  0.24092  0  4.040557  0  0  0.234305  0  4.344308  0  0  0.257307  0  4.354546  0  0.486539  0  0.122386  0.218975  0  4.337254  0
C  C51  1  0.08605853  0.56600924  0.30228377  1  0  0.240795  0  4.041131  0  0  0.234178  0  4.345122  0  0  0.25729  0  4.35494  0  0.499244  0  0.12171  0.218747  0  4.338298  0
C  C52  1  0.23748245  0.38569965  0.61515318  1  0  0.163557  0  3.590184  0  0  0.08715  0  3.860052  0  0  0.111186  0  3.873311  0  0.971618  0  0.164643  0.076408  0  3.85419  0
C  C53  1  0.76266797  0.61435126  0.38487281  1  0  0.163337  0  3.590705  0  0  0.087009  0  3.860254  0  0  0.111004  0  3.873545  0  0.973571  0  0.164627  0.076332  0  3.854227  0
C  C54  1  0.26957302  0.36377736  0.45860329  1  0  0.183666  0  3.670078  0  0  0.132521  0  3.960827  0  0  0.145854  0  3.970694  0  0.92655  0  0.140723  0.123792  0  3.953222  0
C  C55  1  0.73049993  0.63617091  0.54138229  1  0  0.184154  0  3.669342  0  0  0.132884  0  3.960515  0  0  0.146358  0  3.97018  0  0.925246  0  0.141084  0.124008  0  3.953182  0
C  C56  1  0.45228034  0.27485769  0.67808718  1  0  -0.021808  0  3.639518  0  0  -0.096333  0  3.895729  0  0  -0.085926  0  3.910972  0  0.262687  0  -0.053794  -0.098726  0  3.888155  0
C  C57  1  0.54797111  0.72525316  0.32194066  1  0  -0.021316  0  3.637814  0  0  -0.095847  0  3.894179  0  0  -0.085343  0  3.909222  0  0.262599  0  -0.054002  -0.09828  0  3.886613  0
C  C58  1  0.43871418  0.12200531  0.63978332  1  0  -0.119924  0  3.693379  0  0  -0.165428  0  3.963563  0  0  -0.165954  0  3.974612  0  0.006859  0  -0.167486  -0.164326  0  3.953999  0
C  C59  1  0.56165151  0.87810453  0.36026638  1  0  -0.119489  0  3.693167  0  0  -0.165478  0  3.963066  0  0  -0.166003  0  3.973904  0  0.001693  0  -0.167553  -0.164325  0  3.953587  0
C  C60  1  0.51119179  0.06927254  0.72905517  1  0  -0.128873  0  3.689066  0  0  -0.165324  0  3.943927  0  0  -0.166988  0  3.958046  0  -0.024278  0  -0.165975  -0.164036  0  3.933326  0
C  C61  1  0.48971566  0.93076109  0.27081562  1  0  -0.13168  0  3.691193  0  0  -0.166558  0  3.945111  0  0  -0.168148  0  3.95925  0  -0.001442  0  -0.166599  -0.165356  0  3.934415  0
C  C62  1  0.50379974  0.91725349  0.69862002  1  0  -0.020599  0  3.650623  0  0  -0.097309  0  3.909217  0  0  -0.093414  0  3.921196  0  0.290969  0  -0.054641  -0.099508  0  3.900579  0
C  C63  1  0.49718204  0.08279335  0.30122091  1  0  -0.020311  0  3.650289  0  0  -0.098996  0  3.910576  0  0  -0.095056  0  3.922395  0  0.294822  0  -0.055312  -0.101082  0  3.901888  0
C  C64  1  0.28196617  0.72528467  0.58597415  1  0  0.152681  0  3.596567  0  0  0.076568  0  3.865689  0  0  0.092567  0  3.874544  0  0.98739  0  0.15815  0.065941  0  3.859837  0
C  C65  1  0.71864464  0.27481196  0.41384072  1  0  0.153432  0  3.595857  0  0  0.077526  0  3.865243  0  0  0.093655  0  3.873868  0  0.975713  0  0.158783  0.066792  0  3.859568  0
C  C66  1  0.12097426  0.74901060  0.68682143  1  0  0.177543  0  3.666804  0  0  0.126059  0  3.963327  0  0  0.138213  0  3.975492  0  0.958344  0  0.141967  0.117936  0  3.955259  0
C  C67  1  0.87998061  0.25100677  0.31322627  1  0  0.179782  0  3.665412  0  0  0.127691  0  3.962412  0  0  0.139858  0  3.974459  0  0.963263  0  0.142386  0.11954  0  3.954402  0
C  C68  1  0.74149248  0.75186800  0.86101239  1  0  0.246295  0  4.032412  0  0  0.240183  0  4.333245  0  0  0.264888  0  4.342294  0  0.500493  0  0.124253  0.223206  0  4.328749  0
C  C69  1  0.26266002  0.24124773  0.14087380  1  0  0.245605  0  4.032665  0  0  0.23951  0  4.333252  0  0  0.264306  0  4.342018  0  0.503273  0  0.12478  0.22249  0  4.329013  0
C  C70  1  0.08129444  0.98233241  0.22758828  1  0  0.151246  0  3.613486  0  0  0.073079  0  3.882587  0  0  0.090038  0  3.89312  0  0.977907  0  0.158912  0.06145  0  3.875774  0
C  C71  1  0.92716722  0.01140621  0.77032303  1  0  0.154006  0  3.634735  0  0  0.077832  0  3.905052  0  0  0.101886  0  3.921579  0  0.982756  0  0.1629  0.068015  0  3.895936  0
C  C72  1  0.84974852  0.86583358  0.15410097  1  0  0.200136  0  3.66635  0  0  0.145402  0  3.965601  0  0  0.159247  0  3.976395  0  0.96346  0  0.152724  0.13624  0  3.95814  0
C  C73  1  0.15717807  0.13071366  0.84213736  1  0  0.199872  0  3.690095  0  0  0.1459  0  3.988076  0  0  0.159423  0  3.996923  0  1.020336  0  0.151401  0.137717  0  3.979225  0
C  C74  1  0.10851172  0.91622515  0.39615114  1  0  -0.002668  0  3.612458  0  0  -0.078124  0  3.86886  0  0  -0.073932  0  3.879997  0  0.271358  0  -0.047855  -0.080436  0  3.860986  0
C  C75  1  0.89075055  0.08494554  0.60412875  1  0  -0.006335  0  3.619978  0  0  -0.080431  0  3.875752  0  0  -0.067173  0  3.889379  0  0.278532  0  -0.04853  -0.083131  0  3.867921  0
C  C76  1  0.01726649  0.93074483  0.48242277  1  0  -0.126301  0  3.678889  0  0  -0.168167  0  3.94493  0  0  -0.168642  0  3.956212  0  -0.011464  0  -0.167544  -0.167625  0  3.937184  0
C  C77  1  0.98086993  0.07038826  0.51717960  1  0  -0.125515  0  3.678469  0  0  -0.169071  0  3.94551  0  0  -0.169452  0  3.955507  0  0.003537  0  -0.168662  -0.16845  0  3.937533  0
C  C78  1  0.14695711  0.74054816  0.96725185  1  0  0.165188  0  3.574059  0  0  0.090622  0  3.838304  0  0  0.106905  0  3.849282  0  0.932593  0  0.161713  0.079584  0  3.83111  0
C  C79  1  0.84698603  0.26155231  0.03574644  1  0  0.159793  0  3.615324  0  0  0.08855  0  3.879034  0  0  0.102095  0  3.892376  0  1.005642  0  0.161717  0.08  0  3.869388  0
C  C80  1  0.32467293  0.92384217  0.00900035  1  0  0.186048  0  3.667591  0  0  0.134523  0  3.961444  0  0  0.148002  0  3.973281  0  0.960194  0  0.144508  0.12542  0  3.953931  0
C  C81  1  0.66928918  0.07944718  0.99206528  1  0  0.184363  0  3.712822  0  0  0.134477  0  4.005379  0  0  0.146244  0  4.0189  0  0.965076  0  0.144017  0.126823  0  3.995878  0
C  C82  1  0.32755277  0.57628652  0.94145490  1  0  -0.006152  0  3.624478  0  0  -0.081147  0  3.881018  0  0  -0.077828  0  3.893222  0  0.287961  0  -0.0503  -0.082763  0  3.872219  0
C  C83  1  0.66746548  0.42730361  0.05835620  1  0  -0.007191  0  3.627403  0  0  -0.081741  0  3.884282  0  0  -0.078345  0  3.896886  0  0.262125  0  -0.051054  -0.083501  0  3.874923  0
C  C84  1  0.47238852  0.56886765  0.01782605  1  0  -0.125096  0  3.685252  0  0  -0.164574  0  3.942818  0  0  -0.166334  0  3.957214  0  -0.010618  0  -0.166716  -0.163103  0  3.932233  0
C  C85  1  0.52284678  0.43518685  0.98208654  1  0  -0.123719  0  3.684346  0  0  -0.162378  0  3.940422  0  0  -0.164244  0  3.95491  0  -0.011404  0  -0.165737  -0.160915  0  3.930075  0
S  S86  1  0.88807843  0.39929057  0.80571368  1  0  -0.391983  0  2.00154  0  0  -0.384743  0  2.295812  0  0  -0.395636  0  2.288236  0  0.016974  0  -0.199638  -0.377225  0  2.300793  0
S  S87  1  0.11114749  0.60313100  0.19479665  1  0  -0.395707  0  2.008651  0  0  -0.388328  0  2.305566  0  0  -0.399363  0  2.29795  0  0.000781  0  -0.200877  -0.380615  0  2.31082  0
S  S88  1  0.60017891  0.63543928  0.77791962  1  0  -0.373289  0  2.061023  0  0  -0.367192  0  2.372627  0  0  -0.376008  0  2.363571  0  0.022003  0  -0.184529  -0.361649  0  2.379652  0
S  S89  1  0.39719561  0.36610840  0.22139010  1  0  -0.372563  0  2.058268  0  0  -0.367281  0  2.369623  0  0  -0.376581  0  2.360641  0  0.029693  0  -0.185072  -0.361403  0  2.376629  0
N  N90  1  0.93406207  0.45880813  0.61840485  1  0  -0.478927  0  3.2152  0  0  -0.449733  0  3.513512  0  0  -0.467996  0  3.517429  0  -1.283272  0  -0.424404  -0.438558  0  3.509899  0
N  N91  1  0.06611243  0.54161875  0.38163667  1  0  -0.477997  0  3.214854  0  0  -0.44911  0  3.513452  0  0  -0.467156  0  3.517101  0  -1.28077  0  -0.423342  -0.438111  0  3.509998  0
N  N92  1  0.17764005  0.41088172  0.52478336  1  0  -0.29699  0  3.334627  0  0  -0.252349  0  3.631791  0  0  -0.275839  0  3.64395  0  -1.158108  0  -0.351713  -0.237003  0  3.620895  0
N  N93  1  0.82256364  0.58920780  0.47523730  1  0  -0.296711  0  3.334285  0  0  -0.252174  0  3.63154  0  0  -0.275626  0  3.643645  0  -1.157758  0  -0.351454  -0.236898  0  3.620726  0
N  N94  1  0.86178472  0.33128719  0.40531202  1  0  -0.298953  0  3.359936  0  0  -0.255554  0  3.660968  0  0  -0.279403  0  3.676108  0  -1.184939  0  -0.354858  -0.240299  0  3.649458  0
N  N95  1  0.13882141  0.66887244  0.59459483  1  0  -0.298628  0  3.360335  0  0  -0.25502  0  3.660959  0  0  -0.279076  0  3.676386  0  -1.16544  0  -0.354791  -0.239675  0  3.649283  0
N  N96  1  0.35834000  0.32572380  0.60249043  1  0  0.045794  0  3.581647  0  0  0.166459  0  3.767772  0  0  0.132042  0  3.826053  0  -0.826199  0  -0.138367  0.171952  0  3.754042  0
N  N97  1  0.64171294  0.67421329  0.39750490  1  0  0.045276  0  3.582004  0  0  0.166128  0  3.767903  0  0  0.13179  0  3.826062  0  -0.827822  0  -0.138384  0.171666  0  3.754135  0
N  N98  1  0.38054893  0.31037394  0.50331028  1  0  -0.292518  0  2.873754  0  0  -0.288393  0  3.143483  0  0  -0.291458  0  3.164203  0  -0.726152  0  -0.227447  -0.2809  0  3.134052  0
N  N99  1  0.61945705  0.68950422  0.49666064  1  0  -0.291878  0  2.873526  0  0  -0.287904  0  3.143447  0  0  -0.290915  0  3.163991  0  -0.724647  0  -0.227017  -0.280514  0  3.134208  0
N  N100  1  0.34430716  0.83434837  0.66907314  1  0  0.035183  0  3.577425  0  0  0.161156  0  3.757844  0  0  0.150096  0  3.782735  0  -0.823203  0  -0.136951  0.166975  0  3.743332  0
N  N101  1  0.65665978  0.16555824  0.33084941  1  0  0.035601  0  3.576179  0  0  0.161493  0  3.757299  0  0  0.150378  0  3.782144  0  -0.807087  0  -0.136842  0.167191  0  3.743083  0
N  N102  1  0.24414365  0.85077840  0.73442764  1  0  -0.248128  0  2.853525  0  0  -0.252943  0  3.128169  0  0  -0.260715  0  3.14321  0  -0.676242  0  -0.21796  -0.247206  0  3.117478  0
N  N103  1  0.75702153  0.14904286  0.26562375  1  0  -0.249959  0  2.849323  0  0  -0.254733  0  3.123738  0  0  -0.26261  0  3.138764  0  -0.676164  0  -0.218202  -0.248803  0  3.11295  0
N  N104  1  0.84388614  0.83983351  0.92024783  1  0  -0.483016  0  3.207964  0  0  -0.44972  0  3.512232  0  0  -0.470155  0  3.511543  0  -1.303954  0  -0.424562  -0.438001  0  3.513409  0
N  N105  1  0.16524120  0.14739569  0.08371798  1  0  -0.480624  0  3.212996  0  0  -0.447805  0  3.517101  0  0  -0.468255  0  3.516426  0  -1.311765  0  -0.424602  -0.43599  0  3.518297  0
N  N106  1  0.97520703  0.94647067  0.13622867  1  0  -0.286388  0  3.318172  0  0  -0.240285  0  3.622174  0  0  -0.268369  0  3.636733  0  -1.173909  0  -0.338032  -0.222025  0  3.611881  0
N  N107  1  0.03698930  0.04434654  0.85903775  1  0  -0.302784  0  3.220479  0  0  -0.256643  0  3.515603  0  0  -0.282569  0  3.528428  0  -1.194124  0  -0.313014  -0.238791  0  3.503824  0
N  N108  1  0.02179032  0.92443763  0.29570011  1  0  0.033241  0  3.573887  0  0  0.153823  0  3.763097  0  0  0.143032  0  3.787992  0  -0.800376  0  -0.137143  0.159271  0  3.74895  0
N  N109  1  0.97992260  0.07618232  0.70353302  1  0  0.032067  0  3.577001  0  0  0.150854  0  3.766989  0  0  0.112044  0  3.82807  0  -0.793349  0  -0.13907  0.157664  0  3.750222  0
N  N110  1  0.87427421  0.84887821  0.24984811  1  0  -0.275673  0  2.883077  0  0  -0.276392  0  3.164423  0  0  -0.286372  0  3.179714  0  -0.687997  0  -0.22013  -0.269424  0  3.153452  0
N  N111  1  0.12685185  0.15374963  0.74844355  1  0  -0.281889  0  2.880688  0  0  -0.278726  0  3.159031  0  0  -0.280422  0  3.180724  0  -0.683282  0  -0.219545  -0.271505  0  3.147038  0
N  N112  1  0.16613995  0.87670835  0.99260631  1  0  -0.292146  0  3.333931  0  0  -0.249403  0  3.642957  0  0  -0.278914  0  3.65854  0  -1.150426  0  -0.345805  -0.229496  0  3.631019  0
N  N113  1  0.82702659  0.12629648  0.01108898  1  0  -0.319831  0  3.168331  0  0  -0.276446  0  3.462367  0  0  -0.302106  0  3.47907  0  -1.241115  0  -0.311089  -0.2582  0  3.449772  0
N  N114  1  0.28880238  0.70988806  0.96916220  1  0  0.045272  0  3.548793  0  0  0.167496  0  3.733511  0  0  0.157013  0  3.758055  0  -0.778573  0  -0.130419  0.172982  0  3.719032  0
N  N115  1  0.70508814  0.29326310  0.03115636  1  0  0.046542  0  3.544789  0  0  0.167129  0  3.730222  0  0  0.156167  0  3.755909  0  -0.793649  0  -0.131221  0.173193  0  3.71438  0
N  N116  1  0.40286565  0.82516650  0.99531309  1  0  -0.274998  0  2.887071  0  0  -0.275154  0  3.161439  0  0  -0.285133  0  3.175719  0  -0.700992  0  -0.220358  -0.26713  0  3.151521  0
N  N117  1  0.59021651  0.17808424  0.00355453  1  0  -0.288261  0  2.889138  0  0  -0.283146  0  3.159843  0  0  -0.293467  0  3.175312  0  -0.695279  0  -0.223003  -0.274607  0  3.148744  0
