# generated using pymatgen
data_NiH17C17BrN4O5
_symmetry_space_group_name_H-M   'P 1'
_cell_length_a   9.59038710
_cell_length_b   10.15279102
_cell_length_c   11.15474436
_cell_angle_alpha   107.94611021
_cell_angle_beta   106.53567347
_cell_angle_gamma   102.62573933
_symmetry_Int_Tables_number   1
_chemical_formula_structural   NiH17C17BrN4O5
_chemical_formula_sum   'Ni2 H34 C34 Br2 N8 O10'
_cell_volume   933.02252070
_cell_formula_units_Z   2
loop_
 _symmetry_equiv_pos_site_id
 _symmetry_equiv_pos_as_xyz
  1  'x, y, z'
loop_
 _atom_site_type_symbol
 _atom_site_label
 _atom_site_symmetry_multiplicity
 _atom_site_fract_x
 _atom_site_fract_y
 _atom_site_fract_z
 _atom_site_occupancy
 _atom_site_hle17_ddec_charge
 _atom_site_hle17_ddec_spin_density
 _atom_site_hle17_ddec_sum_bond_order
 _atom_site_hle17_magmom
 _atom_site_hse06_10hf_ddec_charge
 _atom_site_hse06_10hf_ddec_spin_density
 _atom_site_hse06_10hf_ddec_sum_bond_order
 _atom_site_hse06_10hf_magmom
 _atom_site_hse06_ddec_charge
 _atom_site_hse06_ddec_spin_density
 _atom_site_hse06_ddec_sum_bond_order
 _atom_site_hse06_magmom
 _atom_site_pbe_cm5_charge
 _atom_site_pbe_ddec_charge
 _atom_site_pbe_ddec_spin_density
 _atom_site_pbe_ddec_sum_bond_order
 _atom_site_pbe_magmom
Ni  Ni0  1  0.50433452  0.93829556  0.70040288  1  0.847588  1.767998  2.005013  1.512  0.853035  1.822026  2.394067  1.629  0.94705  1.8738  2.31586  1.713  0.637721  0.782199  1.776432  2.453605  1.557
Ni  Ni1  1  0.49566327  0.06170277  0.29959612  1  0.847576  1.767992  2.005039  1.512  0.853032  1.822024  2.39408  1.629  0.94706  1.873796  2.315847  1.713  0.63772  0.78219  1.776429  2.453624  1.557
H  H2  1  0.58531838  0.84958885  0.49754575  1  0.416625  -0.000337  0.885183  -0.001  0.388384  0.000382  0.94918  0.0  0.399562  9.8e-05  0.933402  0.0  0.288638  0.380462  0.000681  0.960243  0.0
H  H3  1  0.41468237  0.15041168  0.50245548  1  0.416718  -0.000337  0.88504  -0.001  0.388441  0.000383  0.949117  0.0  0.399618  9.8e-05  0.933339  0.0  0.288655  0.380516  0.000681  0.960182  0.0
H  H4  1  0.62649618  0.76942196  0.60492286  1  0.40717  -0.001324  0.899131  -0.002  0.376848  -0.00056  0.966718  -0.001  0.389058  -0.000665  0.949202  -0.001  0.283043  0.368149  -0.000412  0.97913  -0.001
H  H5  1  0.37350713  0.23057966  0.39507841  1  0.40721  -0.001324  0.899089  -0.002  0.37687  -0.00056  0.966691  -0.001  0.38908  -0.000666  0.949174  -0.001  0.283065  0.368173  -0.000412  0.979101  -0.001
H  H6  1  0.52401222  0.38723447  0.67560033  1  0.10292  0.000145  0.973444  0.0  0.105998  0.000177  1.049757  0.0  0.110579  0.000121  1.044795  0.0  0.103469  0.102466  0.000275  1.054206  0.0
H  H7  1  0.47599249  0.61276496  0.32440156  1  0.102952  0.000146  0.973451  0.0  0.106035  0.000177  1.04976  0.0  0.11061  0.000121  1.044805  0.0  0.10348  0.102502  0.000275  1.054208  0.0
H  H8  1  0.26754032  0.25041142  0.90163165  1  0.121072  0.000311  0.9298  0.0  0.13178  0.000245  0.987649  0.0  0.13604  0.000164  0.984282  0.0  0.110137  0.12854  0.000342  0.99035  0.0
H  H9  1  0.73245677  0.74958801  0.09836480  1  0.121034  0.000312  0.929828  0.0  0.131743  0.000245  0.987682  0.0  0.136004  0.000164  0.984315  0.0  0.110128  0.128502  0.000342  0.990384  0.0
H  H10  1  0.35611713  0.69003622  0.90859971  1  0.115923  0.000186  0.961508  0.0  0.119335  0.000124  1.03538  0.0  0.123691  6.3e-05  1.031337  0.0  0.105996  0.116237  0.000194  1.038071  0.0
H  H11  1  0.64389130  0.30996760  0.09140343  1  0.115909  0.000187  0.961565  0.0  0.119335  0.000124  1.035421  0.0  0.123688  6.2e-05  1.031378  0.0  0.106007  0.116241  0.000194  1.038113  0.0
H  H12  1  0.86636930  0.10538323  0.77520656  1  0.105745  9.8e-05  0.959871  0.001  0.112917  0.000163  1.023991  0.001  0.115059  0.000103  1.023036  0.0  0.113702  0.1112  0.000222  1.025064  0.001
H  H13  1  0.13362849  0.89461509  0.22479334  1  0.10573  9.7e-05  0.959885  0.001  0.112879  0.000163  1.024026  0.001  0.115021  0.000104  1.023073  0.0  0.113691  0.111163  0.000222  1.025097  0.001
H  H14  1  0.08233553  0.20160980  0.04000529  1  0.113674  0.000343  0.955089  0.0  0.124479  0.000314  1.014815  0.0  0.127152  0.000231  1.01347  0.0  0.118813  0.122395  0.000391  1.016003  0.0
H  H15  1  0.91766381  0.79839292  0.95999533  1  0.113734  0.000344  0.955054  0.0  0.124523  0.000314  1.014785  0.0  0.127199  0.000231  1.013431  0.0  0.118828  0.122439  0.000391  1.015977  0.0
H  H16  1  0.63280848  0.04415046  0.03271292  1  0.115756  -7.9e-05  0.931752  0.001  0.124424  -8.4e-05  0.995253  0.0  0.127272  -0.000107  0.990992  0.0  0.141034  0.12221  -5.9e-05  0.998552  0.0
H  H17  1  0.36719195  0.95585226  0.96728886  1  0.115752  -7.9e-05  0.931744  0.001  0.124436  -8.4e-05  0.995218  0.0  0.127285  -0.000107  0.990956  0.0  0.141032  0.122201  -5.9e-05  0.998542  0.0
H  H18  1  0.04659297  0.14659675  0.24738992  1  0.081755  0.000198  0.920236  0.0  0.099411  0.000208  0.978369  0.0  0.100259  0.000141  0.978091  0.0  0.11183  0.098636  0.000265  0.97867  0.0
H  H19  1  0.95340560  0.85340378  0.75261079  1  0.081739  0.000199  0.920255  0.0  0.099401  0.000208  0.978397  0.0  0.100249  0.00014  0.97812  0.0  0.1118  0.098626  0.000265  0.978697  0.0
H  H20  1  0.85633253  0.10127861  0.24760002  1  0.093482  -0.000192  0.937821  0.0  0.106285  -0.000117  1.003787  0.0  0.107661  -0.000119  1.003274  0.0  0.114899  0.105354  -8.5e-05  1.003881  0.0
H  H21  1  0.14366713  0.89872191  0.75240095  1  0.093484  -0.00019  0.937819  0.0  0.106289  -0.000117  1.003799  0.0  0.107666  -0.000119  1.003287  0.0  0.114907  0.105356  -8.5e-05  1.003892  0.0
H  H22  1  0.86212437  0.35658146  0.30013036  1  0.084504  -6e-05  0.937609  0.0  0.100389  -3.6e-05  1.001479  0.0  0.100918  -3.8e-05  1.00271  0.0  0.094065  0.099672  -4.3e-05  1.001096  0.0
H  H23  1  0.13787676  0.64342016  0.69987217  1  0.084488  -6e-05  0.93755  0.0  0.100379  -3.6e-05  1.001416  0.0  0.100911  -3.8e-05  1.002648  0.0  0.094056  0.099662  -4.4e-05  1.001033  0.0
H  H24  1  0.02615066  0.35122071  0.41916738  1  0.079664  1.8e-05  0.935401  0.0  0.097705  1.1e-05  0.995268  0.0  0.098161  1e-05  0.99661  0.0  0.095658  0.097361  5.8e-05  0.994421  0.0
H  H25  1  0.97384970  0.64877871  0.58083345  1  0.079645  1.7e-05  0.935425  0.0  0.097712  1.1e-05  0.995266  0.0  0.09817  1.1e-05  0.996605  0.0  0.095659  0.097369  5.8e-05  0.994418  0.0
H  H26  1  0.18041976  0.40617486  0.27620736  1  0.086817  -7e-06  0.950703  0.0  0.099738  3.2e-05  1.018568  0.0  0.101265  2.5e-05  1.017551  0.0  0.109042  0.098423  5.6e-05  1.019557  0.0
H  H27  1  0.81957881  0.59382566  0.72379424  1  0.086811  -7e-06  0.950696  0.0  0.09972  3.3e-05  1.018576  0.0  0.101246  2.6e-05  1.01756  0.0  0.109027  0.098405  5.6e-05  1.019568  0.0
H  H28  1  0.01790737  0.43284756  0.17441975  1  0.053497  2.7e-05  0.99674  0.0  0.061336  2.3e-05  1.078757  0.0  0.062895  1.3e-05  1.077495  0.0  0.087605  0.060326  3.4e-05  1.07943  0.0
H  H29  1  0.98209190  0.56715186  0.82558082  1  0.053475  2.7e-05  0.996743  0.0  0.061308  2.3e-05  1.078784  0.0  0.062868  1.4e-05  1.07752  0.0  0.087589  0.060299  3.4e-05  1.079458  0.0
H  H30  1  0.94803006  0.67028831  0.30408557  1  0.105014  0.000307  0.998716  0.0  0.112231  0.000283  1.065444  0.0  0.11406  0.000213  1.065843  0.0  0.110296  0.11085  0.000368  1.065319  0.0
H  H31  1  0.05196812  0.32971111  0.69591473  1  0.105007  0.000309  0.998773  0.0  0.112235  0.000283  1.065476  0.0  0.114063  0.000214  1.065875  0.0  0.110288  0.110856  0.000368  1.065349  0.0
H  H32  1  0.15944143  0.93466334  0.50977928  1  0.103425  8.2e-05  0.941375  0.0  0.116756  0.000211  0.992472  0.0  0.119326  0.000139  0.991038  0.0  0.119448  0.114864  0.000306  0.993568  0.001
H  H33  1  0.84055715  0.06533717  0.49022411  1  0.103448  8.1e-05  0.94136  0.0  0.116772  0.000211  0.992459  0.0  0.119342  0.000139  0.991026  0.0  0.119456  0.11488  0.000306  0.993554  0.001
H  H34  1  0.36215456  0.60276932  0.48724014  1  0.101655  -8.4e-05  0.962711  0.001  0.109015  -9.5e-05  1.029143  0.0  0.111777  -7.2e-05  1.025347  0.0  0.1366  0.106827  -0.000121  1.032238  0.0
H  H35  1  0.63784439  0.39723230  0.51275918  1  0.101656  -8.5e-05  0.962651  0.001  0.109015  -9.5e-05  1.029085  0.0  0.11178  -7.2e-05  1.025283  0.0  0.136609  0.106827  -0.000121  1.032181  0.0
C  C36  1  0.44407461  0.54911786  0.78460033  1  -0.050364  0.007979  3.752645  0.01  -0.025005  0.003969  3.9868  0.005  -0.034826  0.003014  4.009257  0.004  -0.018587  -0.019323  0.004678  3.973194  0.006
C  C37  1  0.55592792  0.45088157  0.21540013  1  -0.050284  0.008013  3.752697  0.011  -0.024925  0.00397  3.986847  0.005  -0.034746  0.003013  4.009303  0.004  -0.018563  -0.019243  0.004678  3.973242  0.006
C  C38  1  0.45845833  0.41033944  0.73981984  1  -0.077917  -0.003919  3.724454  -0.002  -0.117972  -0.000199  3.975727  0.0  -0.113502  -0.000669  3.992217  0.0  -0.082973  -0.121833  -0.000603  3.967493  0.0
C  C39  1  0.54154381  0.58965888  0.26018112  1  -0.077964  -0.003985  3.724474  -0.002  -0.118011  -0.000199  3.975738  0.0  -0.113535  -0.000665  3.992231  0.0  -0.082943  -0.121869  -0.000604  3.967495  0.0
C  C40  1  0.39480231  0.30330935  0.78174094  1  -0.057873  0.005151  3.779694  0.006  -0.028581  0.002659  4.008163  0.003  -0.0372  0.00206  4.029426  0.002  -0.020256  -0.023984  0.003215  3.995742  0.004
C  C41  1  0.60519983  0.69668897  0.21825912  1  -0.0578  0.005183  3.779751  0.006  -0.028554  0.002659  4.008252  0.003  -0.037171  0.002062  4.029512  0.002  -0.020241  -0.023957  0.003215  3.995821  0.004
C  C42  1  0.31451637  0.33413697  0.86828720  1  -0.110786  -0.006715  3.720988  -0.004  -0.143825  -0.002028  3.96695  -0.001  -0.141269  -0.00173  3.983929  -0.001  -0.084849  -0.144675  -0.001776  3.955755  -0.001
C  C43  1  0.68548219  0.66586356  0.13171081  1  -0.110776  -0.00678  3.721117  -0.004  -0.143801  -0.00203  3.967074  -0.001  -0.141246  -0.001735  3.984057  -0.001  -0.084868  -0.144651  -0.001777  3.955878  -0.001
C  C44  1  0.30050209  0.47302073  0.91132620  1  0.071405  0.002052  3.747484  0.003  0.090299  0.000401  4.015814  0.001  0.089914  0.00047  4.038725  0.001  -0.021459  0.089775  0.000402  4.000761  0.001
C  C45  1  0.69949935  0.52697870  0.08867221  1  0.071367  0.002084  3.747556  0.003  0.090264  0.000401  4.015872  0.001  0.089878  0.00047  4.038785  0.001  -0.021458  0.08974  0.000402  4.000823  0.001
C  C46  1  0.36474997  0.58089539  0.87164927  1  -0.103658  -0.007211  3.715967  -0.005  -0.13865  -0.002321  3.968519  -0.001  -0.135297  -0.001999  3.985203  -0.001  -0.086371  -0.139392  -0.002471  3.957106  -0.001
C  C47  1  0.63525334  0.41910623  0.12835201  1  -0.103663  -0.00728  3.716013  -0.005  -0.138664  -0.002321  3.968558  -0.001  -0.135311  -0.001998  3.98525  -0.001  -0.08639  -0.139411  -0.00247  3.957154  -0.001
C  C48  1  0.51130060  0.66544775  0.74020705  1  0.627454  -0.008781  3.916132  -0.007  0.583928  -0.002986  4.213689  -0.003  0.620641  -0.002565  4.207083  -0.002  0.203226  0.558333  -0.003473  4.217202  -0.003
C  C49  1  0.48870301  0.33455168  0.25979189  1  0.627301  -0.008786  3.916303  -0.007  0.583763  -0.002987  4.213867  -0.003  0.620475  -0.002567  4.207262  -0.002  0.203133  0.558167  -0.003473  4.21738  -0.003
C  C50  1  0.42236303  0.15995795  0.74280628  1  0.609408  -0.01287  3.907206  -0.011  0.563558  -0.004862  4.208559  -0.005  0.599471  -0.004248  4.20565  -0.004  0.194984  0.538625  -0.005509  4.208577  -0.006
C  C51  1  0.57763656  0.84003928  0.25719284  1  0.609371  -0.012875  3.907289  -0.011  0.563556  -0.004861  4.208615  -0.005  0.599468  -0.004247  4.205707  -0.004  0.194963  0.538619  -0.005509  4.208625  -0.006
C  C52  1  0.85017103  0.10791697  0.86801181  1  -0.004667  -0.004379  3.765505  -0.003  -0.036774  -0.001235  4.045278  0.0  -0.032738  -0.001785  4.064739  -0.001  -0.010398  -0.039508  -0.000922  4.032022  0.0
C  C53  1  0.14982754  0.89208355  0.13198979  1  -0.004525  -0.004365  3.765399  -0.003  -0.036601  -0.001237  4.045158  0.0  -0.032564  -0.001788  4.064615  -0.001  -0.010272  -0.039335  -0.000922  4.031903  0.0
C  C54  1  0.95744672  0.15585279  0.99775497  1  -0.091353  0.003765  3.728612  0.004  -0.133925  0.001541  3.994859  0.002  -0.132844  0.001358  4.013595  0.002  -0.011558  -0.134682  0.001777  3.982334  0.002
C  C55  1  0.04255224  0.84414883  0.00224614  1  -0.09154  0.003756  3.728565  0.004  -0.134084  0.001543  3.994815  0.002  -0.133001  0.00136  4.013549  0.002  -0.011614  -0.13484  0.001777  3.982294  0.002
C  C56  1  0.72255409  0.07543924  0.99578368  1  0.159591  -0.012139  3.616667  -0.007  0.104415  -0.003922  3.887044  -0.002  0.120547  -0.004351  3.898379  -0.002  0.140545  0.093237  -0.003583  3.879796  -0.001
C  C57  1  0.27744557  0.92456128  0.00421639  1  0.159597  -0.012145  3.616507  -0.007  0.104443  -0.003925  3.886854  -0.002  0.120574  -0.004353  3.898192  -0.002  0.140574  0.09328  -0.003584  3.879607  -0.001
C  C58  1  0.93936241  0.17321204  0.22500345  1  -0.000666  0.000749  3.598444  0.001  -0.060229  0.00059  3.851494  0.001  -0.056386  0.00042  3.862682  0.001  -0.049741  -0.06261  0.000808  3.843553  0.001
C  C59  1  0.06063686  0.82678739  0.77499711  1  -0.000687  0.000745  3.598351  0.001  -0.060283  0.000589  3.851465  0.001  -0.056445  0.000421  3.862663  0.001  -0.049749  -0.062668  0.000808  3.843532  0.001
C  C60  1  0.97157697  0.33474940  0.31214316  1  -0.139793  -0.000323  3.649129  0.0  -0.182894  -0.000164  3.912104  0.0  -0.184991  -0.000139  3.925818  0.0  -0.162904  -0.181163  -0.000141  3.9027  0.0
C  C61  1  0.02842269  0.66525112  0.68785871  1  -0.139765  -0.000318  3.649077  0.0  -0.182858  -0.000161  3.912032  0.0  -0.184959  -0.000139  3.925753  0.0  -0.162883  -0.181132  -0.00014  3.902628  0.0
C  C62  1  0.07821117  0.43846899  0.27642449  1  -0.014474  0.000572  3.63821  0.001  -0.077498  0.000412  3.89674  0.001  -0.073942  0.000299  3.90775  0.0  -0.064355  -0.079416  0.000583  3.888589  0.001
C  C63  1  0.92178848  0.56153153  0.72357648  1  -0.014451  0.00057  3.638191  0.001  -0.077481  0.000411  3.896746  0.001  -0.073925  0.000297  3.907757  0.0  -0.064345  -0.079397  0.000583  3.888596  0.001
C  C64  1  0.06478087  0.69704242  0.37376163  1  -0.086551  0.003496  3.691997  0.004  -0.122627  0.001475  3.943771  0.002  -0.120844  0.001301  3.961444  0.002  -0.008248  -0.12406  0.001728  3.932397  0.002
C  C65  1  0.93521545  0.30295480  0.62623760  1  -0.086664  0.003475  3.692202  0.004  -0.122745  0.001476  3.943966  0.002  -0.120963  0.0013  3.961641  0.002  -0.008274  -0.12418  0.001728  3.932593  0.002
C  C66  1  0.17056028  0.82668542  0.47631843  1  0.012181  -0.003722  3.740553  -0.002  -0.014613  -0.000892  4.005824  0.0  -0.010931  -0.001331  4.025146  -0.001  0.002256  -0.017184  -0.000642  3.99297  0.0
C  C67  1  0.82943829  0.17331509  0.52368407  1  0.012174  -0.003688  3.740683  -0.002  -0.014617  -0.000893  4.005951  0.0  -0.010934  -0.00133  4.025275  -0.001  0.002228  -0.017188  -0.000642  3.993095  0.0
C  C68  1  0.28059210  0.66047335  0.46933734  1  0.151182  -0.013157  3.639986  -0.008  0.096719  -0.004968  3.906078  -0.003  0.111764  -0.005217  3.918626  -0.003  0.138764  0.086261  -0.005071  3.898139  -0.002
C  C69  1  0.71940755  0.33952717  0.53066363  1  0.151196  -0.01313  3.639908  -0.008  0.096746  -0.004969  3.905997  -0.003  0.111792  -0.005218  3.918545  -0.003  0.138773  0.086287  -0.005071  3.89806  -0.002
Br  Br70  1  0.19014402  0.51958401  0.02656250  1  -0.040469  0.000246  1.41551  0.0  -0.030944  0.00013  1.704452  0.0  -0.036609  6.7e-05  1.70119  0.0  0.077145  -0.027209  7.9e-05  1.709819  0.0
Br  Br71  1  0.80984997  0.48040663  0.97342982  1  -0.04046  0.000244  1.415528  0.0  -0.030932  0.00013  1.704464  0.0  -0.036597  6.7e-05  1.701205  0.0  0.077149  -0.02719  7.9e-05  1.709832  0.0
N  N72  1  0.70438203  0.05740091  0.86807147  1  -0.335987  0.047588  3.309998  0.075  -0.301202  0.031141  3.616468  0.05  -0.330933  0.024583  3.636638  0.042  -0.355585  -0.280174  0.03652  3.60268  0.056
N  N73  1  0.29561615  0.94259852  0.13192972  1  -0.336045  0.047588  3.30996  0.075  -0.301292  0.031142  3.616459  0.05  -0.331024  0.024584  3.636628  0.042  -0.355665  -0.280261  0.036521  3.602659  0.056
N  N74  1  0.87498773  0.13525208  0.07795271  1  -0.068898  0.000438  3.564516  0.002  0.028203  0.000407  3.779011  0.001  0.013409  0.000204  3.805429  0.001  -0.246776  0.03803  0.000589  3.761293  0.001
N  N75  1  0.12501014  0.86474954  0.92204813  1  -0.068794  0.000443  3.564262  0.002  0.028294  0.000407  3.778756  0.001  0.013501  0.000204  3.805174  0.001  -0.246779  0.038121  0.000588  3.761033  0.001
N  N76  1  0.13682692  0.59271490  0.37071444  1  -0.054013  0.000144  3.565316  0.001  0.042705  0.000119  3.779543  0.001  0.028757  3.1e-05  3.804558  0.001  -0.244504  0.051902  0.000167  3.762775  0.001
N  N77  1  0.86317235  0.40728452  0.62928612  1  -0.053945  0.000143  3.5653  0.001  0.042767  0.000117  3.779532  0.001  0.028819  2.8e-05  3.804546  0.001  -0.244473  0.051963  0.000166  3.762768  0.001
N  N78  1  0.30457995  0.80245262  0.53546246  1  -0.343929  0.044096  3.303936  0.071  -0.308371  0.029186  3.608797  0.047  -0.336938  0.023161  3.6276  0.04  -0.354953  -0.288605  0.034191  3.59664  0.053
N  N79  1  0.69541932  0.19754680  0.46453810  1  -0.343911  0.044084  3.303949  0.071  -0.308348  0.029185  3.608798  0.047  -0.336917  0.023161  3.627601  0.04  -0.354946  -0.288579  0.034189  3.596638  0.053
O  O80  1  0.47500243  0.78127136  0.77593695  1  -0.595358  0.056016  2.117443  0.095  -0.573275  0.035797  2.397574  0.063  -0.613567  0.026274  2.389506  0.049  -0.311567  -0.543225  0.044081  2.402673  0.074
O  O81  1  0.52499823  0.21872588  0.22405885  1  -0.595344  0.056021  2.117387  0.095  -0.573256  0.035799  2.397532  0.063  -0.613547  0.026276  2.389454  0.049  -0.311583  -0.543214  0.044081  2.402649  0.074
O  O82  1  0.59233676  0.63985500  0.66896582  1  -0.622766  -0.002549  1.938136  -0.001  -0.572616  -0.001633  2.159123  0.0  -0.597013  -0.001629  2.148445  -0.001  -0.32205  -0.555161  -0.001451  2.166056  0.0
O  O83  1  0.40766826  0.36014224  0.33103194  1  -0.622649  -0.002546  1.938264  -0.001  -0.572497  -0.001635  2.159264  0.0  -0.596894  -0.001629  2.148583  -0.001  -0.321969  -0.555042  -0.001451  2.166196  0.0
O  O84  1  0.48696930  0.12896915  0.65651791  1  -0.591179  0.041581  2.008826  0.07  -0.553646  0.028856  2.255617  0.05  -0.591094  0.020896  2.248985  0.038  -0.300405  -0.524906  0.03675  2.258462  0.06
O  O85  1  0.51303137  0.87102808  0.34348238  1  -0.591176  0.041582  2.008813  0.07  -0.553659  0.028856  2.255565  0.05  -0.591121  0.020895  2.248952  0.038  -0.300424  -0.524922  0.03675  2.258407  0.06
O  O86  1  0.38686395  0.07194630  0.79827743  1  -0.581336  0.049382  1.958678  0.081  -0.560474  0.032459  2.217628  0.055  -0.597318  0.023025  2.21142  0.042  -0.306581  -0.532463  0.040948  2.220797  0.066
O  O87  1  0.61313128  0.92805092  0.20172064  1  -0.581301  0.049387  1.958702  0.081  -0.560447  0.032459  2.217631  0.055  -0.59729  0.023023  2.211423  0.042  -0.306546  -0.532442  0.040949  2.22081  0.066
O  O88  1  0.63881879  0.86547777  0.59398004  1  -0.795489  0.044916  1.947341  0.074  -0.766788  0.032765  2.147894  0.054  -0.798059  0.024388  2.112867  0.043  -0.574793  -0.742764  0.040225  2.17211  0.063
O  O89  1  0.36117978  0.13452275  0.40602156  1  -0.795616  0.044915  1.947136  0.074  -0.76689  0.032765  2.147746  0.054  -0.798164  0.024388  2.112719  0.043  -0.574831  -0.742861  0.040224  2.17197  0.063
