# generated using pymatgen
data_ZnH9C9N5O2
_symmetry_space_group_name_H-M   'P 1'
_cell_length_a   10.14895206
_cell_length_b   12.18492414
_cell_length_c   12.10680000
_cell_angle_alpha   84.62826577
_cell_angle_beta   65.84108623
_cell_angle_gamma   66.28677090
_symmetry_Int_Tables_number   1
_chemical_formula_structural   ZnH9C9N5O2
_chemical_formula_sum   'Zn4 H36 C36 N20 O8'
_cell_volume   1246.18807308
_cell_formula_units_Z   4
loop_
 _symmetry_equiv_pos_site_id
 _symmetry_equiv_pos_as_xyz
  1  'x, y, z'
loop_
 _atom_site_type_symbol
 _atom_site_label
 _atom_site_symmetry_multiplicity
 _atom_site_fract_x
 _atom_site_fract_y
 _atom_site_fract_z
 _atom_site_occupancy
 _atom_site_hle17_bader_spin_density
 _atom_site_hle17_ddec_charge
 _atom_site_hle17_ddec_spin_density
 _atom_site_hle17_ddec_sum_bond_order
 _atom_site_hle17_magmom
 _atom_site_hse06_10hf_bader_spin_density
 _atom_site_hse06_10hf_ddec_charge
 _atom_site_hse06_10hf_ddec_spin_density
 _atom_site_hse06_10hf_ddec_sum_bond_order
 _atom_site_hse06_10hf_magmom
 _atom_site_hse06_bader_spin_density
 _atom_site_hse06_ddec_charge
 _atom_site_hse06_ddec_spin_density
 _atom_site_hse06_ddec_sum_bond_order
 _atom_site_hse06_magmom
 _atom_site_pbe_bader_charge
 _atom_site_pbe_bader_spin_density
 _atom_site_pbe_cm5_charge
 _atom_site_pbe_ddec_charge
 _atom_site_pbe_ddec_spin_density
 _atom_site_pbe_ddec_sum_bond_order
 _atom_site_pbe_magmom
Zn  Zn0  1  0.15703040  0.86122280  0.65343099  1  0  0.926311  0  1.953124  0  0  0.722842  0  2.440139  0  0  0.766026  0  2.391376  0  1.230955  0  0.729689  0.692385  0  2.474122  0
Zn  Zn1  1  0.34127499  0.34934113  0.14139025  1  0  0.926927  0  1.949435  0  0  0.723  0  2.435814  0  0  0.766154  0  2.387206  0  1.220138  0  0.728466  0.692559  0  2.469737  0
Zn  Zn2  1  0.84296981  0.13877800  0.34656903  1  0  0.926339  0  1.95308  0  0  0.722849  0  2.440085  0  0  0.766039  0  2.391312  0  1.230972  0  0.729691  0.692394  0  2.474075  0
Zn  Zn3  1  0.65872461  0.65065877  0.85861007  1  0  0.926883  0  1.94946  0  0  0.72297  0  2.435852  0  0  0.766126  0  2.38724  0  1.220163  0  0.72845  0.692522  0  2.469764  0
H  H4  1  0.29556579  0.98002834  0.21718020  1  0  0.123489  0  0.93658  0  0  0.13277  0  0.994096  0  0  0.136072  0  0.993527  0  0.129953  0  0.11623  0.130377  0  0.994638  0
H  H5  1  0.20659416  0.78085799  0.01776038  1  0  0.123169  0  0.93823  0  0  0.132263  0  0.996302  0  0  0.135484  0  0.995849  0  0.131513  0  0.116174  0.129924  0  0.996735  0
H  H6  1  0.70443428  0.01997065  0.78281921  1  0  0.123458  0  0.9366  0  0  0.132769  0  0.99409  0  0  0.136071  0  0.993521  0  0.129944  0  0.116223  0.130367  0  0.994644  0
H  H7  1  0.79340544  0.21914190  0.98223910  1  0  0.12319  0  0.938296  0  0  0.1323  0  0.996328  0  0  0.135523  0  0.995875  0  0.131509  0  0.11619  0.129961  0  0.996762  0
H  H8  1  0.16454514  0.00936504  0.44750093  1  0  0.090107  0  0.955973  0  0  0.093828  0  1.027086  0  0  0.096986  0  1.024145  0  0.163087  0  0.118258  0.091393  0  1.029404  0
H  H9  1  0.33643610  0.55265422  0.98975531  1  0  0.090217  0  0.955744  0  0  0.093925  0  1.026908  0  0  0.097044  0  1.023997  0  0.146622  0  0.1185  0.091581  0  1.029119  0
H  H10  1  0.83545351  0.99063666  0.55249872  1  0  0.090123  0  0.955976  0  0  0.093842  0  1.027087  0  0  0.097  0  1.024146  0  0.163108  0  0.118267  0.091407  0  1.029406  0
H  H11  1  0.66356303  0.44734657  0.01024343  1  0  0.090229  0  0.955737  0  0  0.093947  0  1.02689  0  0  0.097065  0  1.023982  0  0.146623  0  0.118499  0.091602  0  1.029101  0
H  H12  1  0.38847628  0.64504064  0.47503519  1  0  0.082102  0  0.930426  0  0  0.089513  0  0.993301  0  0  0.092344  0  0.990782  0  0.117032  0  0.11966  0.087282  0  0.995373  0
H  H13  1  0.10833741  0.52785981  0.35807936  1  0  0.081836  0  0.929292  0  0  0.088934  0  0.992335  0  0  0.091815  0  0.98976  0  0.101097  0  0.118974  0.0867  0  0.994427  0
H  H14  1  0.61152332  0.35495925  0.52496512  1  0  0.082116  0  0.930423  0  0  0.08953  0  0.993287  0  0  0.09236  0  0.990771  0  0.117037  0  0.119667  0.087297  0  0.995361  0
H  H15  1  0.89166172  0.47214098  0.64192103  1  0  0.081867  0  0.929255  0  0  0.08894  0  0.992321  0  0  0.091821  0  0.989745  0  0.10109  0  0.118972  0.086707  0  0.994413  0
H  H16  1  0.52270178  0.60192188  0.24797524  1  0  0.121771  0  0.970647  0  0  0.12255  0  1.044672  0  0  0.127051  0  1.041268  0  0.15514  0  0.110613  0.119327  0  1.047203  0
H  H17  1  0.97463605  0.75281685  0.39997450  1  0  0.121221  0  0.973903  0  0  0.121707  0  1.048878  0  0  0.126165  0  1.04545  0  0.136349  0  0.110095  0.118529  0  1.051395  0
H  H18  1  0.47729674  0.39807801  0.75202627  1  0  0.121754  0  0.970664  0  0  0.122537  0  1.044686  0  0  0.127038  0  1.041281  0  0.155133  0  0.110605  0.119313  0  1.047217  0
H  H19  1  0.02536045  0.24718484  0.60002671  1  0  0.121188  0  0.973958  0  0  0.12169  0  1.048914  0  0  0.126147  0  1.045487  0  0.13637  0  0.11009  0.118512  0  1.051431  0
H  H20  1  0.95103330  0.83770315  0.91674741  1  0  0.109892  0  0.938036  0  0  0.124151  0  0.997544  0  0  0.126555  0  0.995837  0  0.084492  0  0.103867  0.122474  0  0.998711  0
H  H21  1  0.54846198  0.08420618  0.16141882  1  0  0.11242  0  0.940628  0  0  0.126677  0  0.999786  0  0  0.12907  0  0.998111  0  0.111884  0  0.104478  0.124981  0  1.000968  0
H  H22  1  0.04896380  0.16229945  0.08325434  1  0  0.109913  0  0.937998  0  0  0.124177  0  0.997507  0  0  0.126582  0  0.995799  0  0.084503  0  0.103883  0.1225  0  0.998674  0
H  H23  1  0.45154120  0.91579102  0.83857887  1  0  0.112433  0  0.940604  0  0  0.126674  0  0.999784  0  0  0.129068  0  0.998106  0  0.111916  0  0.104474  0.124961  0  1.000986  0
H  H24  1  0.76133432  0.83642119  0.97823314  1  0  0.110568  0  0.915214  0  0  0.128123  0  0.966602  0  0  0.12963  0  0.966408  0  0.099394  0  0.107104  0.127119  0  0.966729  0
H  H25  1  0.73798603  0.02418537  0.16187644  1  0  0.109869  0  0.915087  0  0  0.127929  0  0.966551  0  0  0.129423  0  0.966319  0  0.107486  0  0.10746  0.126938  0  0.966672  0
H  H26  1  0.23866218  0.16358050  0.02176807  1  0  0.110522  0  0.915265  0  0  0.128074  0  0.966666  0  0  0.129581  0  0.966471  0  0.099403  0  0.107066  0.12707  0  0.966793  0
H  H27  1  0.26201822  0.97581183  0.83812253  1  0  0.109878  0  0.915104  0  0  0.127917  0  0.966591  0  0  0.12941  0  0.96636  0  0.107536  0  0.107456  0.126926  0  0.966709  0
H  H28  1  0.87898505  0.60944630  0.98110297  1  0  0.094493  0  0.970387  0  0  0.114198  0  1.035173  0  0  0.115738  0  1.035216  0  0.0332  0  0.08311  0.113026  0  1.035222  0
H  H29  1  0.62025788  0.02004622  0.39074147  1  0  0.095358  0  0.972628  0  0  0.114887  0  1.037787  0  0  0.116422  0  1.03784  0  0.043652  0  0.083893  0.113735  0  1.037803  0
H  H30  1  0.12101469  0.39055539  0.01889796  1  0  0.094504  0  0.970409  0  0  0.114214  0  1.035188  0  0  0.115753  0  1.035233  0  0.033209  0  0.083107  0.113041  0  1.035238  0
H  H31  1  0.37974421  0.97995098  0.60925742  1  0  0.095384  0  0.972575  0  0  0.114886  0  1.037763  0  0  0.11642  0  1.037816  0  0.04363  0  0.083881  0.113733  0  1.037779  0
H  H32  1  0.93472846  0.67969399  0.06590643  1  0  0.097653  0  0.950204  0  0  0.120197  0  1.006462  0  0  0.121079  0  1.008012  0  0.049649  0  0.086372  0.119382  0  1.005783  0
H  H33  1  0.56460370  0.93574907  0.32002577  1  0  0.098769  0  0.949189  0  0  0.121511  0  1.004974  0  0  0.122365  0  1.006566  0  0.04325  0  0.086765  0.120716  0  1.004263  0
H  H34  1  0.06527019  0.32030771  0.93409404  1  0  0.097694  0  0.950165  0  0  0.120248  0  1.006402  0  0  0.121132  0  1.00795  0  0.049498  0  0.0864  0.119433  0  1.005723  0
H  H35  1  0.43539745  0.06424992  0.67997327  1  0  0.098814  0  0.949175  0  0  0.121536  0  1.004972  0  0  0.12239  0  1.006565  0  0.043259  0  0.086787  0.120742  0  1.004262  0
H  H36  1  0.07152650  0.60943641  0.91806827  1  0  0.096131  0  0.951608  0  0  0.115354  0  1.014518  0  0  0.116518  0  1.015007  0  0.043687  0  0.084536  0.11451  0  1.014167  0
H  H37  1  0.42758944  0.08150912  0.39206183  1  0  0.096643  0  0.951345  0  0  0.116207  0  1.013575  0  0  0.117429  0  1.014013  0  0.012452  0  0.085025  0.115347  0  1.013232  0
H  H38  1  0.92847216  0.39056529  0.08193303  1  0  0.096133  0  0.951606  0  0  0.115357  0  1.014518  0  0  0.11652  0  1.015006  0  0.043665  0  0.084526  0.114513  0  1.014166  0
H  H39  1  0.57241278  0.91848987  0.60793519  1  0  0.096737  0  0.951283  0  0  0.116285  0  1.013525  0  0  0.117509  0  1.013961  0  0.012413  0  0.085077  0.115424  0  1.013183  0
C  C40  1  0.42015335  0.78941787  0.21681426  1  0  0.000606  0  3.722442  0  0  0.020128  0  3.949833  0  0  0.017872  0  3.970995  0  0.029366  0  0.00859  0.021915  0  3.935666  0
C  C41  1  0.07986592  0.78259066  0.21036605  1  0  0.002167  0  3.717861  0  0  0.022051  0  3.944833  0  0  0.019841  0  3.965921  0  -0.068619  0  0.008569  0.023816  0  3.930736  0
C  C42  1  0.57984362  0.21058292  0.78318770  1  0  0.000645  0  3.722455  0  0  0.02019  0  3.949817  0  0  0.017931  0  3.97098  0  0.029566  0  0.008603  0.021978  0  3.935647  0
C  C43  1  0.92013644  0.21741013  0.78963406  1  0  0.002188  0  3.717866  0  0  0.022065  0  3.944831  0  0  0.019854  0  3.965921  0  -0.068682  0  0.008596  0.023829  0  3.930736  0
C  C44  1  0.31769371  0.90501178  0.27292252  1  0  -0.11114  0  3.694214  0  0  -0.13305  0  3.94178  0  0  -0.138736  0  3.963156  0  -0.00637  0  -0.071181  -0.12955  0  3.927836  0
C  C45  1  0.18326902  0.72614134  0.09398455  1  0  -0.111984  0  3.693054  0  0  -0.133993  0  3.940892  0  0  -0.13968  0  3.962317  0  0.073475  0  -0.071252  -0.13049  0  3.926925  0
C  C46  1  0.68230528  0.09498722  0.72707809  1  0  -0.111091  0  3.694149  0  0  -0.133035  0  3.941702  0  0  -0.13872  0  3.963079  0  -0.006359  0  -0.071167  -0.129529  0  3.927762  0
C  C47  1  0.81672950  0.27385856  0.90601613  1  0  -0.112067  0  3.693182  0  0  -0.134063  0  3.940995  0  0  -0.139753  0  3.962423  0  0.073635  0  -0.071305  -0.130561  0  3.92703  0
C  C48  1  0.24561590  0.92121752  0.39887486  1  0  0.128728  0  3.671347  0  0  0.09681  0  3.924924  0  0  0.103137  0  3.942271  0  0.364651  0  0.050207  0.092622  0  3.913573  0
C  C49  1  0.25487970  0.60135063  0.07851104  1  0  0.129015  0  3.67208  0  0  0.097137  0  3.925624  0  0  0.103491  0  3.943047  0  0.377273  0  0.04998  0.092892  0  3.914211  0
C  C50  1  0.75438370  0.07878237  0.60112628  1  0  0.128711  0  3.671283  0  0  0.096795  0  3.92485  0  0  0.103122  0  3.942199  0  0.364643  0  0.050213  0.092608  0  3.913498  0
C  C51  1  0.74511868  0.39864747  0.92148904  1  0  0.129007  0  3.672134  0  0  0.097099  0  3.925708  0  0  0.103451  0  3.943131  0  0.377032  0  0.049972  0.092856  0  3.914288  0
C  C52  1  0.37148111  0.71678710  0.41460547  1  0  0.124573  0  3.696093  0  0  0.093836  0  3.944  0  0  0.099308  0  3.963109  0  0.45512  0  0.050065  0.090263  0  3.931239  0
C  C53  1  0.12656374  0.58719781  0.28515309  1  0  0.124825  0  3.695449  0  0  0.094984  0  3.943018  0  0  0.100407  0  3.962166  0  0.418266  0  0.051208  0.091418  0  3.93025  0
C  C54  1  0.62851802  0.28321370  0.58539574  1  0  0.124519  0  3.696058  0  0  0.093779  0  3.943958  0  0  0.09925  0  3.963069  0  0.455131  0  0.050027  0.090208  0  3.931197  0
C  C55  1  0.87343539  0.41280298  0.71484648  1  0  0.124822  0  3.695361  0  0  0.095008  0  3.942925  0  0  0.100429  0  3.962071  0  0.418266  0  0.051228  0.09144  0  3.930158  0
C  C56  1  0.44686709  0.69338979  0.28913159  1  0  -0.115854  0  3.696325  0  0  -0.136445  0  3.940086  0  0  -0.141967  0  3.961161  0  -0.035018  0  -0.074561  -0.133041  0  3.926361  0
C  C57  1  0.05133537  0.71155221  0.30784356  1  0  -0.115338  0  3.694063  0  0  -0.136585  0  3.938255  0  0  -0.142005  0  3.959325  0  0.064713  0  -0.073351  -0.133266  0  3.924554  0
C  C58  1  0.55313096  0.30661100  0.71087000  1  0  -0.115882  0  3.696318  0  0  -0.136489  0  3.940081  0  0  -0.142008  0  3.961155  0  -0.035252  0  -0.074571  -0.133085  0  3.926358  0
C  C59  1  0.94866483  0.28844858  0.69215646  1  0  -0.115293  0  3.694112  0  0  -0.136552  0  3.938272  0  0  -0.14197  0  3.95934  0  0.064771  0  -0.073349  -0.133234  0  3.924575  0
C  C60  1  0.49769468  0.77049708  0.08044493  1  0  0.616984  0  3.940228  0  0  0.569773  0  4.230991  0  0  0.60214  0  4.224907  0  1.602202  0  0.200219  0.547646  0  4.234731  0
C  C61  1  0.00359305  0.91783045  0.22832540  1  0  0.613546  0  3.945847  0  0  0.566638  0  4.236254  0  0  0.598979  0  4.230329  0  1.591582  0  0.199302  0.544528  0  4.239879  0
C  C62  1  0.50230539  0.22950192  0.91955448  1  0  0.616993  0  3.94029  0  0  0.56978  0  4.231038  0  0  0.60215  0  4.224952  0  1.602221  0  0.200226  0.547653  0  4.234775  0
C  C63  1  0.99640870  0.08216944  0.77167334  1  0  0.613421  0  3.94592  0  0  0.566505  0  4.236341  0  0  0.598847  0  4.230418  0  1.591578  0  0.199238  0.544396  0  4.239966  0
C  C64  1  0.89878019  0.76575338  0.79608096  1  0  0.377292  0  3.689398  0  0  0.349596  0  3.953968  0  0  0.364132  0  3.969762  0  0.974175  0  0.240008  0.340204  0  3.94271  0
C  C65  1  0.60092819  0.20421452  0.23399192  1  0  0.376356  0  3.691502  0  0  0.349665  0  3.955414  0  0  0.364253  0  3.971067  0  0.973004  0  0.239183  0.340232  0  3.944236  0
C  C66  1  0.10121846  0.23424831  0.20392033  1  0  0.377232  0  3.689488  0  0  0.34955  0  3.954049  0  0  0.364086  0  3.969844  0  0.97415  0  0.240008  0.340159  0  3.942788  0
C  C67  1  0.39907343  0.79578358  0.76600539  1  0  0.376307  0  3.691547  0  0  0.349693  0  3.955381  0  0  0.36428  0  3.971035  0  0.973042  0  0.239187  0.340261  0  3.944197  0
C  C68  1  0.88602333  0.78291722  0.92073392  1  0  -0.172538  0  3.698139  0  0  -0.20538  0  3.948826  0  0  -0.208096  0  3.959392  0  0.001883  0  -0.152458  -0.203525  0  3.941292  0
C  C69  1  0.61323382  0.08064369  0.21629247  1  0  -0.172598  0  3.697881  0  0  -0.207013  0  3.949932  0  0  -0.209625  0  3.960198  0  -0.036582  0  -0.15382  -0.205207  0  3.9426  0
C  C70  1  0.11397532  0.21708447  0.07926737  1  0  -0.172398  0  3.698131  0  0  -0.205264  0  3.948839  0  0  -0.20798  0  3.959407  0  0.001716  0  -0.152393  -0.203409  0  3.941303  0
C  C71  1  0.38676996  0.91935441  0.78370493  1  0  -0.172619  0  3.697961  0  0  -0.207021  0  3.949957  0  0  -0.209632  0  3.960223  0  -0.036591  0  -0.153815  -0.205201  0  3.942628  0
C  C72  1  0.94659815  0.66291608  0.97412134  1  0  -0.269987  0  3.701544  0  0  -0.343414  0  3.941863  0  0  -0.346302  0  3.95341  0  -0.082546  0  -0.244956  -0.341114  0  3.933948  0
C  C73  1  0.55259760  0.02686803  0.33729095  1  0  -0.273817  0  3.703437  0  0  -0.347149  0  3.944288  0  0  -0.350108  0  3.95575  0  -0.059614  0  -0.246576  -0.344834  0  3.936409  0
C  C74  1  0.05340097  0.33708471  0.02587987  1  0  -0.270095  0  3.701552  0  0  -0.343525  0  3.941866  0  0  -0.346412  0  3.953413  0  -0.082401  0  -0.244979  -0.341224  0  3.93395  0
C  C75  1  0.44740463  0.97313096  0.66270606  1  0  -0.273974  0  3.703455  0  0  -0.347257  0  3.944304  0  0  -0.350219  0  3.955763  0  -0.059605  0  -0.246644  -0.344941  0  3.936421  0
N  N76  1  0.27312298  0.82866827  0.46839346  1  0  -0.320938  0  3.315532  0  0  -0.236295  0  3.592689  0  0  -0.253714  0  3.607437  0  -1.256433  0  -0.330858  -0.224473  0  3.58273  0
N  N77  1  0.22634227  0.53302543  0.17258910  1  0  -0.322031  0  3.311767  0  0  -0.237249  0  3.588785  0  0  -0.254746  0  3.603547  0  -1.268334  0  -0.330826  -0.225397  0  3.578898  0
N  N78  1  0.72687675  0.17133343  0.53160746  1  0  -0.320909  0  3.315479  0  0  -0.236252  0  3.592612  0  0  -0.253672  0  3.607363  0  -1.256395  0  -0.330849  -0.224431  0  3.582654  0
N  N79  1  0.77365780  0.46697357  0.82741031  1  0  -0.322027  0  3.311747  0  0  -0.237252  0  3.58878  0  0  -0.254745  0  3.603534  0  -1.268272  0  -0.330814  -0.225397  0  3.578888  0
N  N80  1  0.99419064  0.79379722  0.69317667  1  0  -0.358731  0  3.215337  0  0  -0.286733  0  3.527311  0  0  -0.306267  0  3.537434  0  -0.789311  0  -0.247003  -0.273012  0  3.519921  0
N  N81  1  0.50464613  0.30697355  0.20851970  1  0  -0.359305  0  3.212547  0  0  -0.287484  0  3.523893  0  0  -0.306988  0  3.533867  0  -0.790916  0  -0.246263  -0.273788  0  3.516615  0
N  N82  1  0.00581065  0.20620357  0.30682381  1  0  -0.358641  0  3.215369  0  0  -0.28665  0  3.527338  0  0  -0.306183  0  3.537459  0  -0.789289  0  -0.246982  -0.27293  0  3.519947  0
N  N83  1  0.49535562  0.69302635  0.79147739  1  0  -0.359314  0  3.212489  0  0  -0.287524  0  3.523837  0  0  -0.30703  0  3.533809  0  -0.790923  0  -0.246293  -0.273826  0  3.516553  0
N  N84  1  0.97122264  0.76236991  0.59971438  1  0  -0.075001  0  2.975068  0  0  -0.070295  0  3.272649  0  0  -0.069351  0  3.28437  0  -0.131165  0  -0.092251  -0.070741  0  3.264653  0
N  N85  1  0.53007600  0.39871224  0.23982981  1  0  -0.075043  0  2.979993  0  0  -0.070299  0  3.277765  0  0  -0.069333  0  3.289317  0  -0.118171  0  -0.092461  -0.070761  0  3.269882  0
N  N86  1  0.02877804  0.23762998  0.40028639  1  0  -0.075078  0  2.975121  0  0  -0.070375  0  3.272713  0  0  -0.069432  0  3.284435  0  -0.131178  0  -0.092292  -0.070821  0  3.264716  0
N  N87  1  0.46992407  0.60128675  0.76017125  1  0  -0.075046  0  2.979884  0  0  -0.070296  0  3.277656  0  0  -0.06933  0  3.289209  0  -0.118202  0  -0.092453  -0.070758  0  3.269774  0
N  N88  1  0.81837435  0.71782616  0.76581691  1  0  -0.360413  0  3.221053  0  0  -0.285023  0  3.528809  0  0  -0.304705  0  3.538914  0  -0.807626  0  -0.251972  -0.271321  0  3.521549  0
N  N89  1  0.68416961  0.23296545  0.28009805  1  0  -0.357987  0  3.226906  0  0  -0.28242  0  3.534242  0  0  -0.302164  0  3.544391  0  -0.784583  0  -0.250227  -0.26869  0  3.526959  0
N  N90  1  0.18162585  0.28217464  0.23418311  1  0  -0.36046  0  3.221022  0  0  -0.285069  0  3.528783  0  0  -0.304749  0  3.53888  0  -0.807429  0  -0.252005  -0.271371  0  3.52153  0
N  N91  1  0.31583201  0.76703264  0.71990009  1  0  -0.35794  0  3.22703  0  0  -0.282427  0  3.534382  0  0  -0.302168  0  3.544527  0  -0.784612  0  -0.250215  -0.268696  0  3.527094  0
N  N92  1  0.86609156  0.71670793  0.64311107  1  0  -0.092269  0  2.945635  0  0  -0.090543  0  3.236703  0  0  -0.088875  0  3.247503  0  -0.086536  0  -0.102169  -0.091631  0  3.229484  0
N  N93  1  0.63738334  0.35450134  0.28289280  1  0  -0.09387  0  2.954851  0  0  -0.092889  0  3.246756  0  0  -0.091147  0  3.257493  0  -0.111065  0  -0.102796  -0.094014  0  3.239558  0
N  N94  1  0.13391020  0.28329197  0.35688932  1  0  -0.092236  0  2.94557  0  0  -0.090506  0  3.236629  0  0  -0.088838  0  3.24743  0  -0.086571  0  -0.102147  -0.091595  0  3.229411  0
N  N95  1  0.36261517  0.64549855  0.71710788  1  0  -0.093832  0  2.954902  0  0  -0.092839  0  3.24681  0  0  -0.091098  0  3.25755  0  -0.111087  0  -0.102777  -0.093965  0  3.239613  0
O  O96  1  0.47948830  0.85838180  0.01817589  1  0  -0.582928  0  1.903609  0  0  -0.541406  0  2.121019  0  0  -0.562438  0  2.112199  0  -1.17162  0  -0.307557  -0.526929  0  2.126726  0
O  O97  1  0.02453510  0.97869601  0.13899244  1  0  -0.581647  0  1.902809  0  0  -0.539509  0  2.119322  0  0  -0.560577  0  2.110629  0  -1.161821  0  -0.307195  -0.524964  0  2.124884  0
O  O98  1  0.52051177  0.14161720  0.98182600  1  0  -0.582926  0  1.903626  0  0  -0.541417  0  2.121038  0  0  -0.562449  0  2.112217  0  -1.171667  0  -0.307555  -0.526941  0  2.126746  0
O  O99  1  0.97547037  0.02130299  0.86100595  1  0  -0.581616  0  1.902759  0  0  -0.53948  0  2.119288  0  0  -0.56054  0  2.11058  0  -1.161801  0  -0.307189  -0.524933  0  2.124842  0
O  O100  1  0.58107650  0.65877873  0.03662990  1  0  -0.641106  0  2.062853  0  0  -0.564785  0  2.334618  0  0  -0.593817  0  2.321797  0  -1.157705  0  -0.333659  -0.544336  0  2.343274  0
O  O101  1  0.91836382  0.96244708  0.34066701  1  0  -0.638527  0  2.064582  0  0  -0.563223  0  2.336796  0  0  -0.592297  0  2.324124  0  -1.162691  0  -0.333195  -0.542733  0  2.345299  0
O  O102  1  0.41892249  0.34122026  0.96337154  1  0  -0.641134  0  2.06282  0  0  -0.564809  0  2.334582  0  0  -0.593839  0  2.321763  0  -1.157711  0  -0.333679  -0.544359  0  2.34324  0
O  O103  1  0.08163685  0.03755281  0.65933210  1  0  -0.638413  0  2.064636  0  0  -0.563106  0  2.336838  0  0  -0.592182  0  2.32417  0  -1.162719  0  -0.333147  -0.542617  0  2.345337  0
