# generated using pymatgen
data_ZnH8(C3O2)2
_symmetry_space_group_name_H-M   'P 1'
_cell_length_a   4.87632983
_cell_length_b   6.71369055
_cell_length_c   11.58798524
_cell_angle_alpha   106.40101468
_cell_angle_beta   94.06536222
_cell_angle_gamma   95.43301604
_symmetry_Int_Tables_number   1
_chemical_formula_structural   ZnH8(C3O2)2
_chemical_formula_sum   'Zn2 H16 C12 O8'
_cell_volume   360.39943422
_cell_formula_units_Z   2
loop_
 _symmetry_equiv_pos_site_id
 _symmetry_equiv_pos_as_xyz
  1  'x, y, z'
loop_
 _atom_site_type_symbol
 _atom_site_label
 _atom_site_symmetry_multiplicity
 _atom_site_fract_x
 _atom_site_fract_y
 _atom_site_fract_z
 _atom_site_occupancy
 _atom_site_hle17_bader_spin_density
 _atom_site_hle17_ddec_charge
 _atom_site_hle17_ddec_spin_density
 _atom_site_hle17_ddec_sum_bond_order
 _atom_site_hle17_magmom
 _atom_site_hse06_10hf_bader_spin_density
 _atom_site_hse06_10hf_ddec_charge
 _atom_site_hse06_10hf_ddec_spin_density
 _atom_site_hse06_10hf_ddec_sum_bond_order
 _atom_site_hse06_10hf_magmom
 _atom_site_hse06_bader_spin_density
 _atom_site_hse06_ddec_charge
 _atom_site_hse06_ddec_spin_density
 _atom_site_hse06_ddec_sum_bond_order
 _atom_site_hse06_magmom
 _atom_site_pbe_bader_spin_density
 _atom_site_pbe_cm5_charge
 _atom_site_pbe_ddec_charge
 _atom_site_pbe_ddec_spin_density
 _atom_site_pbe_ddec_sum_bond_order
 _atom_site_pbe_magmom
Zn  Zn0  1  0.26101922  0.28311659  0.40991712  1  0  1.175857  0  1.732567  0  0  0.996223  0  2.222998  0  0  1.048926  0  2.15358  0  0  0.704298  0.958976  0  2.271069  0
Zn  Zn1  1  0.73898531  0.71688377  0.59008268  1  0  1.175859  0  1.73261  0  0  0.996228  0  2.223053  0  0  1.048928  0  2.153631  0  0  0.704294  0.958987  0  2.271125  0
H  H2  1  0.00596068  0.84725892  0.28171281  1  0  0.099192  0  0.934504  0  0  0.108921  0  0.993574  0  0  0.111469  0  0.992491  0  0  0.107233  0.107115  0  0.99436  0
H  H3  1  0.99404154  0.15273985  0.71828581  1  0  0.099141  0  0.934571  0  0  0.108883  0  0.993626  0  0  0.111425  0  0.992553  0  0  0.107227  0.107082  0  0.994415  0
H  H4  1  0.41339822  0.68179828  0.16552625  1  0  0.078626  0  0.921546  0  0  0.090704  0  0.979721  0  0  0.092088  0  0.979885  0  0  0.103566  0.089639  0  0.979741  0
H  H5  1  0.58659792  0.31820054  0.83447654  1  0  0.078621  0  0.921565  0  0  0.090713  0  0.979705  0  0  0.092095  0  0.97987  0  0  0.103555  0.089649  0  0.979723  0
H  H6  1  0.75438901  0.49199857  0.03975898  1  0  0.09375  0  0.975591  0  0  0.115362  0  1.040855  0  0  0.11628  0  1.041679  0  0  0.08643  0.114649  0  1.040332  0
H  H7  1  0.24560503  0.50800022  0.96024202  1  0  0.093746  0  0.975589  0  0  0.115371  0  1.04084  0  0  0.11629  0  1.041662  0  0  0.086421  0.114656  0  1.040314  0
H  H8  1  0.58443910  0.33073424  0.11704400  1  0  0.102263  0  0.956129  0  0  0.122935  0  1.018687  0  0  0.124387  0  1.019046  0  0  0.087721  0.121818  0  1.018534  0
H  H9  1  0.41555697  0.66926453  0.88295533  1  0  0.102265  0  0.956118  0  0  0.122929  0  1.018687  0  0  0.124378  0  1.019051  0  0  0.087737  0.121815  0  1.018531  0
H  H10  1  0.92918894  0.45152871  0.17051738  1  0  0.114962  0  0.960475  0  0  0.133911  0  1.024915  0  0  0.13602  0  1.024473  0  0  0.088768  0.132316  0  1.025358  0
H  H11  1  0.07080661  0.54846691  0.82947970  1  0  0.115001  0  0.960366  0  0  0.133928  0  1.024843  0  0  0.136046  0  1.024394  0  0  0.088801  0.132335  0  1.025289  0
H  H12  1  0.98429372  0.79869588  0.06126582  1  0  0.100119  0  0.964354  0  0  0.123573  0  1.025482  0  0  0.124581  0  1.026249  0  0  0.089895  0.122825  0  1.024989  0
H  H13  1  0.01570596  0.20129976  0.93873223  1  0  0.100129  0  0.96436  0  0  0.123617  0  1.025444  0  0  0.124624  0  1.026209  0  0  0.089884  0.122866  0  1.024955  0
H  H14  1  0.01206702  0.06798180  0.14001825  1  0  0.104241  0  0.958406  0  0  0.12488  0  1.022081  0  0  0.126367  0  1.022293  0  0  0.090954  0.123749  0  1.022032  0
H  H15  1  0.98793263  0.93201382  0.85997894  1  0  0.104299  0  0.958408  0  0  0.124957  0  1.022045  0  0  0.12643  0  1.022271  0  0  0.09098  0.123836  0  1.021989  0
H  H16  1  0.68662368  0.93325592  0.06561071  1  0  0.091817  0  0.954661  0  0  0.11386  0  1.01727  0  0  0.115046  0  1.017498  0  0  0.085713  0.112973  0  1.017135  0
H  H17  1  0.31337600  0.06673972  0.93438735  1  0  0.091865  0  0.954649  0  0  0.113889  0  1.017281  0  0  0.115073  0  1.017508  0  0  0.08572  0.113002  0  1.017144  0
C  C18  1  0.81081816  0.86561641  0.23463419  1  0  -0.113003  0  3.656224  0  0  -0.115198  0  3.890764  0  0  -0.120931  0  3.905225  0  0  -0.093496  -0.111265  0  3.880759  0
C  C19  1  0.18918203  0.13438238  0.76536611  1  0  -0.112914  0  3.656236  0  0  -0.115165  0  3.890833  0  0  -0.120897  0  3.905289  0  0  -0.093506  -0.111237  0  3.880836  0
C  C20  1  0.61269556  0.66346155  0.20976540  1  0  -0.086705  0  3.636054  0  0  -0.086328  0  3.867891  0  0  -0.091515  0  3.882509  0  0  -0.087565  -0.082749  0  3.857828  0
C  C21  1  0.38730282  0.33653880  0.79023510  1  0  -0.08673  0  3.636067  0  0  -0.086311  0  3.86781  0  0  -0.091501  0  3.882431  0  0  -0.087547  -0.082732  0  3.857748  0
C  C22  1  0.72813386  0.47276633  0.12936489  1  0  -0.302891  0  3.667874  0  0  -0.38491  0  3.907829  0  0  -0.387591  0  3.918486  0  0  -0.245034  -0.382764  0  3.900487  0
C  C23  1  0.27186042  0.52723402  0.87063636  1  0  -0.302935  0  3.667789  0  0  -0.38495  0  3.907732  0  0  -0.387637  0  3.918379  0  0  -0.245076  -0.382808  0  3.900398  0
C  C24  1  0.69457971  0.05119087  0.31662109  1  0  0.705383  0  3.779622  0  0  0.653902  0  4.071663  0  0  0.688625  0  4.065368  0  0  0.228994  0.630212  0  4.075184  0
C  C25  1  0.30542277  0.94880948  0.68337865  1  0  0.705416  0  3.779487  0  0  0.653974  0  4.071478  0  0  0.688697  0  4.065186  0  0  0.22906  0.630285  0  4.075002  0
C  C26  1  0.87657854  0.91964620  0.11853565  1  0  -0.288728  0  3.679982  0  0  -0.371063  0  3.921767  0  0  -0.373113  0  3.932781  0  0  -0.241207  -0.369387  0  3.914131  0
C  C27  1  0.12342116  0.08034945  0.88146328  1  0  -0.288883  0  3.680066  0  0  -0.371241  0  3.921832  0  0  -0.373277  0  3.932853  0  0  -0.241227  -0.369568  0  3.914183  0
C  C28  1  0.54876099  0.61462901  0.32648760  1  0  0.721843  0  3.779915  0  0  0.6676  0  4.075174  0  0  0.70332  0  4.066948  0  0  0.236797  0.643103  0  4.08022  0
C  C29  1  0.45124071  0.38537921  0.67351684  1  0  0.721701  0  3.779636  0  0  0.667523  0  4.074781  0  0  0.703247  0  4.06655  0  0  0.236715  0.64303  0  4.079828  0
O  O30  1  0.85107885  0.21630127  0.37613365  1  0  -0.652234  0  2.052361  0  0  -0.577899  0  2.329591  0  0  -0.607228  0  2.311504  0  0  -0.315824  -0.557435  0  2.341423  0
O  O31  1  0.14892546  0.78369753  0.62386676  1  0  -0.65226  0  2.052266  0  0  -0.577943  0  2.329492  0  0  -0.607272  0  2.311403  0  0  -0.315873  -0.557481  0  2.341332  0
O  O32  1  0.43181195  0.03770218  0.31845574  1  0  -0.641781  0  2.072633  0  0  -0.562218  0  2.338894  0  0  -0.593553  0  2.325038  0  0  -0.306803  -0.540391  0  2.347711  0
O  O33  1  0.56818640  0.96229815  0.68154303  1  0  -0.641798  0  2.07264  0  0  -0.562238  0  2.338883  0  0  -0.593574  0  2.325029  0  0  -0.306818  -0.540411  0  2.347702  0
O  O34  1  0.71782814  0.70025539  0.41975345  1  0  -0.64248  0  2.111736  0  0  -0.566055  0  2.39508  0  0  -0.595648  0  2.375982  0  0  -0.305069  -0.54557  0  2.4077  0
O  O35  1  0.28218539  0.29974971  0.58024993  1  0  -0.64234  0  2.111647  0  0  -0.565987  0  2.395032  0  0  -0.595582  0  2.375931  0  0  -0.305009  -0.5455  0  2.407653  0
O  O36  1  0.33512611  0.48520656  0.31962251  1  0  -0.660241  0  2.088873  0  0  -0.588193  0  2.375914  0  0  -0.617521  0  2.356808  0  0  -0.315358  -0.567815  0  2.388469  0
O  O37  1  0.66488091  0.51480948  0.68038331  1  0  -0.660171  0  2.088492  0  0  -0.588188  0  2.375583  0  0  -0.617502  0  2.35644  0  0  -0.31535  -0.567806  0  2.388137  0
