# generated using pymatgen
data_ZnH10(C5N2)3
_symmetry_space_group_name_H-M   'P 1'
_cell_length_a   14.97528161
_cell_length_b   18.22316441
_cell_length_c   18.22313148
_cell_angle_alpha   80.28416861
_cell_angle_beta   65.74158236
_cell_angle_gamma   65.74672050
_symmetry_Int_Tables_number   1
_chemical_formula_structural   ZnH10(C5N2)3
_chemical_formula_sum   'Zn8 H80 C120 N48'
_cell_volume   4133.75631467
_cell_formula_units_Z   8
loop_
 _symmetry_equiv_pos_site_id
 _symmetry_equiv_pos_as_xyz
  1  'x, y, z'
loop_
 _atom_site_type_symbol
 _atom_site_label
 _atom_site_symmetry_multiplicity
 _atom_site_fract_x
 _atom_site_fract_y
 _atom_site_fract_z
 _atom_site_occupancy
 _atom_site_pbe_bader_charge
 _atom_site_pbe_bader_spin_density
 _atom_site_pbe_cm5_charge
 _atom_site_pbe_ddec_charge
 _atom_site_pbe_ddec_spin_density
 _atom_site_pbe_ddec_sum_bond_order
 _atom_site_pbe_magmom
Zn  Zn0  1  0.11235117  0.42209115  0.67260372  1  1.187523  0  0.716878  0.637053  0  2.543888  0
Zn  Zn1  1  0.70702750  0.07789292  0.82740305  1  1.18638  0  0.717224  0.637396  0  2.544663  0
Zn  Zn2  1  0.78494021  0.32739335  0.92209034  1  1.187198  0  0.716996  0.636696  0  2.545576  0
Zn  Zn3  1  0.53440007  0.17257634  0.57788784  1  1.184295  0  0.716629  0.636069  0  2.54479  0
Zn  Zn4  1  0.88764913  0.57790833  0.32739642  1  1.187532  0  0.716861  0.637034  0  2.543918  0
Zn  Zn5  1  0.29297232  0.92210656  0.17259685  1  1.186349  0  0.717211  0.63738  0  2.544685  0
Zn  Zn6  1  0.21506034  0.67260672  0.07790925  1  1.187192  0  0.716959  0.636604  0  2.545644  0
Zn  Zn7  1  0.46559963  0.82742433  0.42211231  1  1.184283  0  0.716634  0.636075  0  2.544785  0
H  H8  1  0.78609452  0.35670903  0.51329496  1  0.558983  0  0.285158  0.236072  0  1.072356  0
H  H9  1  0.15612365  0.14329284  0.98672257  1  0.554464  0  0.286044  0.238158  0  1.066756  0
H  H10  1  0.29937108  0.48669949  0.85673436  1  0.547423  0  0.285449  0.236744  0  1.068642  0
H  H11  1  0.14274635  0.01329928  0.64327212  1  0.547689  0  0.285684  0.237241  0  1.068753  0
H  H12  1  0.21390597  0.64329105  0.48670543  1  0.55898  0  0.285139  0.236028  0  1.072415  0
H  H13  1  0.84387721  0.85670663  0.01327703  1  0.55446  0  0.286038  0.238155  0  1.066747  0
H  H14  1  0.70062844  0.51330059  0.14326553  1  0.54743  0  0.285461  0.236783  0  1.068607  0
H  H15  1  0.85725317  0.98670080  0.35672778  1  0.548995  0  0.285685  0.237261  0  1.068709  0
H  H16  1  0.13239091  0.15245629  0.65213752  1  0.062964  0  0.09578  0.097852  0  1.067258  0
H  H17  1  0.43702898  0.34754730  0.84784325  1  0.051493  0  0.095637  0.097507  0  1.065668  0
H  H18  1  0.78458566  0.34780348  0.65242875  1  0.063956  0  0.095711  0.09775  0  1.066531  0
H  H19  1  0.28481554  0.15215444  0.84759338  1  0.045191  0  0.095295  0.096809  0  1.066644  0
H  H20  1  0.86760891  0.84754319  0.34786238  1  0.062963  0  0.09579  0.097874  0  1.067253  0
H  H21  1  0.56296931  0.65245097  0.15215805  1  0.051382  0  0.095657  0.097562  0  1.065629  0
H  H22  1  0.21541355  0.65219719  0.34757114  1  0.063919  0  0.095699  0.097728  0  1.066552  0
H  H23  1  0.71518416  0.84784624  0.15240676  1  0.045199  0  0.095291  0.096823  0  1.066646  0
H  H24  1  0.88761106  0.24788150  0.55607886  1  0.060295  0  0.098656  0.098082  0  1.049025  0
H  H25  1  0.19160462  0.25212032  0.94394285  1  0.05185  0  0.099252  0.09966  0  1.047771  0
H  H26  1  0.44374780  0.44388933  0.74780167  1  0.051101  0  0.098466  0.097642  0  1.048023  0
H  H27  1  0.13533271  0.05616295  0.75218441  1  0.066064  0  0.098905  0.099544  0  1.047863  0
H  H28  1  0.11238920  0.75211918  0.44392073  1  0.060283  0  0.098664  0.098119  0  1.049023  0
H  H29  1  0.80839338  0.74787976  0.05605710  1  0.051841  0  0.099239  0.099604  0  1.047751  0
H  H30  1  0.55625142  0.55611135  0.25219823  1  0.051102  0  0.098461  0.097659  0  1.048044  0
H  H31  1  0.86466729  0.94383712  0.24781573  1  0.066063  0  0.098901  0.099535  0  1.047867  0
H  H32  1  0.10831005  0.36338315  0.50328667  1  0.074571  0  0.100077  0.104763  0  1.012033  0
H  H33  1  0.47505792  0.13659715  0.99665633  1  0.047584  0  0.099702  0.104012  0  1.010404  0
H  H34  1  0.61163041  0.49667089  0.86333281  1  0.075904  0  0.09966  0.103774  0  1.010477  0
H  H35  1  0.47151879  0.00331249  0.63668302  1  0.058188  0  0.099581  0.104499  0  1.01096  0
H  H36  1  0.89169007  0.63661753  0.49671452  1  0.07458  0  0.100086  0.104796  0  1.012036  0
H  H37  1  0.52494172  0.86340173  0.00334332  1  0.047593  0  0.099697  0.104006  0  1.010379  0
H  H38  1  0.38836881  0.50332978  0.13666709  1  0.075908  0  0.099657  0.103745  0  1.01049  0
H  H39  1  0.52848121  0.99668759  0.36331713  1  0.058186  0  0.09958  0.104491  0  1.010957  0
H  H40  1  0.35021596  0.13453033  0.55120770  1  0.090838  0  0.108018  0.101342  0  1.036827  0
H  H41  1  0.53600293  0.36546836  0.94881538  1  0.072483  0  0.108036  0.101229  0  1.037064  0
H  H42  1  0.90143440  0.44884246  0.63450806  1  0.087844  0  0.107951  0.101045  0  1.036587  0
H  H43  1  0.48473013  0.05117918  0.86548447  1  0.088587  0  0.107897  0.100958  0  1.037342  0
H  H44  1  0.64978453  0.86546974  0.44879269  1  0.090831  0  0.108025  0.101337  0  1.036833  0
H  H45  1  0.46399689  0.63453112  0.05118452  1  0.072491  0  0.108023  0.101185  0  1.03707  0
H  H46  1  0.09856579  0.55115822  0.36549233  1  0.087853  0  0.107934  0.101036  0  1.03659  0
H  H47  1  0.51526957  0.94882150  0.13451567  1  0.088586  0  0.107898  0.100952  0  1.037343  0
H  H48  1  0.35464241  0.34076671  0.62207047  1  0.093147  0  0.120772  0.07657  0  1.027543  0
H  H49  1  0.81745897  0.15923918  0.87793060  1  0.101533  0  0.121325  0.077512  0  1.028129  0
H  H50  1  0.97670890  0.37787511  0.84071309  1  0.116186  0  0.120727  0.076843  0  1.028854  0
H  H51  1  0.69534677  0.12210256  0.65928609  1  0.098227  0  0.121125  0.076943  0  1.028639  0
H  H52  1  0.64535815  0.65923337  0.37792912  1  0.093159  0  0.120791  0.076606  0  1.027486  0
H  H53  1  0.18254085  0.84076030  0.12206930  1  0.101538  0  0.121339  0.077509  0  1.028118  0
H  H54  1  0.02329165  0.62212497  0.15928650  1  0.116188  0  0.12073  0.076826  0  1.028886  0
H  H55  1  0.30465408  0.87789691  0.34071350  1  0.098232  0  0.121128  0.076953  0  1.028643  0
H  H56  1  0.96529128  0.96988445  0.75492881  1  0.08416  0  0.1159  0.0706  0  1.011515  0
H  H57  1  0.19012212  0.53009702  0.74510438  1  0.114546  0  0.115979  0.070647  0  1.013079  0
H  H58  1  0.72014563  0.24500731  0.46988556  1  0.086706  0  0.115846  0.070645  0  1.012167  0
H  H59  1  0.93510493  0.25496528  0.03009005  1  0.083964  0  0.11606  0.070886  0  1.012008  0
H  H60  1  0.03470957  0.03011503  0.24507079  1  0.084163  0  0.115897  0.070567  0  1.011538  0
H  H61  1  0.80987789  0.46990306  0.25489576  1  0.114539  0  0.115999  0.070643  0  1.013105  0
H  H62  1  0.27985431  0.75499276  0.53011538  1  0.086692  0  0.115865  0.070669  0  1.01213  0
H  H63  1  0.06489732  0.74503359  0.96990844  1  0.083959  0  0.116031  0.070869  0  1.011987  0
H  H64  1  0.78171479  0.20027989  0.69681673  1  0.093329  0  0.110629  0.110956  0  1.024132  0
H  H65  1  0.17885716  0.29969473  0.80319327  1  0.082411  0  0.110411  0.110809  0  1.024969  0
H  H66  1  0.47847460  0.30322176  0.70028752  1  0.092222  0  0.110444  0.111108  0  1.023796  0
H  H67  1  0.98210572  0.19673730  0.79965942  1  0.081206  0  0.109993  0.110676  0  1.024623  0
H  H68  1  0.21828551  0.79971958  0.30318341  1  0.093312  0  0.110624  0.110979  0  1.024153  0
H  H69  1  0.82114236  0.70030535  0.19680662  1  0.082413  0  0.110379  0.110785  0  1.024985  0
H  H70  1  0.52152541  0.69677832  0.29971262  1  0.092221  0  0.110451  0.111102  0  1.0238  0
H  H71  1  0.01789464  0.80326218  0.20033993  1  0.081277  0  0.110011  0.110665  0  1.024619  0
H  H72  1  0.74086705  0.47366312  0.42039302  1  0.128376  0  0.138522  0.096769  0  0.983125  0
H  H73  1  0.13494664  0.02633206  0.07962130  1  0.116288  0  0.138462  0.096553  0  0.983231  0
H  H74  1  0.16127924  0.57959485  0.97369516  1  0.12309  0  0.138574  0.096556  0  0.982593  0
H  H75  1  0.21453638  0.92038872  0.52628054  1  0.119714  0  0.138313  0.095733  0  0.983083  0
H  H76  1  0.25913343  0.52633696  0.57960737  1  0.128484  0  0.138516  0.096761  0  0.983144  0
H  H77  1  0.86505366  0.97366741  0.92037884  1  0.116285  0  0.138468  0.096587  0  0.983212  0
H  H78  1  0.83871997  0.42040583  0.02630474  1  0.123107  0  0.138552  0.096536  0  0.98261  0
H  H79  1  0.78546410  0.07961135  0.47371985  1  0.119707  0  0.138324  0.095794  0  0.983089  0
H  H80  1  0.04244913  0.44228616  0.40600799  1  0.086773  0  0.116896  0.112612  0  1.023778  0
H  H81  1  0.39084175  0.05769414  0.09393728  1  0.097132  0  0.117335  0.11339  0  1.024798  0
H  H82  1  0.44847606  0.59399778  0.94226632  1  0.093448  0  0.116776  0.112474  0  1.023705  0
H  H83  1  0.48467202  0.90604451  0.55778241  1  0.107501  0  0.117029  0.112302  0  1.023068  0
H  H84  1  0.95755160  0.55771452  0.59399185  1  0.086796  0  0.116898  0.112615  0  1.023777  0
H  H85  1  0.60915826  0.94230594  0.90606286  1  0.097145  0  0.117339  0.113392  0  1.024793  0
H  H86  1  0.55152291  0.40600230  0.05773412  1  0.093412  0  0.116781  0.112461  0  1.023706  0
H  H87  1  0.51532816  0.09395617  0.44221798  1  0.107603  0  0.117024  0.112294  0  1.023029  0
C  C88  1  0.13210681  0.25638251  0.57613988  1  0.016759  0  -0.008538  0.073062  0  4.061595  0
C  C89  1  0.46467658  0.24359434  0.92381726  1  -0.04536  0  -0.009247  0.072034  0  4.06502  0
C  C90  1  0.70825323  0.42379060  0.75635487  1  0.008219  0  -0.009121  0.07057  0  4.066584  0
C  C91  1  0.38840596  0.07618693  0.74364396  1  -0.044112  0  -0.008556  0.07203  0  4.064363  0
C  C92  1  0.86789301  0.74361697  0.42386001  1  0.017123  0  -0.008541  0.073086  0  4.061539  0
C  C93  1  0.53532233  0.75640393  0.07618269  1  -0.045253  0  -0.009245  0.072037  0  4.064973  0
C  C94  1  0.29174599  0.57621008  0.24364502  1  0.00794  0  -0.009132  0.070584  0  4.06658  0
C  C95  1  0.61159350  0.92381315  0.25635673  1  -0.043875  0  -0.008553  0.072037  0  4.0643  0
C  C96  1  0.09422392  0.19566274  0.61454827  1  -0.048684  0  -0.094221  -0.174894  0  3.909957  0
C  C97  1  0.40451750  0.30430614  0.88539949  1  -0.04056  0  -0.093275  -0.173553  0  3.912164  0
C  C98  1  0.70882121  0.38534352  0.69564725  1  -0.043612  0  -0.093566  -0.17382  0  3.913193  0
C  C99  1  0.28983496  0.11459354  0.80437445  1  0.000757  0  -0.093114  -0.171155  0  3.909708  0
C  C100  1  0.90577505  0.80433734  0.38545217  1  -0.049061  0  -0.094214  -0.17488  0  3.909905  0
C  C101  1  0.59548012  0.69569334  0.11460260  1  -0.040761  0  -0.093302  -0.173664  0  3.912173  0
C  C102  1  0.29117874  0.61465776  0.30435234  1  -0.043429  0  -0.093563  -0.173822  0  3.913172  0
C  C103  1  0.71016480  0.88540714  0.19562489  1  0.000702  0  -0.093109  -0.17121  0  3.909671  0
C  C104  1  0.00429608  0.19338655  0.60976893  1  -0.028366  0  -0.008682  0.074638  0  4.057503  0
C  C105  1  0.30753017  0.30658316  0.89020752  1  -0.012944  0  -0.008113  0.07642  0  4.057109  0
C  C106  1  0.61410804  0.39015501  0.69336319  1  -0.028285  0  -0.007823  0.075434  0  4.057873  0
C  C107  1  0.19763106  0.10983404  0.80663052  1  -0.006365  0  -0.008479  0.07419  0  4.0565  0
C  C108  1  0.99570338  0.80661353  0.39023176  1  -0.028354  0  -0.008721  0.07458  0  4.057462  0
C  C109  1  0.69246855  0.69341632  0.10979348  1  -0.012957  0  -0.008138  0.076434  0  4.057084  0
C  C110  1  0.38589166  0.60984567  0.30663696  1  -0.028232  0  -0.00783  0.07541  0  4.057873  0
C  C111  1  0.80236955  0.89016604  0.19336827  1  -0.006356  0  -0.008467  0.074218  0  4.056413  0
C  C112  1  0.95517957  0.25119894  0.56243371  1  0.021909  0  -0.096202  -0.183288  0  3.938794  0
C  C113  1  0.26887721  0.24878039  0.93754317  1  -0.023607  0  -0.09644  -0.18479  0  3.935225  0
C  C114  1  0.51766159  0.43749974  0.75116438  1  -0.014792  0  -0.09649  -0.183058  0  3.935401  0
C  C115  1  0.20624345  0.06250660  0.74884112  1  0.003183  0  -0.096598  -0.185524  0  3.933554  0
C  C116  1  0.04482006  0.74880174  0.43756723  1  0.02193  0  -0.096187  -0.183277  0  3.938768  0
C  C117  1  0.73112127  0.75121968  0.06245702  1  -0.023541  0  -0.096429  -0.184714  0  3.935003  0
C  C118  1  0.48233866  0.56250094  0.24883521  1  -0.014767  0  -0.096467  -0.183074  0  3.935412  0
C  C119  1  0.79375662  0.93749348  0.25115823  1  0.003206  0  -0.096599  -0.185529  0  3.933509  0
C  C120  1  0.99155878  0.31271251  0.52388352  1  -0.048506  0  -0.012689  0.051995  0  4.092948  0
C  C121  1  0.32823065  0.18723614  0.97607195  1  0.004486  0  -0.013458  0.051087  0  4.093114  0
C  C122  1  0.51545562  0.47609602  0.81267442  1  -0.002238  0  -0.012859  0.050787  0  4.094013  0
C  C123  1  0.30412641  0.02388445  0.68735709  1  -0.023089  0  -0.012833  0.053875  0  4.090968  0
C  C124  1  0.00844080  0.68728816  0.47611821  1  -0.048533  0  -0.012604  0.052025  0  4.092916  0
C  C125  1  0.67176746  0.81276273  0.02392775  1  0.004448  0  -0.013432  0.051095  0  4.093081  0
C  C126  1  0.48454445  0.52390406  0.18732492  1  -0.00223  0  -0.012872  0.050826  0  4.093933  0
C  C127  1  0.69587329  0.97611623  0.31264305  1  -0.023089  0  -0.012822  0.053895  0  4.090945  0
C  C128  1  0.07973132  0.31535148  0.53178162  1  -0.011519  0  -0.095647  -0.18723  0  3.948697  0
C  C129  1  0.42695010  0.18460160  0.96813973  1  0.00889  0  -0.095016  -0.186104  0  3.945758  0
C  C130  1  0.61153659  0.46816682  0.81530847  1  -0.028675  0  -0.094834  -0.18432  0  3.946094  0
C  C131  1  0.39492182  0.03181823  0.68470994  1  -0.014806  0  -0.095306  -0.18819  0  3.946056  0
C  C132  1  0.92026917  0.68464860  0.46821877  1  -0.011511  0  -0.095702  -0.187341  0  3.948717  0
C  C133  1  0.57305002  0.81539727  0.03186017  1  0.00911  0  -0.094996  -0.186038  0  3.945731  0
C  C134  1  0.38846311  0.53183386  0.18469167  1  -0.028608  0  -0.094833  -0.184291  0  3.946051  0
C  C135  1  0.60507818  0.96818185  0.31529020  1  -0.014805  0  -0.095292  -0.188158  0  3.946045  0
C  C136  1  0.22509291  0.25759963  0.58395063  1  0.378852  0  0.069544  0.115456  0  4.040066  0
C  C137  1  0.56666544  0.24240694  0.91603990  1  0.421238  0  0.0695  0.114869  0  4.038839  0
C  C138  1  0.80905902  0.41600607  0.75754604  1  0.363053  0  0.068996  0.115533  0  4.038206  0
C  C139  1  0.48265005  0.08396627  0.74241110  1  0.383124  0  0.069427  0.11535  0  4.038639  0
C  C140  1  0.77490678  0.74239984  0.41605086  1  0.378977  0  0.069535  0.115499  0  4.039953  0
C  C141  1  0.43333492  0.75759254  0.08395944  1  0.421342  0  0.069522  0.114885  0  4.038849  0
C  C142  1  0.19093965  0.58399461  0.24245440  1  0.363036  0  0.069009  0.115526  0  4.038318  0
C  C143  1  0.51735074  0.91603321  0.25758929  1  0.382945  0  0.069431  0.115413  0  4.038509  0
C  C144  1  0.95787194  0.13589531  0.65796939  1  0.400368  0  0.061545  0.098615  0  4.072242  0
C  C145  1  0.25179841  0.36409224  0.84203861  1  0.411405  0  0.060186  0.09582  0  4.074845  0
C  C146  1  0.61587058  0.34197070  0.63586919  1  0.389958  0  0.060651  0.097867  0  4.073465  0
C  C147  1  0.09377293  0.15802700  0.86410582  1  0.391635  0  0.060131  0.096461  0  4.075284  0
C  C148  1  0.04212752  0.86410476  0.34203130  1  0.400363  0  0.061534  0.098598  0  4.072109  0
C  C149  1  0.74820141  0.63590724  0.15796128  1  0.411384  0  0.060226  0.095847  0  4.07488  0
C  C150  1  0.38412991  0.65802938  0.36413120  1  0.389971  0  0.060667  0.097892  0  4.073461  0
C  C151  1  0.90622829  0.84197187  0.13589298  1  0.391677  0  0.060122  0.096454  0  4.075307  0
C  C152  1  0.93841161  0.37467759  0.47710285  1  0.369968  0  0.083565  0.112492  0  4.007522  0
C  C153  1  0.29022201  0.12532076  0.02289916  1  0.402849  0  0.083898  0.113285  0  4.007505  0
C  C154  1  0.41552681  0.52292847  0.87462571  1  0.391898  0  0.083737  0.112658  0  4.008595  0
C  C155  1  0.31300731  0.97701192  0.62543158  1  0.35499  0  0.083272  0.11079  0  4.010265  0
C  C156  1  0.06158803  0.62532309  0.52289809  1  0.37001  0  0.083522  0.112508  0  4.007536  0
C  C157  1  0.70977745  0.87467932  0.97710153  1  0.402504  0  0.083903  0.113221  0  4.00746  0
C  C158  1  0.58447241  0.47707221  0.12537418  1  0.391846  0  0.083731  0.112638  0  4.008554  0
C  C159  1  0.68699349  0.02298876  0.37456746  1  0.354983  0  0.083237  0.110736  0  4.010296  0
C  C160  1  0.32306199  0.19598370  0.56977216  1  0.363289  0  -0.016656  -0.100316  0  3.984404  0
C  C161  1  0.58883716  0.30400381  0.93026394  1  0.355089  0  -0.016456  -0.099473  0  3.98164  0
C  C162  1  0.89282897  0.43022859  0.69595544  1  0.380644  0  -0.016175  -0.099362  0  3.977974  0
C  C163  1  0.51902765  0.06975358  0.80402823  1  0.346615  0  -0.016227  -0.099367  0  3.979006  0
C  C164  1  0.67693746  0.80401638  0.43022853  1  0.363259  0  -0.016627  -0.100317  0  3.984387  0
C  C165  1  0.41116103  0.69599687  0.06973626  1  0.355096  0  -0.016446  -0.099428  0  3.981678  0
C  C166  1  0.10717158  0.56977149  0.30404415  1  0.380617  0  -0.016186  -0.099393  0  3.978091  0
C  C167  1  0.48097235  0.93024650  0.19597191  1  0.346628  0  -0.0162  -0.099333  0  3.978965  0
C  C168  1  0.32707122  0.30203170  0.60533193  1  1.00439  0  0.113847  0.138176  0  4.024869  0
C  C169  1  0.73442180  0.19797995  0.89468119  1  0.97493  0  0.113375  0.137418  0  4.024907  0
C  C170  1  0.93239847  0.39460638  0.80198072  1  0.977231  0  0.114155  0.137837  0  4.024076  0
C  C171  1  0.62902534  0.10537705  0.69800860  1  0.976612  0  0.114038  0.137922  0  4.022444  0
C  C172  1  0.67292964  0.69796898  0.39466632  1  1.004399  0  0.113758  0.138043  0  4.02489  0
C  C173  1  0.26557875  0.80202013  0.10531840  1  0.974934  0  0.113421  0.137498  0  4.024892  0
C  C174  1  0.06760153  0.60539370  0.19801942  1  0.977236  0  0.114159  0.137867  0  4.02408  0
C  C175  1  0.37097503  0.89462242  0.30199074  1  0.976577  0  0.114053  0.137938  0  4.022379  0
C  C176  1  0.94480055  0.02970205  0.72859104  1  0.941999  0  0.101996  0.119236  0  4.070808  0
C  C177  1  0.20310850  0.47028019  0.77143575  1  0.923564  0  0.102089  0.119702  0  4.069366  0
C  C178  1  0.67334232  0.27135733  0.52969950  1  0.931717  0  0.101517  0.118234  0  4.069959  0
C  C179  1  0.97446367  0.22862558  0.97026795  1  0.938593  0  0.101775  0.119085  0  4.069768  0
C  C180  1  0.05520000  0.97029803  0.27140855  1  0.942066  0  0.102039  0.119333  0  4.070799  0
C  C181  1  0.79689181  0.52971928  0.22856440  1  0.923552  0  0.10216  0.119849  0  4.06914  0
C  C182  1  0.32665769  0.72864274  0.47030064  1  0.931725  0  0.101478  0.118219  0  4.069924  0
C  C183  1  0.02553985  0.77137269  0.02973104  1  0.938839  0  0.101814  0.119102  0  4.069871  0
C  C184  1  0.85135484  0.14762434  0.69610208  1  0.341234  0  -0.021228  -0.108932  0  3.985885  0
C  C185  1  0.19514913  0.35233409  0.80390468  1  0.347483  0  -0.020522  -0.107635  0  3.985646  0
C  C186  1  0.54739527  0.30390958  0.64761913  1  0.351009  0  -0.020676  -0.10899  0  3.984746  0
C  C187  1  0.99902141  0.19608685  0.85233341  1  0.346785  0  -0.020657  -0.108519  0  3.985681  0
C  C188  1  0.14864534  0.85237514  0.30389965  1  0.341194  0  -0.021209  -0.108951  0  3.985933  0
C  C189  1  0.80485075  0.64766538  0.19609441  1  0.347503  0  -0.020567  -0.107694  0  3.985744  0
C  C190  1  0.45260521  0.69609050  0.35238126  1  0.350976  0  -0.020668  -0.108949  0  3.984743  0
C  C191  1  0.00097950  0.80391263  0.14766538  1  0.346738  0  -0.020719  -0.108559  0  3.985801  0
C  C192  1  0.81473475  0.44994766  0.42973794  1  0.987122  0  0.140372  0.142522  0  3.957365  0
C  C193  1  0.19446495  0.05003583  0.07026797  1  0.99059  0  0.140745  0.14321  0  3.961529  0
C  C194  1  0.24449191  0.57026831  0.94995953  1  0.96488  0  0.139502  0.14173  0  3.955519  0
C  C195  1  0.26466674  0.92971561  0.55003448  1  1.023178  0  0.139415  0.141889  0  3.957856  0
C  C196  1  0.18526574  0.55005242  0.57026245  1  0.98698  0  0.140397  0.142544  0  3.957392  0
C  C197  1  0.80553486  0.94996365  0.92973193  1  0.990515  0  0.140714  0.143131  0  3.961593  0
C  C198  1  0.75550712  0.42973177  0.05004011  1  0.964906  0  0.139477  0.141699  0  3.955611  0
C  C199  1  0.73533356  0.07028387  0.44996566  1  1.023184  0  0.139423  0.141831  0  3.957819  0
C  C200  1  0.96943426  0.43249843  0.42525715  1  0.378821  0  -0.006201  -0.096912  0  3.95391  0
C  C201  1  0.32726398  0.06747910  0.07470704  1  0.351552  0  -0.006695  -0.098268  0  3.955464  0
C  C202  1  0.39470364  0.57476218  0.93245803  1  0.371117  0  -0.006308  -0.09787  0  3.957761  0
C  C203  1  0.40185717  0.92519050  0.56762095  1  0.382475  0  -0.006597  -0.097242  0  3.957265  0
C  C204  1  0.03056678  0.56750164  0.57474269  1  0.378789  0  -0.006241  -0.096993  0  3.954032  0
C  C205  1  0.67273602  0.93252098  0.92529310  1  0.351546  0  -0.0067  -0.098233  0  3.955408  0
C  C206  1  0.60529526  0.42523609  0.06754192  1  0.371154  0  -0.006276  -0.09782  0  3.957615  0
C  C207  1  0.59814381  0.07481078  0.43237835  1  0.382579  0  -0.006549  -0.097158  0  3.957168  0
N  N208  1  0.22863072  0.32498290  0.60687464  1  -1.257366  0  -0.374695  -0.348352  0  3.555537  0
N  N209  1  0.66048932  0.17503100  0.89310433  1  -1.244437  0  -0.375269  -0.348183  0  3.554875  0
N  N210  1  0.83550948  0.39305895  0.82493004  1  -1.250155  0  -0.374994  -0.348452  0  3.553986  0
N  N211  1  0.55354434  0.10691591  0.67504295  1  -1.234969  0  -0.375429  -0.348542  0  3.551455  0
N  N212  1  0.77136934  0.67501717  0.39312470  1  -1.257466  0  -0.374698  -0.348386  0  3.555544  0
N  N213  1  0.33951153  0.82496848  0.10689527  1  -1.244432  0  -0.375331  -0.348259  0  3.554911  0
N  N214  1  0.16449052  0.60694113  0.17507011  1  -1.250146  0  -0.374983  -0.348416  0  3.553968  0
N  N215  1  0.44645596  0.89308357  0.32495719  1  -1.234962  0  -0.37546  -0.348636  0  3.551442  0
N  N216  1  0.38717310  0.22471603  0.58302913  1  -1.28053  0  -0.381569  -0.287379  0  3.649641  0
N  N217  1  0.69492366  0.27528234  0.91700720  1  -1.272846  0  -0.381388  -0.288083  0  3.650938  0
N  N218  1  0.97020336  0.41695314  0.72468173  1  -1.283454  0  -0.381722  -0.287732  0  3.644533  0
N  N219  1  0.61185016  0.08303869  0.77531228  1  -1.264314  0  -0.381579  -0.287715  0  3.644748  0
N  N220  1  0.61282721  0.77528465  0.41696966  1  -1.280523  0  -0.381544  -0.28729  0  3.649577  0
N  N221  1  0.30507690  0.72471774  0.08299239  1  -1.272878  0  -0.381409  -0.288096  0  3.651059  0
N  N222  1  0.02979664  0.58304694  0.27531841  1  -1.283452  0  -0.381726  -0.28774  0  3.644563  0
N  N223  1  0.38815039  0.91696139  0.22468731  1  -1.264286  0  -0.381602  -0.287735  0  3.644737  0
N  N224  1  0.01635198  0.06054173  0.67964480  1  -1.232423  0  -0.347364  -0.354628  0  3.398595  0
N  N225  1  0.25656557  0.43945768  0.82037364  1  -1.236874  0  -0.347211  -0.354193  0  3.396562  0
N  N226  1  0.69601879  0.32027651  0.56051941  1  -1.217211  0  -0.347335  -0.354287  0  3.397098  0
N  N227  1  0.07687118  0.17971635  0.93946303  1  -1.233869  0  -0.347886  -0.355193  0  3.39452  0
N  N228  1  0.98364790  0.93945775  0.32035430  1  -1.233787  0  -0.347392  -0.354646  0  3.398454  0
N  N229  1  0.74343450  0.56054240  0.17962570  1  -1.236886  0  -0.347201  -0.354227  0  3.396536  0
N  N230  1  0.30398121  0.67972357  0.43948073  1  -1.217209  0  -0.347335  -0.354292  0  3.397107  0
N  N231  1  0.92313088  0.82028192  0.06053522  1  -1.233849  0  -0.347885  -0.355216  0  3.394542  0
N  N232  1  0.84347639  0.08017733  0.74116642  1  -1.259009  0  -0.385282  -0.315983  0  3.648718  0
N  N233  1  0.16486132  0.41978315  0.75885156  1  -1.25626  0  -0.384785  -0.315944  0  3.650206  0
N  N234  1  0.58454155  0.25885018  0.58017623  1  -1.270899  0  -0.384537  -0.314249  0  3.64758  0
N  N235  1  0.92365586  0.24114589  0.91977730  1  -1.246249  0  -0.384129  -0.314709  0  3.647528  0
N  N236  1  0.15652440  0.91982214  0.25883397  1  -1.25891  0  -0.385277  -0.316013  0  3.648846  0
N  N237  1  0.83513904  0.58021633  0.24114779  1  -1.25625  0  -0.384818  -0.31599  0  3.650131  0
N  N238  1  0.41545894  0.74114990  0.41982415  1  -1.270883  0  -0.38453  -0.314282  0  3.647598  0
N  N239  1  0.07634548  0.75885359  0.08022254  1  -1.246605  0  -0.384084  -0.314604  0  3.64765  0
N  N240  1  0.84010744  0.38723292  0.47822207  1  -1.286782  0  -0.361055  -0.229717  0  3.627252  0
N  N241  1  0.20557247  0.11277070  0.02180290  1  -1.289889  0  -0.362033  -0.231757  0  3.626454  0
N  N242  1  0.31832400  0.52180925  0.88721759  1  -1.269285  0  -0.361108  -0.229022  0  3.625255  0
N  N243  1  0.22728779  0.97816591  0.61279672  1  -1.281269  0  -0.360152  -0.228357  0  3.624133  0
N  N244  1  0.15989305  0.61276716  0.52177832  1  -1.286783  0  -0.361029  -0.229645  0  3.627252  0
N  N245  1  0.79442783  0.88722878  0.97819724  1  -1.289608  0  -0.362075  -0.231783  0  3.626507  0
N  N246  1  0.68167558  0.47819083  0.11278151  1  -1.269267  0  -0.361098  -0.229052  0  3.62531  0
N  N247  1  0.77271221  0.02183417  0.38720342  1  -1.281287  0  -0.360176  -0.228382  0  3.624114  0
N  N248  1  0.89167780  0.47898261  0.39621290  1  -1.271345  0  -0.368106  -0.281324  0  3.639466  0
N  N249  1  0.26694606  0.02098949  0.10375246  1  -1.247127  0  -0.368306  -0.281238  0  3.642048  0
N  N250  1  0.28792238  0.60378319  0.97898546  1  -1.246084  0  -0.367753  -0.280664  0  3.638862  0
N  N251  1  0.37064042  0.89620559  0.52104144  1  -1.27912  0  -0.367837  -0.280169  0  3.641377  0
N  N252  1  0.10832276  0.52101746  0.60378669  1  -1.271336  0  -0.368111  -0.281353  0  3.639543  0
N  N253  1  0.73305527  0.97900999  0.89624738  1  -1.247144  0  -0.368283  -0.281213  0  3.642055  0
N  N254  1  0.71207743  0.39621628  0.02101443  1  -1.246107  0  -0.367775  -0.280682  0  3.638867  0
N  N255  1  0.62935983  0.10379509  0.47895815  1  -1.27931  0  -0.367858  -0.280196  0  3.641316  0
