# generated using pymatgen
data_DyH9C3SeNO8
_symmetry_space_group_name_H-M   'P 1'
_cell_length_a   7.71223711
_cell_length_b   9.31488797
_cell_length_c   12.22533702
_cell_angle_alpha   90.65471849
_cell_angle_beta   89.97362411
_cell_angle_gamma   90.02412663
_symmetry_Int_Tables_number   1
_chemical_formula_structural   DyH9C3SeNO8
_chemical_formula_sum   'Dy4 H36 C12 Se4 N4 O32'
_cell_volume   878.19388916
_cell_formula_units_Z   4
loop_
 _symmetry_equiv_pos_site_id
 _symmetry_equiv_pos_as_xyz
  1  'x, y, z'
loop_
 _atom_site_type_symbol
 _atom_site_label
 _atom_site_symmetry_multiplicity
 _atom_site_fract_x
 _atom_site_fract_y
 _atom_site_fract_z
 _atom_site_occupancy
 _atom_site_pbe_bader_spin_density
 _atom_site_pbe_cm5_charge
 _atom_site_pbe_ddec_charge
 _atom_site_pbe_ddec_spin_density
 _atom_site_pbe_ddec_sum_bond_order
 _atom_site_pbe_magmom
Dy  Dy0  1  0.77112517  0.92992613  0.29272067  1  0  1.484422  2.139755  0  2.084419  0
Dy  Dy1  1  0.27096492  0.06965183  0.20745252  1  0  1.484289  2.138793  0  2.085898  0
Dy  Dy2  1  0.22887320  0.07007512  0.70727882  1  0  1.484406  2.139716  0  2.084453  0
Dy  Dy3  1  0.72903345  0.93034834  0.79254692  1  0  1.484294  2.138795  0  2.085918  0
H  H4  1  0.88725542  0.96165426  0.07246072  1  0  0.31301  0.415589  0  0.909692  0
H  H5  1  0.38725809  0.03879026  0.42750803  1  0  0.312868  0.415361  0  0.90995  0
H  H6  1  0.11274165  0.03834703  0.92753795  1  0  0.313017  0.415596  0  0.90968  0
H  H7  1  0.61274158  0.96121098  0.57249146  1  0  0.312877  0.415401  0  0.909901  0
H  H8  1  0.02526885  0.85583764  0.12750687  1  0  0.316847  0.397325  0  0.938416  0
H  H9  1  0.52537580  0.14432300  0.37195948  1  0  0.316778  0.397232  0  0.939835  0
H  H10  1  0.97472823  0.14416370  0.87249099  1  0  0.316838  0.397324  0  0.93842  0
H  H11  1  0.47462257  0.85567937  0.62803924  1  0  0.316796  0.397255  0  0.939829  0
H  H12  1  0.07153373  0.73404298  0.29924456  1  0  0.318843  0.429625  0  0.875517  0
H  H13  1  0.57132774  0.26595558  0.19869305  1  0  0.320011  0.431009  0  0.872655  0
H  H14  1  0.92846464  0.26595841  0.70075248  1  0  0.318893  0.429695  0  0.87541  0
H  H15  1  0.42867063  0.73404551  0.80130889  1  0  0.319982  0.43097  0  0.87271  0
H  H16  1  0.91323095  0.62218068  0.30149676  1  0  0.31122  0.439106  0  0.875309  0
H  H17  1  0.41283294  0.37742196  0.19810596  1  0  0.311026  0.438667  0  0.875923  0
H  H18  1  0.08676741  0.37782061  0.69850192  1  0  0.311231  0.439131  0  0.875259  0
H  H19  1  0.58716543  0.62257801  0.80189675  1  0  0.311035  0.438701  0  0.875873  0
H  H20  1  0.67844673  0.46560237  0.61376834  1  0  0.272217  0.223841  0  1.023964  0
H  H21  1  0.17864993  0.53158870  0.88567203  1  0  0.272348  0.223818  0  1.025496  0
H  H22  1  0.32155163  0.53439637  0.38623677  1  0  0.272277  0.223883  0  1.023959  0
H  H23  1  0.82135362  0.46841055  0.11432492  1  0  0.272386  0.223908  0  1.025429  0
H  H24  1  0.57445095  0.25054477  0.53853643  1  0  0.092638  0.062675  0  1.001606  0
H  H25  1  0.07596385  0.74842579  0.95851953  1  0  0.09262  0.062629  0  1.001189  0
H  H26  1  0.42555001  0.74945188  0.46146777  1  0  0.092677  0.062714  0  1.001571  0
H  H27  1  0.92404230  0.25157346  0.04147742  1  0  0.092589  0.062566  0  1.001236  0
H  H28  1  0.56278001  0.33510648  0.40718117  1  0  0.089926  0.041447  0  1.05685  0
H  H29  1  0.06402336  0.66651786  0.09079479  1  0  0.08953  0.040154  0  1.057899  0
H  H30  1  0.43722225  0.66489124  0.59282308  1  0  0.089925  0.041403  0  1.05683  0
H  H31  1  0.93598538  0.33348353  0.90920225  1  0  0.089562  0.040184  0  1.057832  0
H  H32  1  0.65664943  0.58631176  0.39332952  1  0  0.095899  0.081807  0  1.04229  0
H  H33  1  0.15600320  0.41535320  0.10759380  1  0  0.096061  0.08275  0  1.041759  0
H  H34  1  0.34335022  0.41368489  0.60667468  1  0  0.095874  0.081785  0  1.042287  0
H  H35  1  0.84400036  0.58464927  0.89240329  1  0  0.096052  0.082735  0  1.041738  0
H  H36  1  0.73642764  0.67500483  0.51228756  1  0  0.093181  0.071103  0  1.041409  0
H  H37  1  0.23528075  0.32396142  0.98966842  1  0  0.09329  0.071747  0  1.040712  0
H  H38  1  0.26357462  0.32499187  0.48771582  1  0  0.093187  0.071123  0  1.041421  0
H  H39  1  0.76472539  0.67603768  0.01033097  1  0  0.093312  0.071817  0  1.040626  0
C  C40  1  0.91764343  0.99207147  0.53440588  1  0  0.237343  0.542323  0  4.167442  0
C  C41  1  0.41766442  0.00797074  0.96558460  1  0  0.237501  0.542098  0  4.166195  0
C  C42  1  0.08235494  0.00793187  0.46559453  1  0  0.23734  0.542367  0  4.167326  0
C  C43  1  0.58232876  0.99202733  0.03441393  1  0  0.237429  0.541855  0  4.166439  0
C  C44  1  0.54681511  0.35234713  0.49650705  1  0  -0.082723  -0.058179  0  3.995733  0
C  C45  1  0.04780202  0.64754558  0.00168050  1  0  -0.082947  -0.055782  0  3.993523  0
C  C46  1  0.45318714  0.64764952  0.50349715  1  0  -0.08275  -0.058128  0  3.995635  0
C  C47  1  0.95220284  0.35245469  0.99831731  1  0  -0.082911  -0.055695  0  3.993602  0
C  C48  1  0.63954598  0.59747462  0.48211243  1  0  -0.09245  -0.07818  0  3.970233  0
C  C49  1  0.13884582  0.40243355  0.01894274  1  0  -0.093221  -0.080822  0  3.970288  0
C  C50  1  0.36045497  0.40252197  0.51789259  1  0  -0.09242  -0.07819  0  3.97009  0
C  C51  1  0.86116033  0.59756673  0.98105507  1  0  -0.093203  -0.080839  0  3.970202  0
Se  Se52  1  0.42352634  0.70593811  0.17829439  1  0  0.835514  1.760369  0  5.211471  0
Se  Se53  1  0.92345686  0.29352266  0.32215525  1  0  0.834606  1.759457  0  5.210673  0
Se  Se54  1  0.57647332  0.29406083  0.82170745  1  0  0.835541  1.760375  0  5.211355  0
Se  Se55  1  0.07654281  0.70647868  0.67784260  1  0  0.834603  1.759441  0  5.210652  0
N  N56  1  0.67527669  0.45835077  0.53019658  1  0  -0.499577  -0.344977  0  3.407285  0
N  N57  1  0.17559046  0.54040195  0.96917199  1  0  -0.499732  -0.346293  0  3.408022  0
N  N58  1  0.32472426  0.54164690  0.46980848  1  0  -0.49968  -0.345051  0  3.40721  0
N  N59  1  0.82441439  0.45959730  0.03082496  1  0  -0.499789  -0.346413  0  3.40804  0
O  O60  1  0.96472152  0.94838803  0.13839363  1  0  -0.629236  -0.878347  0  2.164366  0
O  O61  1  0.46459788  0.05177097  0.36142805  1  0  -0.629468  -0.878366  0  2.164206  0
O  O62  1  0.03527426  0.05161220  0.86160500  1  0  -0.629234  -0.878346  0  2.16442  0
O  O63  1  0.53540179  0.94823027  0.63857144  1  0  -0.6295  -0.878458  0  2.164236  0
O  O64  1  0.47696874  0.72551898  0.04970429  1  0  -0.343654  -0.643662  0  1.882448  0
O  O65  1  0.97549187  0.27338141  0.45092010  1  0  -0.343097  -0.643078  0  1.882889  0
O  O66  1  0.52303740  0.27447567  0.95029736  1  0  -0.34365  -0.643653  0  1.882431  0
O  O67  1  0.02450650  0.72662203  0.54907867  1  0  -0.343115  -0.643064  0  1.882826  0
O  O68  1  0.59285092  0.75426816  0.25971522  1  0  -0.545801  -0.882617  0  2.103246  0
O  O69  1  0.09399032  0.24587705  0.24143654  1  0  -0.545372  -0.882064  0  2.10212  0
O  O70  1  0.40714485  0.24573278  0.74028917  1  0  -0.545831  -0.882588  0  2.103252  0
O  O71  1  0.90600934  0.75412312  0.75856291  1  0  -0.545373  -0.882071  0  2.102118  0
O  O72  1  0.94453723  0.72658653  0.29937690  1  0  -0.652841  -0.854305  0  2.073175  0
O  O73  1  0.44438184  0.27305299  0.19952813  1  0  -0.652499  -0.853702  0  2.074806  0
O  O74  1  0.05546113  0.27341471  0.70062259  1  0  -0.652895  -0.854375  0  2.07307  0
O  O75  1  0.55561653  0.72694708  0.80047294  1  0  -0.652488  -0.853685  0  2.074728  0
O  O76  1  0.35232782  0.54837820  0.21949476  1  0  -0.357984  -0.661643  0  1.877145  0
O  O77  1  0.85245404  0.45110734  0.28105836  1  0  -0.358014  -0.661661  0  1.877664  0
O  O78  1  0.64767055  0.45162289  0.78050718  1  0  -0.357997  -0.661674  0  1.877055  0
O  O79  1  0.14754433  0.54889503  0.71894036  1  0  -0.358006  -0.661659  0  1.877677  0
O  O80  1  0.26463448  0.82678346  0.21483929  1  0  -0.517039  -0.901031  0  2.092833  0
O  O81  1  0.76515207  0.17257018  0.28477275  1  0  -0.517565  -0.901777  0  2.094008  0
O  O82  1  0.73536259  0.17321472  0.78515760  1  0  -0.517023  -0.901021  0  2.092843  0
O  O83  1  0.23484889  0.82743010  0.71522506  1  0  -0.51754  -0.901734  0  2.094013  0
O  O84  1  0.77602209  0.96548925  0.48342328  1  0  -0.366594  -0.617452  0  2.352213  0
O  O85  1  0.27599654  0.03422658  0.01660786  1  0  -0.365921  -0.61682  0  2.352389  0
O  O86  1  0.22397757  0.03451419  0.51657549  1  0  -0.366605  -0.617466  0  2.352166  0
O  O87  1  0.72399923  0.96577472  0.98339081  1  0  -0.365879  -0.61674  0  2.352453  0
O  O88  1  0.93011708  0.01024897  0.63732070  1  0  -0.373607  -0.684371  0  2.461111  0
O  O89  1  0.43033155  0.99017843  0.86264934  1  0  -0.372641  -0.683575  0  2.460491  0
O  O90  1  0.06988129  0.98975115  0.36267956  1  0  -0.373596  -0.684386  0  2.461043  0
O  O91  1  0.56966163  0.00981965  0.13734919  1  0  -0.37264  -0.683477  0  2.460562  0
