# generated using pymatgen
data_MgH12C20(NO2)2
_symmetry_space_group_name_H-M   'P 1'
_cell_length_a   9.27070758
_cell_length_b   10.01486201
_cell_length_c   10.01485419
_cell_angle_alpha   61.26076283
_cell_angle_beta   85.01761486
_cell_angle_gamma   85.01769903
_symmetry_Int_Tables_number   1
_chemical_formula_structural   MgH12C20(NO2)2
_chemical_formula_sum   'Mg2 H24 C40 N4 O8'
_cell_volume   811.12545192
_cell_formula_units_Z   2
loop_
 _symmetry_equiv_pos_site_id
 _symmetry_equiv_pos_as_xyz
  1  'x, y, z'
loop_
 _atom_site_type_symbol
 _atom_site_label
 _atom_site_symmetry_multiplicity
 _atom_site_fract_x
 _atom_site_fract_y
 _atom_site_fract_z
 _atom_site_occupancy
 _atom_site_hle17_bader_spin_density
 _atom_site_hle17_ddec_charge
 _atom_site_hle17_ddec_spin_density
 _atom_site_hle17_ddec_sum_bond_order
 _atom_site_hle17_magmom
 _atom_site_hse06_10hf_bader_spin_density
 _atom_site_hse06_10hf_ddec_charge
 _atom_site_hse06_10hf_ddec_spin_density
 _atom_site_hse06_10hf_ddec_sum_bond_order
 _atom_site_hse06_10hf_magmom
 _atom_site_hse06_bader_spin_density
 _atom_site_hse06_ddec_charge
 _atom_site_hse06_ddec_spin_density
 _atom_site_hse06_ddec_sum_bond_order
 _atom_site_hse06_magmom
 _atom_site_pbe_bader_spin_density
 _atom_site_pbe_cm5_charge
 _atom_site_pbe_ddec_charge
 _atom_site_pbe_ddec_spin_density
 _atom_site_pbe_ddec_sum_bond_order
 _atom_site_pbe_magmom
Mg  Mg0  1  0.25000026  0.05232942  0.94767070  1  0  1.461083  0  1.225379  0  0  1.354202  0  1.474346  0  0  1.378185  0  1.439414  0  0  0.832658  1.337391  0  1.499247  0
Mg  Mg1  1  0.74999911  0.94767030  0.05233079  1  0  1.461094  0  1.225427  0  0  1.354143  0  1.474468  0  0  1.378126  0  1.439534  0  0  0.832631  1.337338  0  1.499385  0
H  H2  1  0.98890745  0.27261023  0.99675825  1  0  0.08043  0  0.951824  0  0  0.089432  0  1.01497  0  0  0.091573  0  1.013093  0  0  0.120841  0.087566  0  1.016947  0
H  H3  1  0.51109389  0.00324193  0.72738987  1  0  0.080422  0  0.951805  0  0  0.089424  0  1.014959  0  0  0.091566  0  1.013081  0  0  0.120842  0.087558  0  1.016935  0
H  H4  1  0.01109403  0.72739064  0.00324152  1  0  0.080391  0  0.951825  0  0  0.089402  0  1.014982  0  0  0.09154  0  1.013104  0  0  0.120842  0.087537  0  1.016956  0
H  H5  1  0.48890764  0.99675779  0.27261144  1  0  0.080418  0  0.951826  0  0  0.089425  0  1.014974  0  0  0.091567  0  1.013095  0  0  0.12084  0.087559  0  1.016947  0
H  H6  1  0.89715065  0.54606587  0.86184331  1  0  0.100375  0  0.964837  0  0  0.112156  0  1.023329  0  0  0.114299  0  1.024181  0  0  0.106232  0.110631  0  1.022824  0
H  H7  1  0.60285146  0.13815493  0.45393393  1  0  0.100397  0  0.964855  0  0  0.112177  0  1.023343  0  0  0.114321  0  1.024193  0  0  0.106221  0.110651  0  1.022841  0
H  H8  1  0.10284974  0.45393502  0.13815455  1  0  0.100359  0  0.964884  0  0  0.112154  0  1.023356  0  0  0.114295  0  1.024212  0  0  0.106221  0.11063  0  1.022849  0
H  H9  1  0.39715007  0.86184481  0.54606538  1  0  0.100361  0  0.964873  0  0  0.112156  0  1.023347  0  0  0.114299  0  1.0242  0  0  0.106228  0.11063  0  1.02284  0
H  H10  1  0.99698243  0.71613070  0.59805611  1  0  0.094217  0  0.979163  0  0  0.104249  0  1.042562  0  0  0.105351  0  1.044096  0  0  0.102937  0.103373  0  1.041709  0
H  H11  1  0.50302070  0.40194413  0.28386919  1  0  0.094188  0  0.979184  0  0  0.104222  0  1.042578  0  0  0.105324  0  1.044115  0  0  0.102923  0.103343  0  1.041728  0
H  H12  1  0.00301905  0.28387018  0.40194166  1  0  0.094206  0  0.97917  0  0  0.104235  0  1.042572  0  0  0.105339  0  1.044105  0  0  0.102934  0.103356  0  1.041725  0
H  H13  1  0.49698083  0.59805560  0.71613112  1  0  0.094194  0  0.979182  0  0  0.104225  0  1.042581  0  0  0.105327  0  1.044117  0  0  0.102933  0.103347  0  1.041734  0
H  H14  1  0.16108232  0.74287321  0.37179112  1  0  0.109485  0  0.966747  0  0  0.118341  0  1.029405  0  0  0.120795  0  1.02917  0  0  0.106559  0.117044  0  1.029014  0
H  H15  1  0.33892271  0.62820782  0.25712527  1  0  0.109531  0  0.966661  0  0  0.118385  0  1.029312  0  0  0.120839  0  1.029078  0  0  0.106592  0.117087  0  1.028919  0
H  H16  1  0.83891921  0.25712654  0.62820618  1  0  0.109471  0  0.966761  0  0  0.118342  0  1.029397  0  0  0.120796  0  1.029163  0  0  0.106567  0.117045  0  1.029009  0
H  H17  1  0.66108093  0.37179307  0.74287232  1  0  0.109491  0  0.966726  0  0  0.118337  0  1.029395  0  0  0.120792  0  1.029161  0  0  0.106572  0.117041  0  1.029007  0
H  H18  1  0.76696818  0.96853437  0.65303986  1  0  0.104339  0  0.954249  0  0  0.113067  0  1.017146  0  0  0.116787  0  1.014768  0  0  0.105427  0.109934  0  1.019886  0
H  H19  1  0.73303142  0.34696279  0.03146615  1  0  0.104351  0  0.954275  0  0  0.113098  0  1.017137  0  0  0.116823  0  1.014753  0  0  0.105421  0.109943  0  1.019901  0
H  H20  1  0.23303113  0.03146650  0.34696009  1  0  0.104326  0  0.954279  0  0  0.113064  0  1.017164  0  0  0.116786  0  1.014781  0  0  0.105418  0.109919  0  1.019913  0
H  H21  1  0.26696681  0.65303808  0.96853489  1  0  0.104305  0  0.954276  0  0  0.113032  0  1.01718  0  0  0.116753  0  1.014799  0  0  0.105412  0.109898  0  1.019912  0
H  H22  1  0.22368250  0.02435025  0.60454694  1  0  0.094594  0  0.982029  0  0  0.101209  0  1.049875  0  0  0.104381  0  1.048708  0  0  0.099467  0.098648  0  1.051096  0
H  H23  1  0.27631794  0.39545097  0.97564961  1  0  0.094591  0  0.982014  0  0  0.101207  0  1.049864  0  0  0.104377  0  1.048697  0  0  0.099472  0.098661  0  1.051074  0
H  H24  1  0.77631567  0.97565175  0.39545256  1  0  0.094601  0  0.981999  0  0  0.101218  0  1.049842  0  0  0.104392  0  1.048672  0  0  0.099466  0.098649  0  1.051074  0
H  H25  1  0.72368149  0.60454761  0.02435241  1  0  0.094631  0  0.982032  0  0  0.101251  0  1.049873  0  0  0.104423  0  1.048706  0  0  0.0995  0.098693  0  1.051096  0
C  C26  1  0.19330333  0.38271053  0.68131127  1  0  0.136315  0  3.740633  0  0  0.129996  0  3.982241  0  0  0.133617  0  4.003342  0  0  0.122254  0.128075  0  3.966803  0
C  C27  1  0.30670027  0.31868978  0.61728853  1  0  0.13644  0  3.740528  0  0  0.130111  0  3.982133  0  0  0.133732  0  4.003235  0  0  0.122279  0.128183  0  3.966703  0
C  C28  1  0.80669831  0.61728692  0.31869112  1  0  0.136339  0  3.74072  0  0  0.13011  0  3.982217  0  0  0.133732  0  4.003322  0  0  0.122254  0.128179  0  3.966791  0
C  C29  1  0.69330349  0.68130882  0.38271114  1  0  0.136313  0  3.740699  0  0  0.129965  0  3.982306  0  0  0.133587  0  4.003409  0  0  0.122239  0.12804  0  3.966872  0
C  C30  1  0.03395442  0.35058287  0.88382303  1  0  0.151841  0  3.695898  0  0  0.119686  0  3.958368  0  0  0.127292  0  3.973256  0  0  0.062369  0.115086  0  3.948366  0
C  C31  1  0.46604748  0.11617576  0.64941564  1  0  0.151883  0  3.695788  0  0  0.119711  0  3.958276  0  0  0.127319  0  3.97316  0  0  0.062364  0.115111  0  3.94827  0
C  C32  1  0.96604716  0.64941574  0.11617482  1  0  0.151979  0  3.695759  0  0  0.11979  0  3.958264  0  0  0.127399  0  3.973147  0  0  0.062413  0.115192  0  3.948253  0
C  C33  1  0.53395514  0.88382398  0.35058458  1  0  0.151905  0  3.695822  0  0  0.119731  0  3.958311  0  0  0.127337  0  3.973196  0  0  0.062378  0.115134  0  3.948296  0
C  C34  1  0.98155733  0.50370389  0.80707820  1  0  -0.12707  0  3.748102  0  0  -0.138905  0  3.999856  0  0  -0.146121  0  4.022348  0  0  -0.086079  -0.134494  0  3.985204  0
C  C35  1  0.51844622  0.19292219  0.49629541  1  0  -0.127148  0  3.748144  0  0  -0.138976  0  3.999891  0  0  -0.146193  0  4.022382  0  0  -0.086063  -0.134569  0  3.98524  0
C  C36  1  0.01844307  0.49629699  0.19291965  1  0  -0.127144  0  3.748211  0  0  -0.138985  0  3.999979  0  0  -0.146199  0  4.02247  0  0  -0.086101  -0.134576  0  3.98532  0
C  C37  1  0.48155634  0.80707868  0.50370427  1  0  -0.127118  0  3.748167  0  0  -0.138961  0  3.999926  0  0  -0.146177  0  4.022416  0  0  -0.086086  -0.134548  0  3.985264  0
C  C38  1  0.03646066  0.59745490  0.66136725  1  0  -0.042936  0  3.689577  0  0  -0.06536  0  3.931374  0  0  -0.063145  0  3.951208  0  0  -0.064383  -0.066948  0  3.918587  0
C  C39  1  0.46354129  0.33863172  0.40254474  1  0  -0.042881  0  3.689605  0  0  -0.065306  0  3.931388  0  0  -0.063091  0  3.95122  0  0  -0.064367  -0.066886  0  3.918593  0
C  C40  1  0.96353978  0.40254484  0.33863015  1  0  -0.042881  0  3.689581  0  0  -0.065294  0  3.931389  0  0  -0.063079  0  3.951217  0  0  -0.064366  -0.066875  0  3.918593  0
C  C41  1  0.53645916  0.66136801  0.59745466  1  0  -0.042887  0  3.689569  0  0  -0.065297  0  3.931361  0  0  -0.063083  0  3.951195  0  0  -0.06436  -0.066881  0  3.918568  0
C  C42  1  0.14324718  0.53738418  0.59253627  1  0  0.023152  0  3.79181  0  0  0.039633  0  4.023264  0  0  0.037277  0  4.047482  0  0  -0.002482  0.041177  0  4.006982  0
C  C43  1  0.35675479  0.40746371  0.46261377  1  0  0.023162  0  3.791686  0  0  0.039659  0  4.023121  0  0  0.037304  0  4.047339  0  0  -0.002512  0.0412  0  4.006839  0
C  C44  1  0.85675441  0.46261442  0.40746357  1  0  0.023108  0  3.79177  0  0  0.039534  0  4.023259  0  0  0.037178  0  4.047477  0  0  -0.002541  0.041081  0  4.006973  0
C  C45  1  0.64324566  0.59253602  0.53738563  1  0  0.023156  0  3.791731  0  0  0.039618  0  4.023221  0  0  0.037261  0  4.04744  0  0  -0.002514  0.041167  0  4.006933  0
C  C46  1  0.19982134  0.62456455  0.43905196  1  0  -0.093571  0  3.725715  0  0  -0.115199  0  3.978629  0  0  -0.118344  0  4.001661  0  0  -0.083367  -0.113831  0  3.96364  0
C  C47  1  0.30018296  0.56094697  0.37543639  1  0  -0.093663  0  3.72568  0  0  -0.115297  0  3.97861  0  0  -0.118443  0  4.001642  0  0  -0.08335  -0.113926  0  3.963625  0
C  C48  1  0.80018019  0.37543518  0.56094735  1  0  -0.093544  0  3.725688  0  0  -0.115177  0  3.978618  0  0  -0.118322  0  4.001653  0  0  -0.083316  -0.113803  0  3.96363  0
C  C49  1  0.69981966  0.43905277  0.62456283  1  0  -0.093592  0  3.725693  0  0  -0.115219  0  3.978643  0  0  -0.118364  0  4.001676  0  0  -0.08337  -0.113844  0  3.963648  0
C  C50  1  0.99483510  0.99655072  0.64196358  1  0  -0.06882  0  3.74652  0  0  -0.04704  0  3.979959  0  0  -0.052843  0  4.000791  0  0  -0.01876  -0.042654  0  3.96529  0
C  C51  1  0.50516416  0.35803701  0.00344913  1  0  -0.068821  0  3.746513  0  0  -0.047037  0  3.979938  0  0  -0.052839  0  4.000771  0  0  -0.018748  -0.042654  0  3.965274  0
C  C52  1  0.00516307  0.00345129  0.35803592  1  0  -0.068967  0  3.746677  0  0  -0.047172  0  3.980139  0  0  -0.052979  0  4.000975  0  0  -0.018776  -0.04278  0  3.965461  0
C  C53  1  0.49483413  0.64196271  0.99655345  1  0  -0.068826  0  3.746517  0  0  -0.047028  0  3.979957  0  0  -0.052828  0  4.000786  0  0  -0.018748  -0.042637  0  3.965277  0
C  C54  1  0.86784619  0.98280345  0.58409987  1  0  -0.085406  0  3.747051  0  0  -0.106375  0  3.994998  0  0  -0.106897  0  4.0135  0  0  -0.086879  -0.105851  0  3.982997  0
C  C55  1  0.63215168  0.41589940  0.01719932  1  0  -0.085385  0  3.747038  0  0  -0.10636  0  3.994959  0  0  -0.106883  0  4.013459  0  0  -0.086878  -0.105821  0  3.982972  0
C  C56  1  0.13215306  0.01719857  0.41589853  1  0  -0.085369  0  3.747106  0  0  -0.106342  0  3.995033  0  0  -0.106863  0  4.013534  0  0  -0.08687  -0.105809  0  3.983033  0
C  C57  1  0.36784450  0.58409917  0.98280397  1  0  -0.085346  0  3.747086  0  0  -0.106315  0  3.995028  0  0  -0.106837  0  4.013527  0  0  -0.08685  -0.10579  0  3.983022  0
C  C58  1  0.98949965  0.99553231  0.79347738  1  0  0.69408  0  3.907378  0  0  0.63755  0  4.214519  0  0  0.671406  0  4.202872  0  0  0.223114  0.613974  0  4.221794  0
C  C59  1  0.51050061  0.20652254  0.00446683  1  0  0.694026  0  3.907405  0  0  0.637492  0  4.214558  0  0  0.671342  0  4.202916  0  0  0.223083  0.613919  0  4.221832  0
C  C60  1  0.01051152  0.00446971  0.20652106  1  0  0.694298  0  3.907005  0  0  0.637708  0  4.214248  0  0  0.67156  0  4.202605  0  0  0.223143  0.614125  0  4.22154  0
C  C61  1  0.48948691  0.79347603  0.99553617  1  0  0.69419  0  3.907235  0  0  0.637623  0  4.214433  0  0  0.671473  0  4.202786  0  0  0.223153  0.614049  0  4.221705  0
C  C62  1  0.12684233  0.01327245  0.55715997  1  0  -0.085852  0  3.750071  0  0  -0.107312  0  3.999232  0  0  -0.107603  0  4.01782  0  0  -0.090528  -0.106705  0  3.986678  0
C  C63  1  0.37315721  0.44283882  0.98672909  1  0  -0.085833  0  3.750132  0  0  -0.107297  0  3.999288  0  0  -0.107586  0  4.017877  0  0  -0.090533  -0.10671  0  3.986739  0
C  C64  1  0.87315806  0.98672842  0.44283989  1  0  -0.085773  0  3.75017  0  0  -0.107231  0  3.999322  0  0  -0.107524  0  4.017911  0  0  -0.090497  -0.106625  0  3.986786  0
C  C65  1  0.62684011  0.55715860  0.01327665  1  0  -0.085923  0  3.750104  0  0  -0.107402  0  3.999284  0  0  -0.107692  0  4.017872  0  0  -0.090574  -0.106803  0  3.986737  0
N  N66  1  0.13835858  0.29159785  0.82466447  1  0  -0.393109  0  3.212796  0  0  -0.342109  0  3.467849  0  0  -0.354149  0  3.483052  0  0  -0.326233  -0.334196  0  3.456929  0
N  N67  1  0.36164322  0.17533463  0.70840050  1  0  -0.39318  0  3.212794  0  0  -0.342176  0  3.46786  0  0  -0.354213  0  3.483059  0  0  -0.326233  -0.334257  0  3.456934  0
N  N68  1  0.86164084  0.70840074  0.17533555  1  0  -0.393156  0  3.212714  0  0  -0.342151  0  3.467735  0  0  -0.354191  0  3.482936  0  0  -0.326224  -0.334232  0  3.456813  0
N  N69  1  0.63835945  0.82466397  0.29159926  1  0  -0.393112  0  3.212765  0  0  -0.342089  0  3.467824  0  0  -0.35413  0  3.483026  0  0  -0.326212  -0.334174  0  3.456899  0
O  O70  1  0.10971200  0.98352487  0.85002562  1  0  -0.723063  0  2.075584  0  0  -0.67575  0  2.331503  0  0  -0.697459  0  2.318085  0  0  -0.354326  -0.660463  0  2.34267  0
O  O71  1  0.39028803  0.14997380  0.01647584  1  0  -0.723064  0  2.07557  0  0  -0.67576  0  2.331506  0  0  -0.697463  0  2.318082  0  0  -0.354343  -0.660473  0  2.34267  0
O  O72  1  0.89028281  0.01647943  0.14997006  1  0  -0.723246  0  2.075083  0  0  -0.675906  0  2.331069  0  0  -0.697603  0  2.31762  0  0  -0.354425  -0.660605  0  2.34222  0
O  O73  1  0.60971237  0.85002704  0.98352903  1  0  -0.7232  0  2.075289  0  0  -0.675857  0  2.331231  0  0  -0.697559  0  2.317796  0  0  -0.354403  -0.660569  0  2.342394  0
O  O74  1  0.86451682  0.00518115  0.85181858  1  0  -0.699534  0  2.007892  0  0  -0.644353  0  2.251333  0  0  -0.665289  0  2.236637  0  0  -0.352497  -0.629055  0  2.262197  0
O  O75  1  0.63548327  0.14818263  0.99481633  1  0  -0.699507  0  2.007972  0  0  -0.644298  0  2.25137  0  0  -0.665251  0  2.236722  0  0  -0.352464  -0.628993  0  2.262218  0
O  O76  1  0.13547822  0.99481857  0.14818326  1  0  -0.699572  0  2.008185  0  0  -0.64439  0  2.251664  0  0  -0.665328  0  2.236996  0  0  -0.352462  -0.629083  0  2.26252  0
O  O77  1  0.36451621  0.85181482  0.00518523  1  0  -0.69954  0  2.008175  0  0  -0.644345  0  2.251599  0  0  -0.665301  0  2.236959  0  0  -0.352479  -0.629043  0  2.262446  0
