# generated using pymatgen
data_CuH8C12N10O
_symmetry_space_group_name_H-M   'P 1'
_cell_length_a   6.17069150
_cell_length_b   9.96834628
_cell_length_c   27.11439016
_cell_angle_alpha   90.00125702
_cell_angle_beta   89.94342178
_cell_angle_gamma   89.99864441
_symmetry_Int_Tables_number   1
_chemical_formula_structural   CuH8C12N10O
_chemical_formula_sum   'Cu4 H32 C48 N40 O4'
_cell_volume   1667.84842884
_cell_formula_units_Z   4
loop_
 _symmetry_equiv_pos_site_id
 _symmetry_equiv_pos_as_xyz
  1  'x, y, z'
loop_
 _atom_site_type_symbol
 _atom_site_label
 _atom_site_symmetry_multiplicity
 _atom_site_fract_x
 _atom_site_fract_y
 _atom_site_fract_z
 _atom_site_occupancy
 _atom_site_pbe_bader_charge
 _atom_site_pbe_bader_spin_density
 _atom_site_pbe_cm5_charge
 _atom_site_pbe_ddec_charge
 _atom_site_pbe_ddec_spin_density
 _atom_site_pbe_ddec_sum_bond_order
 _atom_site_pbe_magmom
Cu  Cu0  1  0.00039987  0.50000875  0.00117781  1  1.012691  0.492814  0.775795  0.683927  0.681344  2.423228  0.49
Cu  Cu1  1  0.99953573  0.49996313  0.50117684  1  1.008436  0.439239  0.774593  0.680689  0.609804  2.42274  0.439
Cu  Cu2  1  0.50036895  0.99999862  0.00118422  1  1.012508  0.49279  0.775826  0.683934  0.681293  2.423339  0.491
Cu  Cu3  1  0.49952775  0.00003144  0.50117338  1  1.00876  -0.439254  0.774669  0.680635  -0.653819  2.423112  -0.44
H  H4  1  0.84734315  0.47479234  0.90045560  1  0.150589  0.001951  0.12077  0.09677  0.001053  1.031725  0.001
H  H5  1  0.15261728  0.52507249  0.40042274  1  0.151071  0.001794  0.120869  0.096864  0.000813  1.03215  0.001
H  H6  1  0.34730265  0.02520100  0.90045637  1  0.150353  0.001952  0.120725  0.096678  0.001053  1.031582  0.001
H  H7  1  0.65259456  0.97491463  0.40042419  1  0.151404  -0.001795  0.120905  0.096897  -0.000889  1.032084  -0.001
H  H8  1  0.97816217  0.52142782  0.81472962  1  0.109974  0.000878  0.110198  0.120221  0.000488  1.013951  0.0
H  H9  1  0.02179445  0.47869196  0.31473566  1  0.111193  0.000871  0.110203  0.12039  0.00049  1.013603  0.0
H  H10  1  0.47811182  0.97855960  0.81472392  1  0.109801  0.000871  0.110227  0.120248  0.00048  1.01407  0.0
H  H11  1  0.52177188  0.02129835  0.31474469  1  0.111482  -0.000863  0.110174  0.120312  -0.000514  1.013855  0.0
H  H12  1  0.59772340  0.62945455  0.87882888  1  0.097907  0.000884  0.112991  0.122194  0.000455  1.012273  0.0
H  H13  1  0.40238266  0.37010986  0.37906341  1  0.098713  0.000874  0.113107  0.121794  0.000486  1.011607  0.0
H  H14  1  0.09775494  0.87055752  0.87883276  1  0.097768  0.000883  0.112977  0.122085  0.000453  1.01231  0.0
H  H15  1  0.90241753  0.12987564  0.37906174  1  0.098923  -0.000873  0.113219  0.121908  -0.000517  1.011686  0.0
H  H16  1  0.44373961  0.57386062  0.96075921  1  0.179301  0.00172  0.119393  0.091956  0.000821  1.051861  0.001
H  H17  1  0.55623915  0.42555091  0.46095535  1  0.176111  0.00177  0.119356  0.092065  0.000989  1.05035  0.001
H  H18  1  0.94373318  0.92615397  0.96076475  1  0.179576  0.001719  0.119431  0.092015  0.00082  1.051724  0.001
H  H19  1  0.05624553  0.07444330  0.46095461  1  0.176224  -0.00177  0.119348  0.092066  -0.001054  1.050356  -0.001
H  H20  1  0.97759158  0.52144052  0.68759975  1  0.108017  0.00087  0.110401  0.120906  0.000489  1.013615  0.0
H  H21  1  0.02249763  0.47848095  0.18760529  1  0.106894  0.000877  0.110377  0.120672  0.000486  1.013642  0.0
H  H22  1  0.47759145  0.97855725  0.68759699  1  0.108152  -0.000863  0.11037  0.12088  -0.000512  1.013693  0.0
H  H23  1  0.52253664  0.02153275  0.18760546  1  0.106736  0.00087  0.110284  0.120664  0.000479  1.013665  0.0
H  H24  1  0.84672815  0.47481421  0.60195103  1  0.147907  0.001801  0.121045  0.097158  0.000816  1.031471  0.001
H  H25  1  0.15323396  0.52533111  0.10189444  1  0.147477  0.001956  0.121016  0.09666  0.001053  1.031825  0.001
H  H26  1  0.34672979  0.02518575  0.60194885  1  0.147877  -0.001801  0.121033  0.097127  -0.000891  1.031489  -0.001
H  H27  1  0.65326637  0.97468871  0.10188998  1  0.14742  0.001957  0.120978  0.096573  0.001054  1.031805  0.001
H  H28  1  0.44280836  0.57425654  0.54131076  1  0.176802  0.001768  0.119348  0.092033  0.000987  1.050821  0.001
H  H29  1  0.55703374  0.42636214  0.04152258  1  0.181607  0.001714  0.119464  0.091812  0.000819  1.052262  0.001
H  H30  1  0.94280197  0.92574635  0.54130744  1  0.176867  -0.001768  0.119351  0.092  -0.001053  1.050887  -0.001
H  H31  1  0.05698993  0.07362638  0.04152811  1  0.181449  0.001716  0.119502  0.091868  0.00082  1.052085  0.001
H  H32  1  0.59674269  0.62983001  0.62317687  1  0.100809  0.000871  0.112931  0.121917  0.000486  1.01261  0.0
H  H33  1  0.40308726  0.37065786  0.12344258  1  0.101698  0.000882  0.112742  0.121674  0.000455  1.01214  0.0
H  H34  1  0.09673700  0.87018761  0.62317264  1  0.10089  -0.00087  0.112856  0.121783  -0.000517  1.012716  0.0
H  H35  1  0.90306703  0.12933620  0.12345382  1  0.101393  0.000881  0.112792  0.12176  0.000454  1.011984  0.0
C  C36  1  0.01126746  0.51024563  0.89342374  1  0.497907  -0.001242  0.051128  0.096544  -0.000363  3.927946  -0.001
C  C37  1  0.98875535  0.48950034  0.39344063  1  0.496427  -0.001192  0.051538  0.096578  -0.000268  3.927256  -0.001
C  C38  1  0.51123725  0.98974965  0.89342345  1  0.497495  -0.001298  0.051196  0.096747  -0.000404  3.92745  -0.001
C  C39  1  0.48874665  0.01049891  0.39344204  1  0.496164  0.001245  0.051567  0.096599  4.5e-05  3.927121  0.001
C  C40  1  0.08643047  0.53442844  0.84604573  1  0.01207  0.005176  -0.081321  -0.154586  0.003665  3.928646  0.004
C  C41  1  0.91349433  0.46553298  0.34608702  1  0.013032  0.004734  -0.081142  -0.1541  0.003387  3.92802  0.004
C  C42  1  0.58640355  0.96558342  0.84604158  1  0.01243  0.005363  -0.081314  -0.154696  0.003791  3.928433  0.004
C  C43  1  0.41347426  0.03445825  0.34609154  1  0.012631  -0.004895  -0.08116  -0.154048  -0.003738  3.928674  -0.004
C  C44  1  0.30185424  0.57686321  0.83972577  1  -0.022827  -0.002783  0.009087  0.038698  -0.002129  4.037621  -0.002
C  C45  1  0.69810678  0.42301552  0.33985865  1  -0.023227  -0.002859  0.00943  0.037913  -0.002174  4.037397  -0.002
C  C46  1  0.80184317  0.92313851  0.83972465  1  -0.022368  -0.002873  0.009045  0.038743  -0.002188  4.037209  -0.002
C  C47  1  0.19811623  0.07698700  0.33985978  1  -0.023838  0.00295  0.009438  0.037877  0.002091  4.037971  0.002
C  C48  1  0.43118387  0.59434979  0.88165680  1  0.03643  0.005059  -0.070977  -0.13532  0.003657  3.889268  0.004
C  C49  1  0.56889592  0.40524491  0.38184875  1  0.036631  0.004789  -0.070878  -0.133473  0.003436  3.887371  0.004
C  C50  1  0.93119019  0.90565039  0.88165629  1  0.036618  0.005281  -0.070898  -0.135099  0.003811  3.888737  0.004
C  C51  1  0.06892198  0.09474886  0.38184963  1  0.037176  -0.004983  -0.070994  -0.133568  -0.003829  3.887767  -0.004
C  C52  1  0.34401405  0.56540990  0.92775514  1  0.467788  -0.000663  0.056073  0.109932  0.000169  3.89975  -0.001
C  C53  1  0.65604503  0.43412075  0.42792103  1  0.466792  -0.001182  0.05575  0.109352  -0.000424  3.897469  -0.001
C  C54  1  0.84402002  0.93461779  0.92775594  1  0.466986  -0.000695  0.055994  0.109864  0.000144  3.899227  -0.001
C  C55  1  0.15605686  0.06587189  0.42792208  1  0.466577  0.00121  0.055703  0.109226  0.000164  3.897527  0.001
C  C56  1  0.38921460  0.59741746  0.79061680  1  1.018903  6.8e-05  0.226957  0.309629  4.3e-05  3.983752  0.0
C  C57  1  0.61079435  0.40252512  0.29078174  1  1.020717  8.2e-05  0.226457  0.3092  6.3e-05  3.981671  0.0
C  C58  1  0.88921952  0.90259467  0.79061627  1  1.018927  0.000833  0.226926  0.309468  0.000642  3.983755  0.001
C  C59  1  0.11082022  0.09746528  0.29078448  1  1.021726  -0.00077  0.226408  0.309144  -0.000653  3.98162  -0.001
C  C60  1  0.38874574  0.59760535  0.71150608  1  1.050435  8.3e-05  0.226569  0.30949  6.4e-05  3.981162  0.0
C  C61  1  0.61129620  0.40244717  0.21167977  1  1.018882  7e-05  0.22672  0.309454  4.3e-05  3.982438  0.0
C  C62  1  0.88873770  0.90239734  0.71150776  1  1.050438  -0.000767  0.22648  0.309317  -0.000653  3.981398  -0.001
C  C63  1  0.11130747  0.09754482  0.21168398  1  1.018314  0.000836  0.226586  0.309368  0.000643  3.982738  0.001
C  C64  1  0.30113670  0.57711094  0.66244763  1  -0.021956  -0.002859  0.00901  0.038284  -0.002172  4.036841  -0.002
C  C65  1  0.69884450  0.42302248  0.16258811  1  -0.013342  -0.002785  0.008657  0.037201  -0.002129  4.037267  -0.002
C  C66  1  0.80113698  0.92288967  0.66245020  1  -0.021983  0.002951  0.009054  0.038271  0.00209  4.036996  0.002
C  C67  1  0.19885880  0.07696487  0.16259255  1  -0.012872  -0.002874  0.008736  0.037441  -0.002187  4.037174  -0.002
C  C68  1  0.08580098  0.53452727  0.65623623  1  0.013803  0.004734  -0.080412  -0.153937  0.003389  3.928582  0.004
C  C69  1  0.91420825  0.46554954  0.15629065  1  0.014382  0.005177  -0.080367  -0.153552  0.003668  3.927514  0.004
C  C70  1  0.58580808  0.96547058  0.65623576  1  0.013509  -0.004895  -0.080356  -0.153838  -0.003741  3.928527  -0.004
C  C71  1  0.41424653  0.03447080  0.15629074  1  0.014309  0.005366  -0.080411  -0.153976  0.003796  3.927367  0.004
C  C72  1  0.01062421  0.51029406  0.60889072  1  0.496111  -0.00117  0.050869  0.095602  -0.000264  3.927839  -0.001
C  C73  1  0.98933074  0.48989086  0.10891560  1  0.497734  -0.001226  0.05074  0.096147  -0.000357  3.92834  -0.001
C  C74  1  0.51062156  0.98970178  0.60889079  1  0.496159  0.001222  0.05081  0.09559  4e-05  3.927624  0.001
C  C75  1  0.48934475  0.01010494  0.10891442  1  0.497727  -0.001283  0.050954  0.096623  -0.000399  3.927924  -0.001
C  C76  1  0.34312236  0.56576093  0.57435723  1  0.540436  -0.001289  0.05541  0.108748  -0.000425  3.897792  -0.001
C  C77  1  0.65678524  0.43472057  0.07452406  1  0.513173  -0.000712  0.055329  0.109025  0.000165  3.900107  -0.001
C  C78  1  0.84310567  0.93424955  0.57435471  1  0.541084  0.001319  0.055428  0.108819  0.000166  3.897891  0.001
C  C79  1  0.15676144  0.06527893  0.07452953  1  0.513235  -0.000745  0.055261  0.109003  0.000141  3.900014  -0.001
C  C80  1  0.43028606  0.59465684  0.62042693  1  -0.036375  0.004896  -0.070343  -0.133774  0.003434  3.887314  0.004
C  C81  1  0.56963164  0.40568236  0.12062056  1  -0.045759  0.005165  -0.069936  -0.132912  0.003657  3.887977  0.004
C  C82  1  0.93026810  0.90534951  0.62042532  1  -0.036709  -0.005091  -0.070285  -0.133569  -0.003828  3.887141  -0.004
C  C83  1  0.06962368  0.09432158  0.12062844  1  -0.045591  0.005389  -0.069998  -0.133094  0.003812  3.887817  0.004
N  N84  1  0.13749330  0.52502458  0.93351288  1  -1.210573  0.07513  -0.331863  -0.202139  0.054014  3.574858  0.065
N  N85  1  0.86254194  0.47458169  0.43358934  1  -1.210074  0.072605  -0.331983  -0.202123  0.052397  3.574436  0.064
N  N86  1  0.63746734  0.97496503  0.93351396  1  -1.210007  0.07531  -0.331914  -0.202374  0.054139  3.574715  0.066
N  N87  1  0.36255490  0.02542071  0.43359269  1  -1.21043  -0.072748  -0.332041  -0.202038  -0.05622  3.574444  -0.064
N  N88  1  0.58501242  0.63258097  0.77658373  1  -0.660132  -0.000854  -0.218867  -0.244535  -0.000627  3.1581  -0.001
N  N89  1  0.41501587  0.36734760  0.27682487  1  -0.676217  -0.000894  -0.218321  -0.243957  -0.00064  3.158789  -0.001
N  N90  1  0.08501826  0.86742713  0.77658168  1  -0.660025  -0.000862  -0.218777  -0.244381  -0.000662  3.157985  -0.001
N  N91  1  0.91503919  0.13264189  0.27682913  1  -0.677038  0.000868  -0.218241  -0.24383  0.000599  3.158612  0.001
N  N92  1  0.58470597  0.63271264  0.72536261  1  -0.717821  -0.000892  -0.217789  -0.243602  -0.000639  3.158082  -0.001
N  N93  1  0.41530903  0.36735387  0.22560296  1  -0.671601  -0.000854  -0.218142  -0.243762  -0.000627  3.159054  -0.001
N  N94  1  0.08470695  0.86729898  0.72536020  1  -0.717842  0.000862  -0.217828  -0.243623  0.000597  3.158161  0.001
N  N95  1  0.91531776  0.13263110  0.22560979  1  -0.670781  -0.000862  -0.218024  -0.243684  -0.000662  3.159094  -0.001
N  N96  1  0.13665616  0.52526087  0.56872396  1  -1.208987  0.07257  -0.332232  -0.201619  0.052392  3.575744  0.064
N  N97  1  0.86329619  0.47511190  0.06879878  1  -1.186872  0.075045  -0.332748  -0.202749  0.054006  3.576292  0.065
N  N98  1  0.63662861  0.97473182  0.56871987  1  -1.209441  -0.072718  -0.332222  -0.201711  -0.05622  3.576058  -0.064
N  N99  1  0.36328487  0.02490261  0.06880250  1  -1.18657  0.075229  -0.332794  -0.202882  0.054132  3.576459  0.066
N  N100  1  0.78624183  0.64633631  0.98465242  1  -0.201301  0.067217  -0.297547  -0.494558  0.049854  2.983939  0.059
N  N101  1  0.21223796  0.35348515  0.48490332  1  -0.225822  0.064919  -0.30023  -0.495923  0.048428  2.990157  0.057
N  N102  1  0.28623240  0.85366537  0.98465139  1  -0.201348  0.067207  -0.297447  -0.494332  0.049846  2.984684  0.059
N  N103  1  0.71222631  0.14650219  0.48490509  1  -0.22619  -0.064933  -0.300113  -0.495872  -0.05203  2.990162  -0.057
N  N104  1  0.76799205  0.73895930  0.01250720  1  -0.352634  0.00201  0.07265  0.41455  -0.001556  4.493447  -0.008
N  N105  1  0.22929899  0.26130831  0.51301439  1  -0.309478  0.004727  0.07339  0.413756  0.000577  4.49765  -0.005
N  N106  1  0.26798894  0.76105603  0.01250553  1  -0.35284  0.001999  0.072466  0.414255  -0.001563  4.494004  -0.008
N  N107  1  0.72929563  0.23868893  0.51301421  1  -0.310236  -0.004734  0.073226  0.413666  -0.001393  4.497675  0.005
N  N108  1  0.74542861  0.83334397  0.03795499  1  -0.092769  0.099129  -0.220951  -0.429215  0.067997  2.760789  0.073
N  N109  1  0.25086623  0.16732065  0.53865987  1  -0.109948  0.096449  -0.219312  -0.42676  0.065933  2.754244  0.069
N  N110  1  0.24542707  0.66667117  0.03795636  1  -0.092548  0.099174  -0.22088  -0.429119  0.068032  2.760376  0.073
N  N111  1  0.75086781  0.33268129  0.53865739  1  -0.109067  -0.096455  -0.219235  -0.426705  -0.070598  2.75432  -0.069
N  N112  1  0.21460116  0.35370287  0.01764965  1  -0.232672  0.067285  -0.297919  -0.495297  0.049789  2.986506  0.059
N  N113  1  0.78697804  0.64650086  0.51738194  1  -0.222307  0.064885  -0.300167  -0.496231  0.048423  2.98941  0.057
N  N114  1  0.71460412  0.14629155  0.01764884  1  -0.232656  0.067302  -0.297909  -0.495215  0.049802  2.986415  0.059
N  N115  1  0.28698320  0.85349486  0.51738349  1  -0.223004  -0.064889  -0.300163  -0.49628  -0.052017  2.989456  -0.057
N  N116  1  0.23287364  0.26109492  0.98979413  1  -0.317685  0.001827  0.073176  0.414908  -0.00156  4.494154  -0.008
N  N117  1  0.76999645  0.73865764  0.48925612  1  -0.307014  0.004729  0.073156  0.414293  0.00057  4.496359  -0.005
N  N118  1  0.73287676  0.23889788  0.98979395  1  -0.317828  0.001824  0.072974  0.414678  -0.001562  4.494091  -0.008
N  N119  1  0.26999494  0.76133821  0.48925630  1  -0.306127  -0.004728  0.073153  0.414346  -0.001383  4.496052  0.005
N  N120  1  0.25556994  0.16669220  0.96435592  1  -0.09639  0.099094  -0.221209  -0.428947  0.067972  2.759805  0.073
N  N121  1  0.74837085  0.83265032  0.46362023  1  -0.116041  0.096429  -0.219066  -0.426766  0.065864  2.753053  0.069
N  N122  1  0.75558605  0.33329878  0.96435897  1  -0.096274  0.099089  -0.220988  -0.428741  0.067971  2.759741  0.073
N  N123  1  0.24837089  0.66734385  0.46361792  1  -0.116222  -0.096454  -0.219062  -0.426811  -0.070537  2.752732  -0.069
O  O124  1  0.25721037  0.57278133  0.75112606  1  -1.045136  -0.000118  -0.091535  -0.164727  -9.6e-05  2.523471  0.0
O  O125  1  0.74283839  0.42726287  0.25124358  1  -1.043857  -0.000118  -0.091499  -0.164446  -9.6e-05  2.522913  0.0
O  O126  1  0.75720387  0.92723051  0.75112754  1  -1.045193  5e-06  -0.091472  -0.164563  -5e-06  2.523321  0.0
O  O127  1  0.24284488  0.07271738  0.25124836  1  -1.044103  5e-06  -0.091492  -0.164428  -5e-06  2.523098  0.0
