# generated using pymatgen
data_CdH12(CN3)4
_symmetry_space_group_name_H-M   'P 1'
_cell_length_a   7.24166064
_cell_length_b   11.46671862
_cell_length_c   13.37850006
_cell_angle_alpha   90.00005982
_cell_angle_beta   103.97820757
_cell_angle_gamma   89.99987956
_symmetry_Int_Tables_number   1
_chemical_formula_structural   CdH12(CN3)4
_chemical_formula_sum   'Cd4 H48 C16 N48'
_cell_volume   1078.02794712
_cell_formula_units_Z   4
loop_
 _symmetry_equiv_pos_site_id
 _symmetry_equiv_pos_as_xyz
  1  'x, y, z'
loop_
 _atom_site_type_symbol
 _atom_site_label
 _atom_site_symmetry_multiplicity
 _atom_site_fract_x
 _atom_site_fract_y
 _atom_site_fract_z
 _atom_site_occupancy
 _atom_site_hle17_bader_spin_density
 _atom_site_hle17_ddec_charge
 _atom_site_hle17_ddec_spin_density
 _atom_site_hle17_ddec_sum_bond_order
 _atom_site_hle17_magmom
 _atom_site_hse06_10hf_bader_spin_density
 _atom_site_hse06_10hf_ddec_charge
 _atom_site_hse06_10hf_ddec_spin_density
 _atom_site_hse06_10hf_ddec_sum_bond_order
 _atom_site_hse06_10hf_magmom
 _atom_site_hse06_bader_spin_density
 _atom_site_hse06_ddec_charge
 _atom_site_hse06_ddec_spin_density
 _atom_site_hse06_ddec_sum_bond_order
 _atom_site_hse06_magmom
 _atom_site_pbe_bader_spin_density
 _atom_site_pbe_cm5_charge
 _atom_site_pbe_ddec_charge
 _atom_site_pbe_ddec_spin_density
 _atom_site_pbe_ddec_sum_bond_order
 _atom_site_pbe_magmom
Cd  Cd0  1  0.94718173  0.73349616  0.18159567  1  0  0.968815  0  1.826197  0  0  0.762972  0  2.272028  0  0  0.810929  0  2.233818  0  0  0.773776  0.729233  0  2.298041  0
Cd  Cd1  1  0.55281821  0.23349732  0.31840495  1  0  0.968839  0  1.826212  0  0  0.763  0  2.272038  0  0  0.810959  0  2.233825  0  0  0.773793  0.729262  0  2.298052  0
Cd  Cd2  1  0.05281877  0.26650391  0.81840587  1  0  0.968863  0  1.826186  0  0  0.763005  0  2.272033  0  0  0.810965  0  2.233819  0  0  0.773797  0.729269  0  2.298046  0
Cd  Cd3  1  0.44718088  0.76650362  0.68159565  1  0  0.968887  0  1.826166  0  0  0.763024  0  2.27204  0  0  0.810983  0  2.233826  0  0  0.773796  0.729287  0  2.298055  0
H  H4  1  0.69483479  0.64462183  0.34024572  1  0  0.314094  0  0.913058  0  0  0.291959  0  0.994796  0  0  0.298935  0  0.988077  0  0  0.294212  0.286974  0  0.999601  0
H  H5  1  0.80516543  0.14462158  0.15975486  1  0  0.314064  0  0.91304  0  0  0.291938  0  0.994766  0  0  0.298915  0  0.988047  0  0  0.294226  0.286954  0  0.999569  0
H  H6  1  0.30516714  0.35537911  0.65975601  1  0  0.314086  0  0.913033  0  0  0.291954  0  0.994759  0  0  0.298931  0  0.988039  0  0  0.294238  0.286972  0  0.999561  0
H  H7  1  0.19483366  0.85537674  0.84024575  1  0  0.314057  0  0.913066  0  0  0.29193  0  0.994791  0  0  0.298907  0  0.988072  0  0  0.294204  0.286948  0  0.999591  0
H  H8  1  0.67898501  0.51430822  0.40260160  1  0  0.306425  0  0.963831  0  0  0.275134  0  1.058415  0  0  0.283265  0  1.051127  0  0  0.286801  0.269386  0  1.06347  0
H  H9  1  0.82101420  0.01430701  0.09739797  1  0  0.306402  0  0.963816  0  0  0.275108  0  1.058412  0  0  0.28324  0  1.051123  0  0  0.286793  0.269361  0  1.063466  0
H  H10  1  0.32101550  0.48569272  0.59739919  1  0  0.306401  0  0.963868  0  0  0.275063  0  1.058537  0  0  0.283199  0  1.051245  0  0  0.286758  0.269316  0  1.063587  0
H  H11  1  0.17898490  0.98569131  0.90260189  1  0  0.306357  0  0.963901  0  0  0.275061  0  1.058502  0  0  0.283194  0  1.051214  0  0  0.286769  0.269314  0  1.063556  0
H  H12  1  0.04401926  0.92214021  0.37802665  1  0  0.316122  0  0.917336  0  0  0.302194  0  0.977344  0  0  0.306821  0  0.975432  0  0  0.305374  0.298916  0  0.978732  0
H  H13  1  0.45597970  0.42214146  0.12197283  1  0  0.316138  0  0.917311  0  0  0.302205  0  0.977326  0  0  0.306831  0  0.975417  0  0  0.305371  0.298928  0  0.978713  0
H  H14  1  0.95598125  0.07785986  0.62197414  1  0  0.316153  0  0.917318  0  0  0.302237  0  0.977316  0  0  0.306865  0  0.975399  0  0  0.30538  0.29896  0  0.978704  0
H  H15  1  0.54401941  0.57785860  0.87802628  1  0  0.316121  0  0.917338  0  0  0.302192  0  0.977347  0  0  0.306819  0  0.975435  0  0  0.30537  0.298915  0  0.978735  0
H  H16  1  0.20353345  0.93563401  0.49444140  1  0  0.316272  0  0.92563  0  0  0.29628  0  0.999884  0  0  0.302635  0  0.994163  0  0  0.301605  0.291776  0  1.003905  0
H  H17  1  0.29646689  0.43563359  0.00555828  1  0  0.316266  0  0.925643  0  0  0.296272  0  0.999899  0  0  0.302627  0  0.994177  0  0  0.301604  0.291768  0  1.003922  0
H  H18  1  0.79646564  0.06436780  0.50555920  1  0  0.316305  0  0.925606  0  0  0.296309  0  0.999864  0  0  0.302665  0  0.994141  0  0  0.301617  0.291804  0  1.003885  0
H  H19  1  0.70353366  0.56436648  0.99443953  1  0  0.316303  0  0.925604  0  0  0.296309  0  0.999859  0  0  0.302664  0  0.994137  0  0  0.301625  0.291803  0  1.00388  0
H  H20  1  0.17217362  0.54349634  0.12672561  1  0  0.277393  0  0.938902  0  0  0.264465  0  1.004773  0  0  0.270425  0  1.000513  0  0  0.282501  0.260192  0  1.007872  0
H  H21  1  0.32782651  0.04349458  0.37327443  1  0  0.277419  0  0.938869  0  0  0.264482  0  1.00476  0  0  0.270443  0  1.000495  0  0  0.282504  0.260208  0  1.007858  0
H  H22  1  0.82782548  0.45650547  0.87327424  1  0  0.277407  0  0.938914  0  0  0.264469  0  1.004802  0  0  0.270429  0  1.00054  0  0  0.282487  0.260196  0  1.0079  0
H  H23  1  0.67217400  0.95650461  0.62672636  1  0  0.27742  0  0.938872  0  0  0.264483  0  1.004759  0  0  0.270444  0  1.000495  0  0  0.282502  0.260209  0  1.007863  0
H  H24  1  0.09175970  0.61575414  0.02106080  1  0  0.280523  0  0.92456  0  0  0.26755  0  0.990245  0  0  0.273165  0  0.986572  0  0  0.285132  0.263481  0  0.992999  0
H  H25  1  0.40824165  0.11575328  0.47893798  1  0  0.280541  0  0.924528  0  0  0.267568  0  0.990208  0  0  0.273186  0  0.986526  0  0  0.285149  0.263497  0  0.992964  0
H  H26  1  0.90824084  0.38424680  0.97893776  1  0  0.280528  0  0.924569  0  0  0.267552  0  0.990255  0  0  0.273171  0  0.986572  0  0  0.28513  0.263482  0  0.99301  0
H  H27  1  0.59175887  0.88424592  0.52106207  1  0  0.280547  0  0.924523  0  0  0.267578  0  0.990195  0  0  0.273196  0  0.986512  0  0  0.285153  0.263506  0  0.992956  0
H  H28  1  0.41513233  0.66025142  0.05697178  1  0  0.041862  0  0.951395  0  0  0.054372  0  1.025172  0  0  0.05453  0  1.025921  0  0  0.089371  0.054102  0  1.024858  0
H  H29  1  0.08486886  0.16025269  0.44302777  1  0  0.041874  0  0.951372  0  0  0.054395  0  1.025144  0  0  0.054553  0  1.025895  0  0  0.089375  0.054123  0  1.024827  0
H  H30  1  0.58486820  0.33974865  0.94302678  1  0  0.041879  0  0.951389  0  0  0.054386  0  1.025172  0  0  0.054545  0  1.025921  0  0  0.089389  0.054112  0  1.024862  0
H  H31  1  0.91513165  0.83974738  0.55697302  1  0  0.041888  0  0.951375  0  0  0.054407  0  1.02513  0  0  0.054562  0  1.025888  0  0  0.089377  0.054132  0  1.024818  0
H  H32  1  0.41924362  0.67180842  0.19002620  1  0  0.059708  0  0.937054  0  0  0.079718  0  0.997057  0  0  0.079823  0  0.997766  0  0  0.100254  0.079551  0  0.996626  0
H  H33  1  0.08075753  0.17180866  0.30997410  1  0  0.059709  0  0.93706  0  0  0.079726  0  0.997066  0  0  0.079832  0  0.997777  0  0  0.100277  0.079561  0  0.996634  0
H  H34  1  0.58075690  0.32819164  0.80997385  1  0  0.059694  0  0.937054  0  0  0.07971  0  0.997055  0  0  0.079815  0  0.997765  0  0  0.100252  0.079543  0  0.996624  0
H  H35  1  0.91924156  0.82819053  0.69002575  1  0  0.059714  0  0.937077  0  0  0.079721  0  0.997076  0  0  0.079828  0  0.997785  0  0  0.10027  0.079556  0  0.996644  0
H  H36  1  0.43044404  0.86581853  0.09853753  1  0  0.06068  0  0.94832  0  0  0.068087  0  1.025115  0  0  0.068487  0  1.025956  0  0  0.096535  0.067712  0  1.02464  0
H  H37  1  0.06955651  0.36581889  0.40146212  1  0  0.060631  0  0.948374  0  0  0.06807  0  1.025129  0  0  0.068469  0  1.025971  0  0  0.096528  0.067694  0  1.024655  0
H  H38  1  0.56955649  0.13418154  0.90146177  1  0  0.060626  0  0.94839  0  0  0.068038  0  1.02518  0  0  0.068439  0  1.026021  0  0  0.096523  0.067664  0  1.024702  0
H  H39  1  0.93044402  0.63418030  0.59853719  1  0  0.060729  0  0.948233  0  0  0.068096  0  1.025078  0  0  0.068497  0  1.025918  0  0  0.096531  0.06772  0  1.024603  0
H  H40  1  0.19752346  0.83587371  0.02342934  1  0  0.060011  0  0.923174  0  0  0.084007  0  0.976254  0  0  0.083575  0  0.977527  0  0  0.105031  0.084192  0  0.975508  0
H  H41  1  0.30247861  0.33587386  0.47657049  1  0  0.060019  0  0.923166  0  0  0.084013  0  0.976251  0  0  0.08358  0  0.977524  0  0  0.105032  0.084198  0  0.975504  0
H  H42  1  0.80247707  0.16412635  0.97656997  1  0  0.060023  0  0.923168  0  0  0.084018  0  0.976254  0  0  0.083586  0  0.977527  0  0  0.105032  0.084203  0  0.975507  0
H  H43  1  0.69752192  0.66412621  0.52342881  1  0  0.060025  0  0.923161  0  0  0.084037  0  0.976233  0  0  0.083605  0  0.977506  0  0  0.105036  0.084221  0  0.975486  0
H  H44  1  0.17412708  0.95035382  0.16441850  1  0  0.284489  0  0.931122  0  0  0.268404  0  1.00332  0  0  0.274364  0  0.998921  0  0  0.283993  0.264104  0  1.006554  0
H  H45  1  0.32587180  0.45035463  0.33558026  1  0  0.28449  0  0.931237  0  0  0.268399  0  1.003438  0  0  0.27436  0  0.999039  0  0  0.284  0.2641  0  1.006671  0
H  H46  1  0.82587203  0.04964538  0.83558062  1  0  0.284498  0  0.931208  0  0  0.268407  0  1.003412  0  0  0.274368  0  0.999012  0  0  0.283999  0.264108  0  1.006646  0
H  H47  1  0.67412730  0.54964456  0.66441886  1  0  0.284495  0  0.931208  0  0  0.268408  0  1.003404  0  0  0.274369  0  0.999005  0  0  0.283997  0.264107  0  1.006639  0
H  H48  1  0.30304125  0.86148442  0.24840245  1  0  0.278387  0  0.910713  0  0  0.270013  0  0.967817  0  0  0.274574  0  0.965958  0  0  0.285534  0.266737  0  0.969216  0
H  H49  1  0.19695932  0.36148618  0.25159719  1  0  0.27843  0  0.910618  0  0  0.270058  0  0.967724  0  0  0.27462  0  0.965864  0  0  0.285557  0.266783  0  0.969123  0
H  H50  1  0.69695786  0.13851477  0.75159666  1  0  0.27847  0  0.910673  0  0  0.270101  0  0.967768  0  0  0.274662  0  0.965908  0  0  0.285584  0.266826  0  0.969167  0
H  H51  1  0.80304121  0.63851476  0.74840211  1  0  0.278415  0  0.91067  0  0  0.27004  0  0.967779  0  0  0.274601  0  0.965919  0  0  0.285553  0.266764  0  0.969178  0
C  C52  1  0.72905095  0.49851108  0.26168964  1  0  0.543312  0  3.859863  0  0  0.496226  0  4.141473  0  0  0.517911  0  4.151903  0  0  0.313317  0.481524  0  4.134173  0
C  C53  1  0.77094676  0.99851023  0.23830943  1  0  0.543316  0  3.859973  0  0  0.496188  0  4.141642  0  0  0.517871  0  4.152076  0  0  0.313298  0.481487  0  4.134341  0
C  C54  1  0.27094815  0.50148899  0.73831022  1  0  0.54326  0  3.859949  0  0  0.496139  0  4.141592  0  0  0.517825  0  4.152024  0  0  0.313271  0.481438  0  4.134293  0
C  C55  1  0.22904949  0.00148897  0.76169005  1  0  0.543385  0  3.859911  0  0  0.496245  0  4.141595  0  0  0.517931  0  4.152025  0  0  0.313333  0.481542  0  4.134295  0
C  C56  1  0.17499291  0.77231961  0.43373327  1  0  0.537521  0  3.869867  0  0  0.491645  0  4.149333  0  0  0.512122  0  4.160805  0  0  0.313829  0.477771  0  4.141366  0
C  C57  1  0.32500936  0.27232010  0.06626653  1  0  0.537488  0  3.869894  0  0  0.491585  0  4.149391  0  0  0.512066  0  4.160858  0  0  0.313793  0.477711  0  4.141425  0
C  C58  1  0.82500761  0.22768045  0.56626678  1  0  0.53755  0  3.86984  0  0  0.491648  0  4.149342  0  0  0.512129  0  4.16081  0  0  0.313831  0.477774  0  4.141375  0
C  C59  1  0.67499402  0.72767909  0.93373316  1  0  0.537478  0  3.869973  0  0  0.491594  0  4.149442  0  0  0.512071  0  4.160914  0  0  0.313796  0.477724  0  4.141471  0
C  C60  1  0.33314470  0.68943771  0.11181161  1  0  0.061684  0  3.651159  0  0  0.008392  0  3.913512  0  0  0.011958  0  3.926447  0  0  -0.083055  0.006081  0  3.904576  0
C  C61  1  0.16685640  0.18943706  0.38818796  1  0  0.061704  0  3.651087  0  0  0.008381  0  3.913484  0  0  0.011943  0  3.926424  0  0  -0.083072  0.006074  0  3.904539  0
C  C62  1  0.66685441  0.31056323  0.88818676  1  0  0.061695  0  3.651112  0  0  0.008398  0  3.913479  0  0  0.011963  0  3.926415  0  0  -0.083072  0.006088  0  3.904541  0
C  C63  1  0.83314412  0.81056214  0.61181209  1  0  0.061642  0  3.651187  0  0  0.008375  0  3.913532  0  0  0.011938  0  3.926468  0  0  -0.083067  0.006066  0  3.904594  0
C  C64  1  0.29719127  0.81978626  0.09824674  1  0  0.052375  0  3.6527  0  0  -0.003471  0  3.918229  0  0  -3.5e-05  0  3.931125  0  0  -0.081945  -0.005707  0  3.909301  0
C  C65  1  0.20281086  0.31978732  0.40175233  1  0  0.052362  0  3.652804  0  0  -0.003496  0  3.918335  0  0  -5.8e-05  0  3.931233  0  0  -0.081955  -0.00573  0  3.909401  0
C  C66  1  0.70280925  0.18021467  0.90175331  1  0  0.052413  0  3.652704  0  0  -0.003443  0  3.918265  0  0  -8e-06  0  3.931162  0  0  -0.081926  -0.005674  0  3.909329  0
C  C67  1  0.79719111  0.68021361  0.59824642  1  0  0.052346  0  3.652641  0  0  -0.003502  0  3.918205  0  0  -6.5e-05  0  3.931101  0  0  -0.08194  -0.005732  0  3.909268  0
N  N68  1  0.79801202  0.54654042  0.18595186  1  0  -0.435951  0  3.071683  0  0  -0.371966  0  3.362218  0  0  -0.391813  0  3.373183  0  0  -0.266886  -0.358521  0  3.354676  0
N  N69  1  0.70198993  0.04653876  0.31404811  1  0  -0.435973  0  3.071774  0  0  -0.371975  0  3.362318  0  0  -0.391821  0  3.373284  0  0  -0.266854  -0.35853  0  3.354777  0
N  N70  1  0.20199133  0.45346226  0.81405006  1  0  -0.435878  0  3.071769  0  0  -0.371869  0  3.3623  0  0  -0.391716  0  3.373267  0  0  -0.266791  -0.358426  0  3.35476  0
N  N71  1  0.29801059  0.95345956  0.68595194  1  0  -0.436016  0  3.071758  0  0  -0.372018  0  3.362326  0  0  -0.391865  0  3.373291  0  0  -0.2669  -0.358573  0  3.354786  0
N  N72  1  0.84289667  0.45495618  0.13094757  1  0  -0.123984  0  3.056517  0  0  -0.108123  0  3.358017  0  0  -0.106382  0  3.366445  0  0  -0.118067  -0.109078  0  3.352352  0
N  N73  1  0.65710545  0.95495215  0.36905205  1  0  -0.123937  0  3.056479  0  0  -0.108082  0  3.35798  0  0  -0.106343  0  3.366408  0  0  -0.118112  -0.109034  0  3.352315  0
N  N74  1  0.15710527  0.54504737  0.86905342  1  0  -0.124035  0  3.056532  0  0  -0.108195  0  3.358048  0  0  -0.106455  0  3.366476  0  0  -0.118152  -0.109145  0  3.352382  0
N  N75  1  0.34289649  0.04504443  0.63094894  1  0  -0.123921  0  3.056563  0  0  -0.10806  0  3.358047  0  0  -0.106321  0  3.366477  0  0  -0.118049  -0.10901  0  3.352381  0
N  N76  1  0.80163284  0.35692993  0.17065421  1  0  -0.112107  0  3.014227  0  0  -0.105321  0  3.315775  0  0  -0.102192  0  3.323905  0  0  -0.118216  -0.107124  0  3.310246  0
N  N77  1  0.69836816  0.85692667  0.32934443  1  0  -0.112194  0  3.014289  0  0  -0.105398  0  3.315816  0  0  -0.102268  0  3.323946  0  0  -0.118252  -0.107205  0  3.310288  0
N  N78  1  0.19836484  0.64307275  0.82934471  1  0  -0.112135  0  3.014216  0  0  -0.105324  0  3.315719  0  0  -0.102196  0  3.323849  0  0  -0.11824  -0.107132  0  3.310193  0
N  N79  1  0.30163377  0.14307078  0.67065656  1  0  -0.112179  0  3.014317  0  0  -0.105369  0  3.315822  0  0  -0.10224  0  3.323954  0  0  -0.118216  -0.107178  0  3.310295  0
N  N80  1  0.72820516  0.38056190  0.25292833  1  0  -0.422596  0  3.066503  0  0  -0.354659  0  3.352182  0  0  -0.374423  0  3.363028  0  0  -0.260651  -0.341268  0  3.344675  0
N  N81  1  0.77179291  0.88055757  0.24707143  1  0  -0.42258  0  3.066477  0  0  -0.354623  0  3.352152  0  0  -0.374387  0  3.363001  0  0  -0.260598  -0.341234  0  3.344646  0
N  N82  1  0.27178966  0.61944078  0.74707170  1  0  -0.422584  0  3.066482  0  0  -0.354627  0  3.352148  0  0  -0.374392  0  3.362997  0  0  -0.260597  -0.341238  0  3.344641  0
N  N83  1  0.22820617  0.11943988  0.75292992  1  0  -0.422606  0  3.066571  0  0  -0.354664  0  3.352279  0  0  -0.374428  0  3.363127  0  0  -0.260672  -0.341276  0  3.344773  0
N  N84  1  0.66068828  0.55811148  0.33325166  1  0  -0.699693  0  3.078859  0  0  -0.668315  0  3.333632  0  0  -0.687035  0  3.327308  0  0  -0.591837  -0.654999  0  3.337704  0
N  N85  1  0.83931079  0.05811033  0.16674794  1  0  -0.699606  0  3.078828  0  0  -0.668214  0  3.333608  0  0  -0.686933  0  3.327285  0  0  -0.591822  -0.654902  0  3.33768  0
N  N86  1  0.33931367  0.44188946  0.66674858  1  0  -0.699636  0  3.078887  0  0  -0.668232  0  3.333713  0  0  -0.686956  0  3.327383  0  0  -0.591808  -0.654913  0  3.337773  0
N  N87  1  0.16068404  0.94188799  0.83325135  1  0  -0.699608  0  3.078942  0  0  -0.668219  0  3.333736  0  0  -0.686941  0  3.327411  0  0  -0.591795  -0.654903  0  3.337803  0
N  N88  1  0.10020563  0.69809960  0.35648556  1  0  -0.421402  0  3.10728  0  0  -0.356383  0  3.397055  0  0  -0.377063  0  3.410338  0  0  -0.26124  -0.342353  0  3.387838  0
N  N89  1  0.39979685  0.19810009  0.14351569  1  0  -0.421449  0  3.107268  0  0  -0.356416  0  3.397035  0  0  -0.377099  0  3.410321  0  0  -0.261252  -0.342388  0  3.387821  0
N  N90  1  0.89979629  0.30190133  0.64351617  1  0  -0.42146  0  3.107289  0  0  -0.356427  0  3.397068  0  0  -0.37711  0  3.410351  0  0  -0.261243  -0.342399  0  3.387854  0
N  N91  1  0.60020367  0.80189911  0.85648436  1  0  -0.421457  0  3.107244  0  0  -0.356429  0  3.397018  0  0  -0.377108  0  3.410298  0  0  -0.261253  -0.342401  0  3.387803  0
N  N92  1  0.15286811  0.59007741  0.39376323  1  0  -0.074314  0  3.017328  0  0  -0.069671  0  3.316039  0  0  -0.066813  0  3.326981  0  0  -0.100917  -0.071317  0  3.308569  0
N  N93  1  0.34713327  0.09007617  0.10623852  1  0  -0.074308  0  3.017305  0  0  -0.069659  0  3.316018  0  0  -0.066802  0  3.326961  0  0  -0.100933  -0.071308  0  3.308549  0
N  N94  1  0.84713380  0.40992440  0.60623925  1  0  -0.07433  0  3.017425  0  0  -0.069679  0  3.316134  0  0  -0.06682  0  3.327076  0  0  -0.100944  -0.071328  0  3.308664  0
N  N95  1  0.65286725  0.90992215  0.89376153  1  0  -0.07428  0  3.01733  0  0  -0.069637  0  3.31604  0  0  -0.066779  0  3.326982  0  0  -0.100903  -0.071283  0  3.30857  0
N  N96  1  0.25421888  0.59881137  0.48833773  1  0  -0.092761  0  3.045822  0  0  -0.070665  0  3.33516  0  0  -0.070548  0  3.346244  0  0  -0.098979  -0.070532  0  3.327611  0
N  N97  1  0.24578107  0.09881102  0.01166309  1  0  -0.092751  0  3.045833  0  0  -0.070685  0  3.335169  0  0  -0.070566  0  3.346253  0  0  -0.098968  -0.070549  0  3.327621  0
N  N98  1  0.74578020  0.40119044  0.51166362  1  0  -0.092767  0  3.045934  0  0  -0.070696  0  3.335266  0  0  -0.070579  0  3.346349  0  0  -0.098975  -0.070561  0  3.327717  0
N  N99  1  0.75421946  0.90118904  0.98833621  1  0  -0.092746  0  3.045863  0  0  -0.070671  0  3.335197  0  0  -0.070554  0  3.34628  0  0  -0.098961  -0.070538  0  3.327649  0
N  N100  1  0.27043556  0.71290330  0.51671153  1  0  -0.416509  0  3.105917  0  0  -0.351678  0  3.389579  0  0  -0.371866  0  3.402808  0  0  -0.263594  -0.337984  0  3.380426  0
N  N101  1  0.22956427  0.21290268  0.98328922  1  0  -0.416501  0  3.105934  0  0  -0.351654  0  3.389616  0  0  -0.371843  0  3.402843  0  0  -0.263592  -0.33796  0  3.380464  0
N  N102  1  0.72956209  0.28709764  0.48329037  1  0  -0.416467  0  3.105943  0  0  -0.351635  0  3.389627  0  0  -0.371825  0  3.402856  0  0  -0.263584  -0.337942  0  3.380474  0
N  N103  1  0.77043768  0.78709564  0.01671027  1  0  -0.416502  0  3.105887  0  0  -0.351672  0  3.389566  0  0  -0.37186  0  3.402795  0  0  -0.263614  -0.337981  0  3.380412  0
N  N104  1  0.16484499  0.89163535  0.42633362  1  0  -0.697219  0  3.071418  0  0  -0.662572  0  3.308268  0  0  -0.679484  0  3.304079  0  0  -0.593515  -0.650566  0  3.31096  0
N  N105  1  0.33515692  0.39163497  0.07366549  1  0  -0.697183  0  3.071388  0  0  -0.662527  0  3.308243  0  0  -0.67944  0  3.304053  0  0  -0.593479  -0.650519  0  3.310935  0
N  N106  1  0.83515552  0.10836558  0.57366718  1  0  -0.697263  0  3.071388  0  0  -0.662626  0  3.308232  0  0  -0.679542  0  3.304039  0  0  -0.593516  -0.650619  0  3.310924  0
N  N107  1  0.66484648  0.60836423  0.92633270  1  0  -0.697191  0  3.071482  0  0  -0.662539  0  3.30832  0  0  -0.679451  0  3.304132  0  0  -0.593494  -0.650535  0  3.311013  0
N  N108  1  0.15159087  0.62640235  0.09820499  1  0  -0.634353  0  3.109842  0  0  -0.582478  0  3.356004  0  0  -0.601252  0  3.356271  0  0  -0.64319  -0.569213  0  3.355567  0
N  N109  1  0.34840902  0.12640148  0.40179360  1  0  -0.634402  0  3.109855  0  0  -0.582518  0  3.356025  0  0  -0.601292  0  3.356295  0  0  -0.643212  -0.569253  0  3.355583  0
N  N110  1  0.84840825  0.37359946  0.90179337  1  0  -0.634367  0  3.109833  0  0  -0.582478  0  3.355978  0  0  -0.601253  0  3.356247  0  0  -0.643181  -0.569213  0  3.35554  0
N  N111  1  0.65159150  0.87359859  0.59820645  1  0  -0.634407  0  3.109826  0  0  -0.582529  0  3.355988  0  0  -0.601302  0  3.356256  0  0  -0.643223  -0.569268  0  3.355548  0
N  N112  1  0.20658210  0.86401611  0.17844038  1  0  -0.628796  0  3.080387  0  0  -0.576119  0  3.325891  0  0  -0.594619  0  3.326624  0  0  -0.635181  -0.563071  0  3.325182  0
N  N113  1  0.29341702  0.36401696  0.32156057  1  0  -0.628826  0  3.080546  0  0  -0.576137  0  3.326009  0  0  -0.594638  0  3.32674  0  0  -0.635203  -0.563092  0  3.3253  0
N  N114  1  0.79341700  0.13598308  0.82155948  1  0  -0.628914  0  3.080449  0  0  -0.576198  0  3.325877  0  0  -0.594699  0  3.326605  0  0  -0.635241  -0.563155  0  3.325169  0
N  N115  1  0.70658207  0.63598311  0.67844003  1  0  -0.62888  0  3.080473  0  0  -0.576196  0  3.325996  0  0  -0.594698  0  3.326728  0  0  -0.635227  -0.563151  0  3.325288  0
