# generated using pymatgen
data_CuH7C5SNO5
_symmetry_space_group_name_H-M   'P 1'
_cell_length_a   5.65882820
_cell_length_b   7.66724627
_cell_length_c   18.08201726
_cell_angle_alpha   90.00011387
_cell_angle_beta   89.99983146
_cell_angle_gamma   89.99974211
_symmetry_Int_Tables_number   1
_chemical_formula_structural   CuH7C5SNO5
_chemical_formula_sum   'Cu4 H28 C20 S4 N4 O20'
_cell_volume   784.53586392
_cell_formula_units_Z   4
loop_
 _symmetry_equiv_pos_site_id
 _symmetry_equiv_pos_as_xyz
  1  'x, y, z'
loop_
 _atom_site_type_symbol
 _atom_site_label
 _atom_site_symmetry_multiplicity
 _atom_site_fract_x
 _atom_site_fract_y
 _atom_site_fract_z
 _atom_site_occupancy
 _atom_site_hle17_ddec_charge
 _atom_site_hle17_ddec_spin_density
 _atom_site_hle17_ddec_sum_bond_order
 _atom_site_hle17_magmom
 _atom_site_hse06_10hf_bader_charge
 _atom_site_hse06_10hf_bader_spin_density
 _atom_site_hse06_10hf_ddec_charge
 _atom_site_hse06_10hf_ddec_spin_density
 _atom_site_hse06_10hf_ddec_sum_bond_order
 _atom_site_hse06_10hf_magmom
 _atom_site_hse06_ddec_charge
 _atom_site_hse06_ddec_spin_density
 _atom_site_hse06_ddec_sum_bond_order
 _atom_site_hse06_magmom
 _atom_site_pbe_cm5_charge
 _atom_site_pbe_ddec_charge
 _atom_site_pbe_ddec_spin_density
 _atom_site_pbe_ddec_sum_bond_order
 _atom_site_pbe_magmom
Cu  Cu0  1  0.87410860  0.65173986  0.59367484  1  0.907987  -0.701058  1.747206  -0.507  1.141848  -0.641462  0.90296  -0.803524  2.127707  -0.638  0.99467  -0.881853  2.061014  -0.729  0.717664  0.84263  -0.7334  2.177883  -0.568
Cu  Cu1  1  0.62590009  0.34825069  0.09366423  1  0.907934  0.701072  1.747276  0.507  1.141854  0.641467  0.902943  0.803532  2.127766  0.638  0.994619  0.881849  2.061056  0.729  0.717685  0.842626  0.733412  2.177882  0.568
Cu  Cu2  1  0.37410444  0.84825799  0.40633484  1  0.907884  0.701054  1.747316  0.507  1.141787  0.641467  0.9029  0.803529  2.127766  0.638  0.994558  0.881846  2.061059  0.729  0.717689  0.842613  0.733399  2.177809  0.568
Cu  Cu3  1  0.12589698  0.15173706  0.90632312  1  0.907926  -0.701058  1.747272  -0.507  1.141853  -0.641464  0.902804  -0.803524  2.12787  -0.638  0.994601  -0.881849  2.061033  -0.729  0.71765  0.842564  -0.733408  2.177894  -0.568
H  H4  1  0.66010385  0.83945712  0.68646940  1  0.289401  0.000896  0.9284  0.002  0.53105  0.000822  0.275669  -1e-05  0.991558  0.001  0.283472  0.000209  0.987187  0.001  0.29701  0.270142  -0.000219  0.994917  0.0
H  H5  1  0.83991443  0.16054171  0.18645681  1  0.289435  -0.000896  0.928317  -0.002  0.531225  -0.000822  0.275755  1e-05  0.991403  -0.001  0.283556  -0.000209  0.98703  -0.001  0.297078  0.270225  0.000218  0.994767  0.0
H  H6  1  0.16009302  0.66054404  0.31354100  1  0.289454  -0.000897  0.928321  -0.002  0.531235  -0.000822  0.275791  1e-05  0.991355  -0.001  0.28359  -0.000209  0.986983  -0.001  0.29708  0.270258  0.000218  0.99472  0.0
H  H7  1  0.33988998  0.33946620  0.81353147  1  0.289474  0.000896  0.928355  0.002  0.531126  0.000821  0.275735  -1e-05  0.991502  0.001  0.283536  0.000209  0.987134  0.001  0.297023  0.270204  -0.000218  0.994864  0.0
H  H8  1  0.91862641  0.22780260  0.55066175  1  0.143284  8.2e-05  0.941581  0.0  0.150624  0.000188  0.158181  0.000138  0.99523  0.0  0.160271  0.000124  0.994789  0.0  0.113097  0.156546  0.000132  0.995764  0.0
H  H9  1  0.58136684  0.77219948  0.05065649  1  0.14319  -8.3e-05  0.941718  0.0  0.150289  -0.000188  0.158072  -0.000138  0.99537  0.0  0.16016  -0.000124  0.994928  0.0  0.11306  0.156443  -0.000132  0.995903  0.0
H  H10  1  0.41864522  0.27219331  0.44934196  1  0.143196  -8.5e-05  0.941718  0.0  0.150097  -0.000188  0.158086  -0.000138  0.995377  0.0  0.160173  -0.000124  0.994935  0.0  0.113054  0.156456  -0.000132  0.995909  0.0
H  H11  1  0.08135572  0.72780065  0.94934235  1  0.143245  8.5e-05  0.941733  0.0  0.150169  0.000188  0.158161  0.000138  0.995341  0.0  0.160251  0.000124  0.994898  0.0  0.1131  0.15653  0.000132  0.995879  0.0
H  H12  1  0.05684978  0.02182913  0.53295324  1  0.117689  -9.7e-05  0.953913  0.0  0.09518  5.6e-05  0.125945  2.3e-05  1.021319  0.0  0.127578  2.5e-05  1.020728  0.0  0.100413  0.124661  -1.2e-05  1.021994  0.0
H  H13  1  0.44314865  0.97817322  0.03295064  1  0.117742  9e-05  0.954035  0.0  0.095094  -5.6e-05  0.126027  -2.3e-05  1.021375  0.0  0.127662  -2.5e-05  1.020779  0.0  0.100446  0.124741  1.2e-05  1.022063  0.0
H  H14  1  0.55685686  0.47817320  0.46704964  1  0.117738  8.9e-05  0.954041  0.0  0.095054  -5.6e-05  0.126054  -2.3e-05  1.021351  0.0  0.127689  -2.5e-05  1.020756  0.0  0.100456  0.12477  1.2e-05  1.022032  0.0
H  H15  1  0.94312831  0.52182701  0.96704958  1  0.117724  -8.8e-05  0.95398  0.0  0.095076  5.6e-05  0.12606  2.3e-05  1.021282  0.0  0.127694  2.5e-05  1.020691  0.0  0.100454  0.124783  -1.2e-05  1.021951  0.0
H  H16  1  0.96308815  0.94355805  0.75421619  1  0.092967  -0.000898  0.961294  -0.001  0.127991  -0.001614  0.093295  -0.000831  1.034652  -0.001  0.09511  -0.000583  1.034154  -0.001  0.112098  0.091692  -0.000957  1.035443  -0.001
H  H17  1  0.53692762  0.05645286  0.25420928  1  0.092985  0.000903  0.961189  0.001  0.128106  0.001614  0.093296  0.000831  1.034577  0.001  0.095109  0.000583  1.034081  0.001  0.112085  0.09169  0.000957  1.035373  0.001
H  H18  1  0.46308046  0.55645255  0.24578955  1  0.092983  0.000901  0.961251  0.001  0.128106  0.001615  0.0933  0.000831  1.034622  0.001  0.095115  0.000583  1.034127  0.001  0.112121  0.091693  0.000957  1.03542  0.001
H  H19  1  0.03689974  0.44356258  0.74578476  1  0.09298  -0.000896  0.961264  -0.001  0.128056  -0.001614  0.093309  -0.000831  1.034624  -0.001  0.095123  -0.000583  1.034123  -0.001  0.112126  0.091709  -0.000957  1.035413  -0.001
H  H20  1  0.60700889  0.09817136  0.62281914  1  0.082129  -0.002691  0.948165  -0.003  0.127425  -0.003138  0.082207  -0.001753  1.022795  -0.002  0.084529  -0.001207  1.021058  -0.001  0.108907  0.080209  -0.002076  1.02445  -0.002
H  H21  1  0.89300654  0.90182456  0.12280601  1  0.082075  0.002699  0.948185  0.003  0.12672  0.00314  0.082278  0.001753  1.022772  0.002  0.084597  0.001207  1.021038  0.001  0.10897  0.08028  0.002076  1.024431  0.002
H  H22  1  0.10700827  0.40182689  0.37719144  1  0.082128  0.002694  0.948114  0.003  0.127429  0.003138  0.082259  0.001753  1.022777  0.002  0.084576  0.001207  1.021046  0.001  0.108961  0.080258  0.002076  1.024436  0.002
H  H23  1  0.39297580  0.59817323  0.87718651  1  0.082061  -0.002692  0.948235  -0.003  0.127499  -0.003138  0.082199  -0.001752  1.022907  -0.002  0.084516  -0.001206  1.021177  -0.001  0.108945  0.080203  -0.002076  1.024563  -0.002
H  H24  1  0.45096462  0.52123880  0.63658719  1  0.416892  -7.1e-05  0.878104  0.0  0.64203  -4e-06  0.393024  -0.000102  0.933855  0.0  0.405138  -5.4e-05  0.916114  0.0  0.285872  0.384689  -0.000144  0.946062  0.0
H  H25  1  0.04904328  0.47876406  0.13658394  1  0.416915  7.1e-05  0.878091  0.0  0.641987  4e-06  0.393009  0.000102  0.933901  0.0  0.405125  5.4e-05  0.916156  0.0  0.285843  0.38467  0.000144  0.946117  0.0
H  H26  1  0.95096046  0.97876662  0.36341302  1  0.416949  7.2e-05  0.878015  0.0  0.64204  4e-06  0.393056  0.000102  0.933821  0.0  0.405169  5.4e-05  0.91608  0.0  0.28587  0.384717  0.000144  0.946035  0.0
H  H27  1  0.54903645  0.02124612  0.86341286  1  0.416904  -7.2e-05  0.878046  0.0  0.64201  -4e-06  0.392993  -0.000102  0.933915  0.0  0.40511  -5.4e-05  0.916168  0.0  0.285833  0.384652  -0.000144  0.94613  0.0
H  H28  1  0.62143817  0.40710639  0.68380140  1  0.408954  -0.000159  0.901816  0.0  0.648221  -0.0001  0.381028  -0.000188  0.963759  0.0  0.392829  -0.000101  0.946622  0.0  0.279428  0.37287  -0.000276  0.975585  0.0
H  H29  1  0.87855363  0.59289504  0.18379355  1  0.408804  0.000159  0.902032  0.0  0.648373  0.0001  0.380904  0.000188  0.963901  0.0  0.392718  0.000101  0.946757  0.0  0.279336  0.372739  0.000276  0.975724  0.0
H  H30  1  0.12145600  0.09288920  0.31620365  1  0.408903  0.00016  0.901875  0.0  0.648339  0.0001  0.380992  0.000188  0.963785  0.0  0.3928  0.000101  0.946645  0.0  0.27937  0.372824  0.000276  0.975612  0.0
H  H31  1  0.37856408  0.90710410  0.81620119  1  0.408979  -0.00016  0.901784  0.0  0.648275  -0.0001  0.381071  -0.000188  0.963698  0.0  0.392873  -0.000101  0.94656  0.0  0.279433  0.372912  -0.000276  0.97552  0.0
C  C32  1  0.61149722  0.91532631  0.53213822  1  0.639725  -0.000291  3.796708  -0.001  1.633034  -0.00116  0.600056  -0.001268  4.099766  -0.002  0.638313  -0.001252  4.094065  -0.002  0.216423  0.573834  -0.001177  4.102642  -0.002
C  C33  1  0.88849093  0.08467829  0.03212885  1  0.639541  0.000279  3.796822  0.001  1.632535  0.001156  0.599904  0.001266  4.100001  0.002  0.638156  0.001251  4.094323  0.002  0.21638  0.573685  0.001177  4.102876  0.002
C  C34  1  0.11152228  0.58468676  0.46786779  1  0.639839  0.000267  3.796504  0.001  1.632556  0.001158  0.600112  0.001267  4.099806  0.002  0.638371  0.001252  4.09411  0.002  0.216456  0.573894  0.001177  4.102676  0.002
C  C35  1  0.38847847  0.41531250  0.96786106  1  0.639912  -0.000278  3.796135  -0.001  1.633016  -0.001159  0.600255  -0.001267  4.099323  -0.002  0.638512  -0.001251  4.093631  -0.002  0.216514  0.574035  -0.001176  4.102205  -0.002
C  C36  1  0.20180946  0.77779039  0.69491053  1  0.632749  0.001657  3.874083  0.002  1.599182  -0.001102  0.577669  -0.001539  4.190428  -0.001  0.612691  -0.00112  4.184424  -0.001  0.209143  0.553593  -0.001742  4.19377  -0.001
C  C37  1  0.29819604  0.22220623  0.19490411  1  0.632688  -0.001645  3.874291  -0.002  1.599556  0.001102  0.577664  0.00154  4.19058  0.001  0.612685  0.00112  4.184569  0.001  0.209218  0.55359  0.001743  4.193939  0.001
C  C38  1  0.70181104  0.72221585  0.30509153  1  0.632682  -0.001649  3.874315  -0.002  1.599892  0.001101  0.577669  0.001539  4.190573  0.001  0.612692  0.00112  4.184563  0.001  0.209101  0.553588  0.001743  4.193926  0.001
C  C39  1  0.79818651  0.27778748  0.80508918  1  0.632596  0.001654  3.874437  0.002  1.598117  -0.001102  0.577577  -0.00154  4.190684  -0.001  0.612601  -0.001121  4.184689  -0.001  0.209089  0.553499  -0.001742  4.194026  -0.001
C  C40  1  0.95621927  0.09828543  0.57331070  1  -0.183225  -0.000372  3.585647  -0.001  -0.112278  -0.000631  -0.221846  -0.000226  3.84393  -0.001  -0.221903  -9.1e-05  3.85261  0.0  -0.145542  -0.221793  -0.000383  3.838261  -0.001
C  C41  1  0.54378434  0.90171415  0.07330392  1  -0.183253  0.000389  3.585729  0.001  -0.111964  0.000631  -0.221723  0.000226  3.843955  0.001  -0.221773  9.1e-05  3.852621  0.0  -0.145509  -0.221687  0.000383  3.838318  0.001
C  C42  1  0.45622517  0.40171557  0.42669574  1  -0.183261  0.000394  3.585694  0.001  -0.111932  0.000632  -0.221792  0.000226  3.843959  0.001  -0.221843  9.1e-05  3.852627  0.0  -0.14555  -0.221759  0.000383  3.838323  0.001
C  C43  1  0.04376365  0.59828088  0.92669274  1  -0.18322  -0.000402  3.585962  -0.001  -0.111868  -0.000631  -0.221799  -0.000226  3.844179  -0.001  -0.221854  -9.1e-05  3.852856  0.0  -0.145534  -0.221757  -0.000383  3.838539  -0.001
C  C44  1  0.01095855  0.91965781  0.69622136  1  -0.044705  0.002329  3.608991  0.006  0.25122  0.000567  -0.05852  -0.000399  3.870709  0.003  -0.057625  5.3e-05  3.88289  0.003  0.006182  -0.058925  -0.000781  3.862752  0.003
C  C45  1  0.48905400  0.08034273  0.19621412  1  -0.044747  -0.002355  3.60922  -0.006  0.251091  -0.000568  -0.058512  0.000398  3.870901  -0.003  -0.05762  -5.2e-05  3.883088  -0.003  0.00618  -0.05892  0.000781  3.862946  -0.003
C  C46  1  0.51095571  0.58035167  0.30378417  1  -0.0447  -0.002342  3.609309  -0.006  0.251071  -0.000568  -0.058513  0.000398  3.871004  -0.003  -0.057617  -5.3e-05  3.883181  -0.003  0.006138  -0.058924  0.00078  3.863054  -0.003
C  C47  1  0.98903124  0.41965817  0.80378013  1  -0.04458  0.002326  3.60903  0.006  0.250919  0.000568  -0.058389  -0.000398  3.870638  0.003  -0.057496  5.4e-05  3.882832  0.003  0.006224  -0.058795  -0.00078  3.862674  0.003
C  C48  1  0.73092720  0.00500987  0.59768138  1  0.022278  0.005393  3.607739  0.008  0.27663  0.003655  0.002851  0.002088  3.856132  0.005  0.002835  0.001947  3.867946  0.005  -0.000963  0.003025  0.00204  3.848438  0.005
C  C49  1  0.76908321  0.99499244  0.09767283  1  0.022572  -0.005411  3.607651  -0.008  0.277567  -0.003652  0.002738  -0.002085  3.856705  -0.005  0.002728  -0.001945  3.868516  -0.005  -0.000966  0.002911  -0.002037  3.849018  -0.005
C  C50  1  0.23092926  0.49499318  0.40232635  1  0.022556  -0.00539  3.607537  -0.008  0.276942  -0.003649  0.002764  -0.002084  3.85663  -0.005  0.002753  -0.001945  3.868441  -0.005  -0.000965  0.002938  -0.002036  3.848942  -0.005
C  C51  1  0.26905983  0.50500837  0.90232365  1  0.022535  0.005394  3.607789  0.008  0.276942  0.003655  0.002724  0.002085  3.856796  0.005  0.002711  0.001946  3.868617  0.005  -0.001038  0.002896  0.002037  3.849108  0.005
S  S52  1  0.12467378  0.12454938  0.65776234  1  0.04373  -0.010312  2.164644  -0.01  0.022748  -0.005201  0.040523  -0.00314  2.491392  -0.003  0.037227  -0.001559  2.487934  -0.002  0.018345  0.043636  -0.005231  2.49393  -0.005
S  S53  1  0.37533919  0.87544967  0.15775971  1  0.04372  0.01032  2.164573  0.01  0.022504  0.005202  0.040452  0.00314  2.49133  0.003  0.037155  0.001559  2.487866  0.002  0.018305  0.043566  0.005232  2.493884  0.005
S  S54  1  0.62467578  0.37546055  0.34223993  1  0.043695  0.010323  2.164625  0.01  0.022483  0.005203  0.040452  0.00314  2.49138  0.003  0.037152  0.001559  2.487919  0.002  0.018319  0.04357  0.005234  2.493916  0.005
S  S55  1  0.87531429  0.62454818  0.84224001  1  0.043647  -0.010315  2.164696  -0.01  0.023151  -0.005203  0.040392  -0.00314  2.49147  -0.003  0.037096  -0.00156  2.488012  -0.002  0.018292  0.043507  -0.005233  2.494014  -0.005
N  N56  1  0.80193366  0.86954714  0.65232438  1  -0.407739  -0.107564  3.244441  -0.134  -1.130521  -0.106388  -0.380116  -0.068538  3.522514  -0.091  -0.413705  -0.053743  3.5382  -0.075  -0.485154  -0.359892  -0.074834  3.513946  -0.095
N  N57  1  0.69807616  0.13045153  0.15231575  1  -0.407653  0.107571  3.244298  0.134  -1.130997  0.106382  -0.380023  0.068533  3.522567  0.091  -0.413602  0.053742  3.538248  0.075  -0.485169  -0.359801  0.074832  3.513987  0.095
N  N58  1  0.30193148  0.63045617  0.34768314  1  -0.40774  0.107584  3.244326  0.134  -1.130974  0.106397  -0.380054  0.068543  3.52249  0.091  -0.41363  0.053751  3.538169  0.075  -0.485132  -0.359838  0.074842  3.513903  0.095
N  N59  1  0.19805821  0.36954903  0.84767651  1  -0.407825  -0.107574  3.244054  -0.134  -1.130741  -0.106398  -0.38007  -0.068542  3.522189  -0.091  -0.413676  -0.053747  3.537874  -0.075  -0.485166  -0.359867  -0.074843  3.513615  -0.095
O  O60  1  0.49944525  0.00752066  0.48563589  1  -0.545483  0.045255  2.030158  0.06  -1.157848  0.050192  -0.507743  0.032589  2.281555  0.047  -0.548025  0.02738  2.274417  0.042  -0.299019  -0.479739  0.033746  2.286233  0.047
O  O61  1  0.00055707  0.99247086  0.98562273  1  -0.545641  -0.045256  2.029916  -0.06  -1.157371  -0.050201  -0.507899  -0.032596  2.281361  -0.047  -0.548212  -0.027383  2.274218  -0.042  -0.299168  -0.479901  -0.03375  2.286046  -0.047
O  O62  1  0.99945349  0.49247107  0.51437605  1  -0.54586  -0.045266  2.0295  -0.06  -1.157203  -0.050208  -0.508109  -0.0326  2.281012  -0.047  -0.548395  -0.027387  2.273843  -0.042  -0.299262  -0.48009  -0.033757  2.285711  -0.047
O  O63  1  0.50054723  0.50751649  0.01436732  1  -0.545744  0.045274  2.029455  0.06  -1.157677  0.050213  -0.507999  0.032602  2.28093  0.047  -0.548276  0.027389  2.273762  0.042  -0.299145  -0.479987  0.03376  2.285619  0.047
O  O64  1  0.60560107  0.46189259  0.63423616  1  -0.839053  0.000547  1.86117  -0.001  -1.283517  0.001104  -0.803332  0.000429  2.046173  0.0  -0.824569  0.000844  2.007526  0.0  -0.603821  -0.787899  0.000205  2.073306  -0.001
O  O65  1  0.89440541  0.53810338  0.13422936  1  -0.838965  -0.000545  1.861403  0.001  -1.283676  -0.001104  -0.803173  -0.000429  2.046374  0.0  -0.824418  -0.000844  2.007672  0.0  -0.603681  -0.787732  -0.000204  2.073539  0.001
O  O66  1  0.10559925  0.03810697  0.36576890  1  -0.839061  -0.000547  1.861211  0.001  -1.28367  -0.001105  -0.803271  -0.00043  2.046134  0.0  -0.824495  -0.000844  2.007432  0.0  -0.603736  -0.78784  -0.000204  2.073296  0.001
O  O67  1  0.39440437  0.96189570  0.86576481  1  -0.839093  0.000547  1.861177  -0.001  -1.283574  0.001104  -0.803324  0.000429  2.04617  0.0  -0.82457  0.000844  2.007489  0.0  -0.603778  -0.787903  0.000204  2.07331  -0.001
O  O68  1  0.63237487  0.75026700  0.52566154  1  -0.583825  -0.073967  2.098158  -0.098  -1.176377  -0.076686  -0.563189  -0.049411  2.382602  -0.071  -0.605334  -0.038119  2.375307  -0.057  -0.314326  -0.534789  -0.056532  2.388229  -0.079
O  O69  1  0.86760451  0.24972322  0.02564513  1  -0.58367  0.073958  2.098504  0.098  -1.176468  0.076684  -0.563027  0.049407  2.383031  0.071  -0.605169  0.038118  2.375747  0.057  -0.314239  -0.534634  0.056526  2.388653  0.079
O  O70  1  0.13239532  0.74972774  0.47435219  1  -0.583697  0.073965  2.098637  0.098  -1.176548  0.076685  -0.563037  0.049408  2.383216  0.071  -0.605173  0.03812  2.375924  0.057  -0.314212  -0.534648  0.056526  2.388827  0.079
O  O71  1  0.36762126  0.25026373  0.97433704  1  -0.583821  -0.073959  2.0983  -0.098  -1.176738  -0.076682  -0.563124  -0.049409  2.382723  -0.071  -0.605281  -0.038118  2.375418  -0.057  -0.314302  -0.534747  -0.056526  2.388346  -0.079
O  O72  1  0.16695483  0.64216278  0.65403563  1  -0.600032  -0.061894  2.087497  -0.084  -1.162946  -0.067773  -0.558314  -0.043734  2.361008  -0.064  -0.596725  -0.034567  2.348651  -0.053  -0.313967  -0.533077  -0.048636  2.370477  -0.069
O  O73  1  0.33305288  0.35783103  0.15402818  1  -0.599997  0.061892  2.087671  0.084  -1.163063  0.067772  -0.558323  0.043733  2.36121  0.064  -0.596729  0.034567  2.348842  0.053  -0.314015  -0.533053  0.048636  2.370587  0.069
O  O74  1  0.66694806  0.85783967  0.34596757  1  -0.6  0.06189  2.087563  0.084  -1.163076  0.067769  -0.558339  0.043731  2.361082  0.064  -0.596739  0.034565  2.34871  0.053  -0.313965  -0.533085  0.048636  2.370464  0.069
O  O75  1  0.83304374  0.14216125  0.84596287  1  -0.599979  -0.061893  2.087624  -0.084  -1.162939  -0.067772  -0.55825  -0.043733  2.361109  -0.064  -0.596682  -0.034566  2.348747  -0.053  -0.313936  -0.533025  -0.048638  2.370541  -0.069
O  O76  1  0.38521818  0.79944724  0.73292172  1  -0.593701  -0.014683  2.026854  -0.019  -1.223656  -0.012025  -0.54031  -0.007501  2.251427  -0.01  -0.566736  -0.003703  2.242714  -0.005  -0.301783  -0.521383  -0.011475  2.256652  -0.015
O  O77  1  0.11479573  0.20054957  0.23291763  1  -0.593732  0.014681  2.026874  0.019  -1.223423  0.012026  -0.540411  0.007502  2.251457  0.01  -0.566834  0.003704  2.242743  0.005  -0.301868  -0.521488  0.011476  2.256683  0.015
O  O78  1  0.88521147  0.70055579  0.26707910  1  -0.5937  0.01468  2.026936  0.019  -1.223623  0.012027  -0.540371  0.007503  2.251466  0.01  -0.566799  0.003704  2.24276  0.005  -0.3018  -0.521451  0.011477  2.25669  0.015
O  O79  1  0.61477412  0.29944866  0.76707967  1  -0.593675  -0.014682  2.02707  -0.019  -1.222652  -0.012027  -0.540268  -0.007502  2.25156  -0.01  -0.566695  -0.003703  2.242851  -0.005  -0.301755  -0.521341  -0.011476  2.256785  -0.015
