# generated using pymatgen
data_ZnH8C6N8O5
_symmetry_space_group_name_H-M   'P 1'
_cell_length_a   8.52561405
_cell_length_b   8.71611720
_cell_length_c   15.65134455
_cell_angle_alpha   96.01190667
_cell_angle_beta   89.99960544
_cell_angle_gamma   90.00000491
_symmetry_Int_Tables_number   1
_chemical_formula_structural   ZnH8C6N8O5
_chemical_formula_sum   'Zn4 H32 C24 N32 O20'
_cell_volume   1156.65871743
_cell_formula_units_Z   4
loop_
 _symmetry_equiv_pos_site_id
 _symmetry_equiv_pos_as_xyz
  1  'x, y, z'
loop_
 _atom_site_type_symbol
 _atom_site_label
 _atom_site_symmetry_multiplicity
 _atom_site_fract_x
 _atom_site_fract_y
 _atom_site_fract_z
 _atom_site_occupancy
 _atom_site_pbe_bader_spin_density
 _atom_site_pbe_cm5_charge
 _atom_site_pbe_ddec_charge
 _atom_site_pbe_ddec_spin_density
 _atom_site_pbe_ddec_sum_bond_order
 _atom_site_pbe_magmom
Zn  Zn0  1  0.52776596  0.77128042  0.21200133  1  0  0.69368  0.883254  0  2.26236  0
Zn  Zn1  1  0.02774182  0.72872055  0.78800005  1  0  0.693642  0.883107  0  2.262381  0
Zn  Zn2  1  0.47223642  0.22872815  0.78800211  1  0  0.693651  0.883197  0  2.262414  0
Zn  Zn3  1  0.97225352  0.27126505  0.21199864  1  0  0.693635  0.883131  0  2.262412  0
H  H4  1  0.37067931  0.12914810  0.20125715  1  0  0.155808  0.152929  0  0.986024  0
H  H5  1  0.87066867  0.37085441  0.79874458  1  0  0.155762  0.152823  0  0.986125  0
H  H6  1  0.62931486  0.87084907  0.79874104  1  0  0.155781  0.152865  0  0.986058  0
H  H7  1  0.12932198  0.62913923  0.20125593  1  0  0.155776  0.152801  0  0.986177  0
H  H8  1  0.51868284  0.35176799  0.01258420  1  0  0.128303  0.148434  0  1.013151  0
H  H9  1  0.01868182  0.14823489  0.98741561  1  0  0.128273  0.14844  0  1.013191  0
H  H10  1  0.48131719  0.64823716  0.98741773  1  0  0.128302  0.148468  0  1.013178  0
H  H11  1  0.98130648  0.85175413  0.01258459  1  0  0.128317  0.148516  0  1.01322  0
H  H12  1  0.33694427  0.33017913  0.06397822  1  0  0.124989  0.132111  0  0.993029  0
H  H13  1  0.83693760  0.16982786  0.93602905  1  0  0.124999  0.13211  0  0.993033  0
H  H14  1  0.66305694  0.66982939  0.93602713  1  0  0.124995  0.132112  0  0.993049  0
H  H15  1  0.16305188  0.83016243  0.06396741  1  0  0.125013  0.132131  0  0.993121  0
H  H16  1  0.35870154  0.98312628  0.53218837  1  0  0.150125  0.128016  0  1.042733  0
H  H17  1  0.85868935  0.51688257  0.46781046  1  0  0.150142  0.128123  0  1.04267  0
H  H18  1  0.64131960  0.01687797  0.46780519  1  0  0.150202  0.128221  0  1.042542  0
H  H19  1  0.14131185  0.48312147  0.53219012  1  0  0.150163  0.128139  0  1.042631  0
H  H20  1  0.07519719  0.93812383  0.33214429  1  0  0.130142  0.15118  0  1.000779  0
H  H21  1  0.57516123  0.56189469  0.66784853  1  0  0.130222  0.151263  0  1.000755  0
H  H22  1  0.92480870  0.06190567  0.66785482  1  0  0.130179  0.151277  0  1.000867  0
H  H23  1  0.42482942  0.43810825  0.33215005  1  0  0.130189  0.151266  0  1.000814  0
H  H24  1  0.13688142  0.80075723  0.40070202  1  0  0.123187  0.126408  0  1.017805  0
H  H25  1  0.63687457  0.69924855  0.59929036  1  0  0.123175  0.126382  0  1.017682  0
H  H26  1  0.86310923  0.19925396  0.59929137  1  0  0.123198  0.126412  0  1.017729  0
H  H27  1  0.36312077  0.30075437  0.40070887  1  0  0.12318  0.126424  0  1.017666  0
H  H28  1  0.73994812  0.76137467  0.33149776  1  0  0.291331  0.358488  0  0.990277  0
H  H29  1  0.23993027  0.73862494  0.66850406  1  0  0.291314  0.358402  0  0.990384  0
H  H30  1  0.26005778  0.23862129  0.66850227  1  0  0.291303  0.358437  0  0.990343  0
H  H31  1  0.76006742  0.26137675  0.33149763  1  0  0.291292  0.358373  0  0.990409  0
H  H32  1  0.81481955  0.81834625  0.24628493  1  0  0.292263  0.388104  0  0.954108  0
H  H33  1  0.31479820  0.68164529  0.75371416  1  0  0.29229  0.388129  0  0.954055  0
H  H34  1  0.18518400  0.18164862  0.75371311  1  0  0.29226  0.388085  0  0.954128  0
H  H35  1  0.68519831  0.31835529  0.24628618  1  0  0.292278  0.388112  0  0.954081  0
C  C36  1  0.46223900  0.09413338  0.15462605  1  0  0.193951  0.09782  0  3.820434  0
C  C37  1  0.96222892  0.40586904  0.84537600  1  0  0.193968  0.097802  0  3.820516  0
C  C38  1  0.53775986  0.90587065  0.84537453  1  0  0.194  0.097848  0  3.820396  0
C  C39  1  0.03776759  0.59411762  0.15462596  1  0  0.193994  0.097939  0  3.820353  0
C  C40  1  0.46453735  0.33181188  0.07406094  1  0  -0.049257  -0.263981  0  3.852625  0
C  C41  1  0.96452965  0.16818938  0.92594101  1  0  -0.049252  -0.264089  0  3.852785  0
C  C42  1  0.53546620  0.66819327  0.92594099  1  0  -0.049267  -0.264106  0  3.852862  0
C  C43  1  0.03546335  0.83180083  0.07405799  1  0  -0.049312  -0.264215  0  3.853075  0
C  C44  1  0.50583364  0.46289015  0.14310891  1  0  0.215384  0.613792  0  4.192611  0
C  C45  1  0.00581674  0.03711157  0.85689150  1  0  0.215465  0.614025  0  4.192257  0
C  C46  1  0.49416991  0.53711496  0.85689430  1  0  0.215483  0.614045  0  4.192431  0
C  C47  1  0.99417743  0.96287636  0.14310671  1  0  0.215557  0.614161  0  4.192227  0
C  C48  1  0.26310019  0.05745251  0.51629175  1  0  0.180255  0.07188  0  3.878063  0
C  C49  1  0.76308674  0.44255597  0.48370694  1  0  0.180278  0.071638  0  3.878041  0
C  C50  1  0.73691978  0.94255393  0.48370580  1  0  0.180206  0.071517  0  3.878275  0
C  C51  1  0.23690977  0.55744928  0.51629180  1  0  0.180215  0.071646  0  3.878253  0
C  C52  1  0.16859896  0.91027148  0.37633784  1  0  -0.053701  -0.254258  0  3.851193  0
C  C53  1  0.66857533  0.58973180  0.62365937  1  0  -0.053777  -0.254406  0  3.850947  0
C  C54  1  0.83140576  0.08973836  0.62366186  1  0  -0.053741  -0.254551  0  3.851267  0
C  C55  1  0.33141766  0.41027227  0.37633993  1  0  -0.05375  -0.254459  0  3.850868  0
C  C56  1  0.32181289  0.89206459  0.32704262  1  0  0.196945  0.59836  0  4.223076  0
C  C57  1  0.82178626  0.60792568  0.67295956  1  0  0.196932  0.598402  0  4.223145  0
C  C58  1  0.67818832  0.10793606  0.67295518  1  0  0.197002  0.598484  0  4.22298  0
C  C59  1  0.17820557  0.39207024  0.32704174  1  0  0.19697  0.598518  0  4.222886  0
N  N60  1  0.54384386  0.96328549  0.14602928  1  0  -0.219952  -0.217947  0  3.517607  0
N  N61  1  0.04383286  0.53671892  0.85397228  1  0  -0.219913  -0.2178  0  3.517522  0
N  N62  1  0.45615617  0.03671969  0.85397137  1  0  -0.219915  -0.217855  0  3.517407  0
N  N63  1  0.95616482  0.46327125  0.14602800  1  0  -0.219913  -0.217888  0  3.517454  0
N  N64  1  0.64800219  0.97258035  0.08075217  1  0  -0.0678  -0.042958  0  3.224332  0
N  N65  1  0.14799149  0.52742173  0.91924695  1  0  -0.067781  -0.043005  0  3.224527  0
N  N66  1  0.35200019  0.02742481  0.91924912  1  0  -0.067795  -0.042995  0  3.224317  0
N  N67  1  0.85200620  0.47256269  0.08075230  1  0  -0.067663  -0.042822  0  3.224443  0
N  N68  1  0.63189904  0.10349156  0.04964926  1  0  -0.058071  -0.102153  0  3.13103  0
N  N69  1  0.13189272  0.39650892  0.95034998  1  0  -0.058068  -0.102134  0  3.131131  0
N  N70  1  0.36810217  0.89651470  0.95035402  1  0  -0.058114  -0.102178  0  3.13102  0
N  N71  1  0.86810380  0.60347437  0.04964855  1  0  -0.058191  -0.102279  0  3.13127  0
N  N72  1  0.51498048  0.18083322  0.09471720  1  0  -0.111373  0.180955  0  3.725995  0
N  N73  1  0.01497474  0.31916962  0.90528390  1  0  -0.111384  0.181037  0  3.725978  0
N  N74  1  0.48502072  0.81917189  0.90528601  1  0  -0.111389  0.181004  0  3.725976  0
N  N75  1  0.98502177  0.68081944  0.09471502  1  0  -0.111377  0.180991  0  3.725863  0
N  N76  1  0.17131020  0.03354342  0.44607827  1  0  -0.118793  0.176972  0  3.727443  0
N  N77  1  0.67129113  0.46646176  0.55391732  1  0  -0.118994  0.176871  0  3.727115  0
N  N78  1  0.82870156  0.96646411  0.55392127  1  0  -0.11887  0.177097  0  3.727134  0
N  N79  1  0.32870187  0.53354349  0.44608142  1  0  -0.118888  0.176929  0  3.727086  0
N  N80  1  0.06477008  0.14920346  0.44805951  1  0  -0.073198  -0.121901  0  3.145764  0
N  N81  1  0.56475803  0.35079488  0.55193600  1  0  -0.073013  -0.121676  0  3.145437  0
N  N82  1  0.93524168  0.85080507  0.55194521  1  0  -0.073115  -0.121743  0  3.145459  0
N  N83  1  0.43523731  0.64920809  0.44806132  1  0  -0.073125  -0.121816  0  3.14535  0
N  N84  1  0.09122637  0.23890070  0.51808997  1  0  -0.074005  -0.056101  0  3.293299  0
N  N85  1  0.59122227  0.26109757  0.48190736  1  0  -0.074022  -0.056181  0  3.2934  0
N  N86  1  0.90879243  0.76110318  0.48191571  1  0  -0.074025  -0.056252  0  3.293447  0
N  N87  1  0.40877659  0.73890657  0.51809003  1  0  -0.073955  -0.056007  0  3.293194  0
N  N88  1  0.21396679  0.18499861  0.56213276  1  0  -0.199533  -0.206898  0  3.292777  0
N  N89  1  0.71396329  0.31500416  0.43786508  1  0  -0.199535  -0.206767  0  3.292763  0
N  N90  1  0.78605319  0.81500426  0.43786838  1  0  -0.199567  -0.206797  0  3.29309  0
N  N91  1  0.28603557  0.68500107  0.56213430  1  0  -0.199532  -0.206875  0  3.292836  0
O  O92  1  0.47976649  0.59749020  0.11991662  1  0  -0.31981  -0.544545  0  2.29827  0
O  O93  1  0.97974773  0.90251153  0.88008449  1  0  -0.319877  -0.544647  0  2.298283  0
O  O94  1  0.52023354  0.40251718  0.88008802  1  0  -0.319871  -0.544693  0  2.298456  0
O  O95  1  0.02024995  0.09747643  0.11991244  1  0  -0.319991  -0.54482  0  2.298228  0
O  O96  1  0.55534162  0.43632679  0.21542075  1  0  -0.302321  -0.543853  0  2.254589  0
O  O97  1  0.05532099  0.06367376  0.78457877  1  0  -0.302379  -0.543969  0  2.254338  0
O  O98  1  0.44466194  0.56367488  0.78458159  1  0  -0.302364  -0.543925  0  2.254378  0
O  O99  1  0.94467200  0.93632222  0.21542062  1  0  -0.302348  -0.543901  0  2.254486  0
O  O100  1  0.31824286  0.77787739  0.26638348  1  0  -0.341099  -0.575297  0  2.28034  0
O  O101  1  0.81822601  0.72212695  0.73361264  1  0  -0.341098  -0.575346  0  2.280399  0
O  O102  1  0.68175131  0.22212440  0.73361503  1  0  -0.341107  -0.575319  0  2.2804  0
O  O103  1  0.18176581  0.27786774  0.26639114  1  0  -0.341065  -0.575333  0  2.280243  0
O  O104  1  0.43583390  0.97890316  0.34351797  1  0  -0.314721  -0.54485  0  2.142614  0
O  O105  1  0.93579222  0.52106822  0.65649403  1  0  -0.314646  -0.544728  0  2.142831  0
O  O106  1  0.56417199  0.02109166  0.65648134  1  0  -0.314764  -0.544866  0  2.142547  0
O  O107  1  0.06419960  0.47892541  0.34350649  1  0  -0.314706  -0.54482  0  2.142746  0
O  O108  1  0.73322176  0.74736981  0.26651888  1  0  -0.572721  -0.733939  0  2.216725  0
O  O109  1  0.23320422  0.75262292  0.73348122  1  0  -0.57273  -0.733799  0  2.21656  0
O  O110  1  0.26677827  0.25262847  0.73348067  1  0  -0.572696  -0.733862  0  2.216735  0
O  O111  1  0.76679229  0.24737075  0.26651802  1  0  -0.572728  -0.733792  0  2.216557  0
