# generated using pymatgen
data_ZnH21C28(NO)4
_symmetry_space_group_name_H-M   'P 1'
_cell_length_a   9.40167163
_cell_length_b   15.99150796
_cell_length_c   18.16812217
_cell_angle_alpha   90.00022609
_cell_angle_beta   100.96888664
_cell_angle_gamma   90.00018102
_symmetry_Int_Tables_number   1
_chemical_formula_structural   ZnH21C28(NO)4
_chemical_formula_sum   'Zn4 H84 C112 N16 O16'
_cell_volume   2681.61786897
_cell_formula_units_Z   4
loop_
 _symmetry_equiv_pos_site_id
 _symmetry_equiv_pos_as_xyz
  1  'x, y, z'
loop_
 _atom_site_type_symbol
 _atom_site_label
 _atom_site_symmetry_multiplicity
 _atom_site_fract_x
 _atom_site_fract_y
 _atom_site_fract_z
 _atom_site_occupancy
 _atom_site_pbe_bader_charge
 _atom_site_pbe_bader_spin_density
 _atom_site_pbe_cm5_charge
 _atom_site_pbe_ddec_charge
 _atom_site_pbe_ddec_spin_density
 _atom_site_pbe_ddec_sum_bond_order
 _atom_site_pbe_magmom
Zn  Zn0  1  0.60961663  0.28427437  0.19387474  1  1.251719  0  0.692034  0.777855  0  2.43496  0
Zn  Zn1  1  0.89038353  0.78427776  0.30612509  1  1.251578  0  0.692013  0.777842  0  2.434894  0
Zn  Zn2  1  0.39038164  0.71572202  0.80612537  1  1.251564  0  0.692022  0.777834  0  2.43495  0
Zn  Zn3  1  0.10961583  0.21572301  0.69387623  1  1.251796  0  0.69201  0.777815  0  2.434897  0
H  H4  1  0.86603348  0.22217601  0.46688388  1  0.121834  0  0.102709  0.111379  0  1.023245  0
H  H5  1  0.63397059  0.72216895  0.03311446  1  0.121656  0  0.102698  0.111339  0  1.023251  0
H  H6  1  0.13396481  0.77783102  0.53311238  1  0.121649  0  0.102682  0.111326  0  1.023231  0
H  H7  1  0.36603201  0.27782994  0.96688607  1  0.121662  0  0.102701  0.111321  0  1.023248  0
H  H8  1  0.58302238  0.11284363  0.59842274  1  0.101126  0  0.100237  0.100342  0  1.039432  0
H  H9  1  0.91698480  0.61283999  0.90157649  1  0.101084  0  0.100241  0.100344  0  1.039385  0
H  H10  1  0.41698672  0.88716151  0.40157955  1  0.101087  0  0.100194  0.100299  0  1.039538  0
H  H11  1  0.08301889  0.38715891  0.09842416  1  0.101071  0  0.100246  0.100359  0  1.039412  0
H  H12  1  0.44857555  0.13721904  0.35721848  1  0.08662  0  0.101358  0.106605  0  1.025612  0
H  H13  1  0.05142725  0.63722357  0.14278077  1  0.086584  0  0.101319  0.10657  0  1.025655  0
H  H14  1  0.55142922  0.86277861  0.64278172  1  0.086584  0  0.101323  0.106563  0  1.025614  0
H  H15  1  0.94856993  0.36278283  0.85722034  1  0.08701  0  0.101337  0.106587  0  1.025565  0
H  H16  1  0.40627875  0.05242579  0.60217082  1  0.050925  0  0.09629  0.091949  0  1.027539  0
H  H17  1  0.09372408  0.55242403  0.89783129  1  0.051027  0  0.096282  0.091928  0  1.027488  0
H  H18  1  0.59372927  0.94757123  0.39783136  1  0.051076  0  0.096318  0.091985  0  1.027499  0
H  H19  1  0.90628176  0.44757987  0.10217342  1  0.050929  0  0.096289  0.091927  0  1.027463  0
H  H20  1  0.17265686  0.99738651  0.61280357  1  0.03993  0  0.096416  0.092616  0  1.037247  0
H  H21  1  0.32735014  0.49738626  0.88720162  1  0.040033  0  0.096387  0.092574  0  1.037404  0
H  H22  1  0.82735224  0.00260863  0.38719927  1  0.040001  0  0.096403  0.092618  0  1.037276  0
H  H23  1  0.67265461  0.50261576  0.11280629  1  0.039906  0  0.096412  0.092632  0  1.037144  0
H  H24  1  0.01443606  0.04877236  0.37826360  1  0.035331  0  0.097446  0.093673  0  1.034283  0
H  H25  1  0.48556828  0.54877573  0.12174044  1  0.035202  0  0.097538  0.093793  0  1.034121  0
H  H26  1  0.98557413  0.95122278  0.62173824  1  0.035162  0  0.097569  0.093845  0  1.034212  0
H  H27  1  0.51442996  0.45122504  0.87826847  1  0.035283  0  0.097515  0.093782  0  1.03434  0
H  H28  1  0.24778206  0.10487108  0.36792612  1  0.045464  0  0.099093  0.098485  0  1.012286  0
H  H29  1  0.25221942  0.60487281  0.13207838  1  0.045354  0  0.099059  0.098416  0  1.012305  0
H  H30  1  0.75222813  0.89512781  0.63207682  1  0.045424  0  0.099072  0.09842  0  1.012317  0
H  H31  1  0.74777233  0.39512983  0.86792713  1  0.045555  0  0.099081  0.098428  0  1.012272  0
H  H32  1  0.89172763  0.39393920  0.24705784  1  0.1177  0  0.142769  0.108416  0  0.98795  0
H  H33  1  0.60827329  0.89394121  0.25294134  1  0.117735  0  0.142763  0.108461  0  0.987962  0
H  H34  1  0.10827173  0.60605969  0.75293852  1  0.117746  0  0.142747  0.108442  0  0.987944  0
H  H35  1  0.39172823  0.10605769  0.74705854  1  0.117733  0  0.142771  0.108471  0  0.987943  0
H  H36  1  0.45614224  0.44424240  0.25708135  1  0.133867  0  0.123784  0.133533  0  1.004227  0
H  H37  1  0.04386053  0.94424737  0.24291896  1  0.133877  0  0.123806  0.133525  0  1.004195  0
H  H38  1  0.54386145  0.55575149  0.74291709  1  0.133972  0  0.123807  0.133537  0  1.004139  0
H  H39  1  0.95613991  0.05575465  0.75708081  1  0.133854  0  0.123773  0.133487  0  1.00426  0
H  H40  1  0.63290929  0.56754131  0.33831431  1  0.121816  0  0.117107  0.116355  0  1.051919  0
H  H41  1  0.86708828  0.06754326  0.16168505  1  0.121823  0  0.117137  0.116402  0  1.051916  0
H  H42  1  0.36708682  0.43245383  0.66168393  1  0.12172  0  0.117135  0.116375  0  1.051905  0
H  H43  1  0.13290566  0.93245689  0.83831408  1  0.121755  0  0.117123  0.11641  0  1.051896  0
H  H44  1  0.91858644  0.60407469  0.32930961  1  0.113819  0  0.116174  0.109903  0  1.005035  0
H  H45  1  0.58141464  0.10407490  0.17068803  1  0.113868  0  0.116179  0.109915  0  1.005122  0
H  H46  1  0.08140968  0.39592545  0.67068533  1  0.113793  0  0.116164  0.109894  0  1.005034  0
H  H47  1  0.41858038  0.89592337  0.82931176  1  0.113842  0  0.116169  0.10989  0  1.005064  0
H  H48  1  0.01930119  0.51568441  0.31237307  1  0.077185  0  0.123185  0.11148  0  0.940566  0
H  H49  1  0.48069643  0.01568543  0.18762579  1  0.077202  0  0.123217  0.111526  0  0.940503  0
H  H50  1  0.98069601  0.48431511  0.68762308  1  0.077201  0  0.123226  0.111505  0  0.940611  0
H  H51  1  0.51929860  0.98431158  0.81237179  1  0.077185  0  0.123214  0.111546  0  0.940506  0
H  H52  1  0.90261915  0.38608291  0.41097486  1  0.114784  0  0.10387  0.114322  0  1.016769  0
H  H53  1  0.59737630  0.88608291  0.08902320  1  0.11484  0  0.103883  0.114326  0  1.016823  0
H  H54  1  0.09737588  0.61391661  0.58902162  1  0.114871  0  0.10388  0.11432  0  1.016797  0
H  H55  1  0.40262305  0.11391410  0.91097702  1  0.114862  0  0.103868  0.114293  0  1.016904  0
H  H56  1  0.96684336  0.35648881  0.54691148  1  0.120799  0  0.100312  0.108728  0  1.045316  0
H  H57  1  0.53315359  0.85648782  0.95308649  1  0.120769  0  0.1003  0.108739  0  1.045278  0
H  H58  1  0.03315600  0.64350946  0.45308489  1  0.120733  0  0.100276  0.108671  0  1.045322  0
H  H59  1  0.46684360  0.14350983  0.04691352  1  0.120804  0  0.100295  0.108727  0  1.045275  0
H  H60  1  0.66924593  0.23951218  0.03083668  1  0.159197  0  0.14374  0.11755  0  0.988044  0
H  H61  1  0.83075175  0.73951243  0.46916220  1  0.158674  0  0.143738  0.117573  0  0.987989  0
H  H62  1  0.33074584  0.76048921  0.96916444  1  0.158696  0  0.143753  0.117505  0  0.988073  0
H  H63  1  0.16924435  0.26048271  0.53083935  1  0.158769  0  0.143733  0.117586  0  0.98796  0
H  H64  1  0.95442478  0.23635311  0.23997861  1  0.146845  0  0.122631  0.130582  0  1.011787  0
H  H65  1  0.54557506  0.73635190  0.26001936  1  0.146936  0  0.122624  0.130597  0  1.01176  0
H  H66  1  0.04557892  0.76364579  0.76001818  1  0.146802  0  0.122625  0.130598  0  1.011768  0
H  H67  1  0.45442212  0.26364824  0.73998339  1  0.146906  0  0.122587  0.13054  0  1.011723  0
H  H68  1  0.10556388  0.18570770  0.12860397  1  0.130679  0  0.130184  0.135236  0  0.988466  0
H  H69  1  0.39443493  0.68570575  0.37139395  1  0.130682  0  0.130181  0.135235  0  0.988446  0
H  H70  1  0.89443332  0.81429307  0.87139053  1  0.130693  0  0.130208  0.135301  0  0.988328  0
H  H71  1  0.60556009  0.31429252  0.62860694  1  0.130242  0  0.130211  0.135291  0  0.988455  0
H  H72  1  0.00892930  0.21370559  0.97073051  1  0.082647  0  0.111652  0.099327  0  1.033244  0
H  H73  1  0.49106708  0.71370480  0.52926713  1  0.082683  0  0.111652  0.099335  0  1.033263  0
H  H74  1  0.99106357  0.78629581  0.02926686  1  0.082644  0  0.111665  0.099339  0  1.033221  0
H  H75  1  0.50892685  0.28629347  0.47073420  1  0.082728  0  0.111654  0.099339  0  1.033348  0
H  H76  1  0.82269977  0.18731602  0.94470823  1  0.085463  0  0.123778  0.115141  0  0.943251  0
H  H77  1  0.67729709  0.68731790  0.55529024  1  0.08552  0  0.123763  0.115083  0  0.943266  0
H  H78  1  0.17729309  0.81268412  0.05528914  1  0.085352  0  0.123744  0.115103  0  0.943283  0
H  H79  1  0.32269793  0.31268099  0.44471175  1  0.085529  0  0.12376  0.115066  0  0.94333  0
H  H80  1  0.74046211  0.04065503  0.96551313  1  0.110995  0  0.094564  0.092524  0  1.056741  0
H  H81  1  0.75953806  0.54065321  0.53448735  1  0.111055  0  0.094583  0.092548  0  1.056685  0
H  H82  1  0.25953617  0.95934574  0.03448368  1  0.11107  0  0.094594  0.092542  0  1.056693  0
H  H83  1  0.24046238  0.45934568  0.46551352  1  0.11107  0  0.094577  0.092517  0  1.056774  0
H  H84  1  0.19153767  0.10914189  0.01848909  1  0.062708  0  0.100056  0.102138  0  1.022248  0
H  H85  1  0.30846386  0.60914153  0.48150718  1  0.062633  0  0.100063  0.102144  0  1.022189  0
H  H86  1  0.80845953  0.89085825  0.98150926  1  0.06262  0  0.100034  0.102121  0  1.022212  0
H  H87  1  0.69153441  0.39085611  0.51849293  1  0.062635  0  0.100049  0.102141  0  1.022136  0
C  C88  1  0.69091488  0.21368166  0.33250695  1  1.567656  0  0.193198  0.566768  0  4.218871  0
C  C89  1  0.80908371  0.71368241  0.16749137  1  1.567261  0  0.193188  0.566679  0  4.218936  0
C  C90  1  0.30908447  0.78631973  0.66749382  1  1.567334  0  0.193225  0.566745  0  4.218879  0
C  C91  1  0.19090482  0.28631961  0.83250612  1  1.567127  0  0.193077  0.566392  0  4.219391  0
C  C92  1  0.65939804  0.18122394  0.40539575  1  -0.070911  0  -0.024924  -0.037581  0  4.002423  0
C  C93  1  0.84060358  0.68122004  0.09460330  1  -0.070405  0  -0.024903  -0.037543  0  4.002246  0
C  C94  1  0.34060241  0.81877995  0.59460237  1  -0.070523  0  -0.024901  -0.03755  0  4.002411  0
C  C95  1  0.15939470  0.31878135  0.90539680  1  -0.070502  0  -0.024845  -0.037491  0  4.002379  0
C  C96  1  0.76295953  0.19329997  0.47065548  1  -0.064177  0  -0.082845  -0.116031  0  3.953901  0
C  C97  1  0.73703891  0.69329309  0.02934331  1  -0.063942  0  -0.08282  -0.115935  0  3.953775  0
C  C98  1  0.23704307  0.80670768  0.52934616  1  -0.063855  0  -0.082811  -0.115942  0  3.953993  0
C  C99  1  0.26295720  0.30670768  0.97065494  1  -0.063833  0  -0.082831  -0.115929  0  3.953889  0
C  C100  1  0.73323004  0.16795852  0.53971129  1  -0.091072  0  -0.022632  -0.037206  0  4.004478  0
C  C101  1  0.76677535  0.66794985  0.96028630  1  -0.090094  0  -0.022656  -0.037324  0  4.004513  0
C  C102  1  0.26677040  0.83205163  0.46028738  1  -0.089979  0  -0.022665  -0.037296  0  4.004421  0
C  C103  1  0.23322834  0.33204841  0.03971435  1  -0.090429  0  -0.022614  -0.037096  0  4.004233  0
C  C104  1  0.60030350  0.13068987  0.54302670  1  -0.010479  0  -0.079188  -0.132673  0  3.936198  0
C  C105  1  0.89970271  0.63068519  0.95697415  1  -0.011053  0  -0.079137  -0.132541  0  3.936013  0
C  C106  1  0.39970235  0.86931715  0.45697471  1  -0.010966  0  -0.079123  -0.132517  0  3.936047  0
C  C107  1  0.10029989  0.36931433  0.04302859  1  -0.010902  0  -0.079204  -0.132721  0  3.93605  0
C  C108  1  0.49297922  0.11880395  0.47852697  1  0.015935  0  -0.010083  0.057011  0  4.000261  0
C  C109  1  0.00702453  0.61880286  0.02147451  1  0.016182  0  -0.010098  0.056954  0  4.000324  0
C  C110  1  0.50702880  0.88119807  0.52147466  1  0.015865  0  -0.010079  0.056981  0  4.0003  0
C  C111  1  0.99297590  0.38119916  0.97852747  1  0.016192  0  -0.010105  0.056946  0  4.0003  0
C  C112  1  0.52631092  0.14412977  0.40952305  1  -0.032016  0  -0.083636  -0.142111  0  3.931545  0
C  C113  1  0.97369368  0.64412985  0.09047837  1  -0.03256  0  -0.083657  -0.142129  0  3.931528  0
C  C114  1  0.47368951  0.85586975  0.59047947  1  -0.032062  0  -0.083602  -0.14206  0  3.931386  0
C  C115  1  0.02630892  0.35587217  0.90952547  1  -0.032849  0  -0.083676  -0.142144  0  3.931616  0
C  C116  1  0.34936363  0.08401099  0.48412404  1  -0.022678  0  -0.014882  0.055329  0  3.999481  0
C  C117  1  0.15064096  0.58401201  0.01587850  1  -0.022827  0  -0.014934  0.0552  0  3.999598  0
C  C118  1  0.65064330  0.91598666  0.51587858  1  -0.022659  0  -0.014936  0.055165  0  3.999548  0
C  C119  1  0.84935730  0.41599126  0.98412601  1  -0.022889  0  -0.014969  0.055233  0  3.999762  0
C  C120  1  0.32106264  0.05291085  0.55237980  1  -0.132274  0  -0.093873  -0.124798  0  4.004184  0
C  C121  1  0.17894452  0.55290948  0.94762494  1  -0.132102  0  -0.093865  -0.124702  0  4.004498  0
C  C122  1  0.67895187  0.94708679  0.44762522  1  -0.132455  0  -0.093959  -0.124847  0  4.00445  0
C  C123  1  0.82105375  0.44709317  0.05237847  1  -0.132427  0  -0.09382  -0.124656  0  4.004599  0
C  C124  1  0.18675830  0.02086123  0.55845316  1  0.016306  0  -0.089364  -0.115971  0  3.984052  0
C  C125  1  0.31324539  0.52086258  0.94155058  1  0.015566  0  -0.08939  -0.116007  0  3.984369  0
C  C126  1  0.81324864  0.97913266  0.44154836  1  0.016498  0  -0.089325  -0.1159  0  3.984147  0
C  C127  1  0.68676154  0.47913882  0.05845369  1  0.016459  0  -0.089439  -0.116103  0  3.984148  0
C  C128  1  0.07113670  0.01758112  0.49664687  1  -0.002839  0  -0.007112  0.06674  0  3.976298  0
C  C129  1  0.42886742  0.51758449  0.00335814  1  0.04068  0  -0.007133  0.066557  0  3.976395  0
C  C130  1  0.92887457  0.98241339  0.50335453  1  0.040012  0  -0.007207  0.066396  0  3.97639  0
C  C131  1  0.57113300  0.48241878  0.99665044  1  -0.002676  0  -0.007099  0.066694  0  3.976208  0
C  C132  1  0.09886759  0.04922029  0.42841161  1  0.023423  0  -0.088627  -0.110815  0  3.969123  0
C  C133  1  0.40113567  0.54922265  0.07159233  1  0.023348  0  -0.088658  -0.110785  0  3.969122  0
C  C134  1  0.90114801  0.95077485  0.57159187  1  0.023186  0  -0.088666  -0.110838  0  3.968969  0
C  C135  1  0.59885825  0.45077999  0.92841285  1  0.023373  0  -0.088622  -0.110839  0  3.969046  0
C  C136  1  0.23359122  0.08139435  0.42237930  1  -0.073659  0  -0.095411  -0.130874  0  3.991072  0
C  C137  1  0.26641335  0.58139650  0.07762378  1  -0.073697  0  -0.095349  -0.130781  0  3.990989  0
C  C138  1  0.76641788  0.91860266  0.57762408  1  -0.073588  0  -0.095363  -0.13074  0  3.990636  0
C  C139  1  0.73358816  0.41860615  0.92238270  1  -0.0736  0  -0.095395  -0.130806  0  3.990935  0
C  C140  1  0.84223541  0.18047917  0.61089472  1  1.567741  0  0.195064  0.5669  0  4.225202  0
C  C141  1  0.65777441  0.68046686  0.88910171  1  1.566543  0  0.194961  0.566773  0  4.225418  0
C  C142  1  0.15777371  0.81953348  0.38910261  1  1.566166  0  0.194951  0.566756  0  4.225526  0
C  C143  1  0.34223145  0.31952890  0.11089695  1  1.567084  0  0.194992  0.566658  0  4.22563  0
C  C144  1  0.79582227  0.42433590  0.25928509  1  1.011538  0  0.150152  0.096211  0  3.919614  0
C  C145  1  0.70417779  0.92433865  0.24071412  1  1.011472  0  0.150085  0.09604  0  3.919706  0
C  C146  1  0.20417709  0.57566049  0.74071238  1  1.011421  0  0.150092  0.096061  0  3.919761  0
C  C147  1  0.29582265  0.07566087  0.75928621  1  1.011484  0  0.150073  0.096056  0  3.919653  0
C  C148  1  0.57256244  0.45317352  0.26755645  1  0.453796  0  0.004221  -0.028435  0  3.971859  0
C  C149  1  0.92743457  0.95317665  0.23244256  1  0.453983  0  0.004193  -0.028454  0  3.972111  0
C  C150  1  0.42743151  0.54682100  0.73244103  1  0.453922  0  0.004153  -0.028558  0  3.972217  0
C  C151  1  0.07256154  0.04682412  0.76755679  1  0.453789  0  0.00424  -0.028359  0  3.971967  0
C  C152  1  0.65858150  0.51355323  0.30732711  1  0.266419  0  0.001314  -0.099146  0  3.903998  0
C  C153  1  0.84142003  0.01355590  0.19267135  1  0.266248  0  0.00129  -0.099171  0  3.904046  0
C  C154  1  0.34141894  0.48644441  0.69267046  1  0.266282  0  0.001358  -0.098986  0  3.904043  0
C  C155  1  0.15857825  0.98644425  0.80732765  1  0.266401  0  0.001272  -0.099221  0  3.903974  0
C  C156  1  0.93043217  0.53658766  0.33958747  1  0.313134  0  -0.038356  -0.10439  0  3.881923  0
C  C157  1  0.56956843  0.03658968  0.16041208  1  0.313088  0  -0.038391  -0.104448  0  3.881969  0
C  C158  1  0.06956394  0.46341311  0.66040967  1  0.313263  0  -0.038333  -0.104324  0  3.881998  0
C  C159  1  0.43042875  0.96341109  0.83958847  1  0.313131  0  -0.038376  -0.104379  0  3.882029  0
C  C160  1  0.96403191  0.51717820  0.42267163  1  -0.072089  0  -0.014891  0.080422  0  3.978246  0
C  C161  1  0.53596531  0.01717728  0.07732642  1  -0.072593  0  -0.014942  0.080416  0  3.97832  0
C  C162  1  0.03596313  0.48282070  0.57732376  1  -0.073202  0  -0.014978  0.08033  0  3.978263  0
C  C163  1  0.46403405  0.98281911  0.92267214  1  -0.072243  0  -0.014869  0.080384  0  3.978256  0
C  C164  1  0.94575789  0.43645289  0.44955222  1  -0.02555  0  -0.092303  -0.135862  0  3.972761  0
C  C165  1  0.55423900  0.93645327  0.05044562  1  -0.025007  0  -0.092313  -0.135858  0  3.972914  0
C  C166  1  0.05423822  0.56354663  0.55044438  1  -0.024826  0  -0.092317  -0.135907  0  3.972667  0
C  C167  1  0.44575928  0.06354625  0.94955339  1  -0.024949  0  -0.09229  -0.135792  0  3.972746  0
C  C168  1  0.98180578  0.41955163  0.52627537  1  -0.12456  0  -0.0946  -0.145904  0  3.991239  0
C  C169  1  0.51819270  0.91955132  0.97372296  1  -0.125368  0  -0.094601  -0.145932  0  3.991203  0
C  C170  1  0.01819250  0.58044727  0.47372144  1  -0.124932  0  -0.094548  -0.145764  0  3.991073  0
C  C171  1  0.48180773  0.08044695  0.02627846  1  -0.125027  0  -0.09458  -0.145898  0  3.991032  0
C  C172  1  0.76635926  0.23135241  0.07315712  1  0.988441  0  0.148111  0.091501  0  3.915456  0
C  C173  1  0.73364054  0.73135104  0.42684083  1  0.988903  0  0.148119  0.091571  0  3.915435  0
C  C174  1  0.23363359  0.76864899  0.92684410  1  0.989011  0  0.147942  0.091378  0  3.915412  0
C  C175  1  0.26635773  0.26864723  0.57316038  1  0.989067  0  0.148099  0.091427  0  3.915304  0
C  C176  1  0.91987021  0.23028847  0.17975586  1  0.422186  0  0.00139  -0.038154  0  3.993476  0
C  C177  1  0.58013174  0.73028635  0.32024286  1  0.421972  0  0.001452  -0.038129  0  3.993469  0
C  C178  1  0.08013131  0.76971230  0.82024348  1  0.422102  0  0.001436  -0.038124  0  3.993592  0
C  C179  1  0.41986437  0.26971317  0.67975649  1  0.422039  0  0.001425  -0.038106  0  3.993539  0
C  C180  1  0.99387269  0.20413704  0.12567951  1  0.264198  0  0.005941  -0.100673  0  3.919422  0
C  C181  1  0.50612693  0.70413377  0.37431723  1  0.264232  0  0.005884  -0.100649  0  3.919235  0
C  C182  1  0.00612560  0.79586435  0.87431565  1  0.264533  0  0.005861  -0.100807  0  3.919276  0
C  C183  1  0.49387026  0.29586450  0.62568387  1  0.265064  0  0.005837  -0.100809  0  3.919268  0
C  C184  1  0.92199088  0.17574882  0.98608941  1  0.305094  0  -0.042767  -0.112439  0  3.886701  0
C  C185  1  0.57800699  0.67574783  0.51390802  1  0.304983  0  -0.042753  -0.112354  0  3.88683  0
C  C186  1  0.07800198  0.82425195  0.01390741  1  0.305254  0  -0.042725  -0.112379  0  3.886698  0
C  C187  1  0.42198803  0.32424981  0.48609287  1  0.305096  0  -0.042746  -0.112406  0  3.886896  0
C  C188  1  0.96186559  0.08450169  0.99067324  1  -0.104977  0  -0.015228  0.083427  0  3.991854  0
C  C189  1  0.53813489  0.58449998  0.50932578  1  -0.105014  0  -0.01529  0.083403  0  3.991944  0
C  C190  1  0.03813053  0.91550096  0.00932391  1  -0.105205  0  -0.015334  0.083312  0  3.991865  0
C  C191  1  0.46186554  0.41549954  0.49067730  1  -0.105077  0  -0.015296  0.083441  0  3.991934  0
C  C192  1  0.85439720  0.02287073  0.98010587  1  -0.036486  0  -0.093755  -0.130198  0  3.99567  0
C  C193  1  0.64559851  0.52286864  0.51989411  1  -0.036894  0  -0.093714  -0.130156  0  3.995601  0
C  C194  1  0.14559783  0.97712879  0.01989006  1  -0.03666  0  -0.093727  -0.130116  0  3.995558  0
C  C195  1  0.35439542  0.47712775  0.48010777  1  -0.036788  0  -0.093727  -0.130144  0  3.995511  0
C  C196  1  0.10750622  0.06115195  0.01059864  1  -0.023935  0  -0.092299  -0.132034  0  3.992624  0
C  C197  1  0.39249605  0.56115178  0.48939919  1  -0.023789  0  -0.092305  -0.132088  0  3.992622  0
C  C198  1  0.89249314  0.93885007  0.98939828  1  -0.024021  0  -0.09222  -0.131988  0  3.992649  0
C  C199  1  0.60750113  0.43884836  0.51060301  1  -0.023782  0  -0.092286  -0.132062  0  3.992734  0
N  N200  1  0.65991958  0.39798987  0.23792625  1  -1.232356  0  -0.357775  -0.282345  0  3.623202  0
N  N201  1  0.84008354  0.89799297  0.26207316  1  -1.232392  0  -0.357685  -0.282184  0  3.623186  0
N  N202  1  0.34008303  0.60200715  0.76207208  1  -1.232308  0  -0.35769  -0.28218  0  3.623267  0
N  N203  1  0.15991798  0.10200780  0.73792672  1  -1.232286  0  -0.357686  -0.282235  0  3.623145  0
N  N204  1  0.79941702  0.49463268  0.30100940  1  -1.236509  0  -0.239314  0.04841  0  3.781773  0
N  N205  1  0.70058353  0.99463337  0.19899010  1  -1.236426  0  -0.239297  0.048413  0  3.781784  0
N  N206  1  0.20058127  0.50536434  0.69898741  1  -1.23647  0  -0.239319  0.04833  0  3.781869  0
N  N207  1  0.29941474  0.00536553  0.80101001  1  -1.236509  0  -0.239304  0.048357  0  3.781826  0
N  N208  1  0.77798832  0.24690896  0.14613730  1  -1.249148  0  -0.360985  -0.295474  0  3.61038  0
N  N209  1  0.72201266  0.74690725  0.35386137  1  -1.24933  0  -0.360987  -0.295511  0  3.61042  0
N  N210  1  0.22201321  0.75309118  0.85386038  1  -1.249053  0  -0.360863  -0.295334  0  3.610022  0
N  N211  1  0.27798560  0.25309290  0.64614149  1  -1.249478  0  -0.360861  -0.295367  0  3.610177  0
N  N212  1  0.89496651  0.20497600  0.05871412  1  -1.222594  0  -0.238684  0.046877  0  3.780716  0
N  N213  1  0.60503094  0.70497383  0.44128461  1  -1.222144  0  -0.238657  0.046714  0  3.780859  0
N  N214  1  0.10502852  0.79502477  0.94128291  1  -1.222908  0  -0.238635  0.04692  0  3.780803  0
N  N215  1  0.39496300  0.29502381  0.55871672  1  -1.222849  0  -0.238696  0.046885  0  3.780922  0
O  O216  1  0.81041611  0.24760790  0.33102726  1  -1.184987  0  -0.335274  -0.570807  0  2.131894  0
O  O217  1  0.68958490  0.74760906  0.16896647  1  -1.184989  0  -0.335344  -0.570791  0  2.131891  0
O  O218  1  0.18958000  0.75239600  0.66897099  1  -1.184995  0  -0.335397  -0.570874  0  2.132018  0
O  O219  1  0.31040798  0.25239859  0.83102430  1  -1.184876  0  -0.335302  -0.570668  0  2.132171  0
O  O220  1  0.58540353  0.20622811  0.27482180  1  -1.181108  0  -0.347367  -0.569645  0  2.298671  0
O  O221  1  0.91459500  0.70623118  0.22517594  1  -1.181006  0  -0.347305  -0.569588  0  2.298719  0
O  O222  1  0.41459366  0.79376954  0.72517765  1  -1.181052  0  -0.347299  -0.569596  0  2.298755  0
O  O223  1  0.08538809  0.29376522  0.77482486  1  -1.180974  0  -0.347245  -0.569452  0  2.298794  0
O  O224  1  0.95688030  0.22358151  0.60345331  1  -1.173781  0  -0.345308  -0.57413  0  2.325846  0
O  O225  1  0.54313309  0.72357340  0.89653811  1  -1.173605  0  -0.345296  -0.574078  0  2.326202  0
O  O226  1  0.04313208  0.77642488  0.39653994  1  -1.173631  0  -0.345323  -0.574131  0  2.326169  0
O  O227  1  0.45687170  0.27642049  0.10345824  1  -1.173545  0  -0.345347  -0.574123  0  2.326214  0
O  O228  1  0.82128913  0.15085606  0.67150503  1  -1.180041  0  -0.337227  -0.559937  0  2.093243  0
O  O229  1  0.67872807  0.65083915  0.82849368  1  -1.179153  0  -0.337171  -0.55986  0  2.093145  0
O  O230  1  0.17872432  0.84915909  0.32849439  1  -1.179084  0  -0.33712  -0.559808  0  2.093207  0
O  O231  1  0.32128321  0.34915412  0.17150607  1  -1.179804  0  -0.33717  -0.559811  0  2.093334  0
