# generated using pymatgen
data_GdH14C17NO7
_symmetry_space_group_name_H-M   'P 1'
_cell_length_a   6.38964658
_cell_length_b   16.59063476
_cell_length_c   24.19433531
_cell_angle_alpha   89.99989581
_cell_angle_beta   91.35918588
_cell_angle_gamma   90.00054051
_symmetry_Int_Tables_number   1
_chemical_formula_structural   GdH14C17NO7
_chemical_formula_sum   'Gd4 H56 C68 N4 O28'
_cell_volume   2564.07854883
_cell_formula_units_Z   4
loop_
 _symmetry_equiv_pos_site_id
 _symmetry_equiv_pos_as_xyz
  1  'x, y, z'
loop_
 _atom_site_type_symbol
 _atom_site_label
 _atom_site_symmetry_multiplicity
 _atom_site_fract_x
 _atom_site_fract_y
 _atom_site_fract_z
 _atom_site_occupancy
 _atom_site_pbe_bader_charge
 _atom_site_pbe_bader_spin_density
 _atom_site_pbe_cm5_charge
 _atom_site_pbe_ddec_charge
 _atom_site_pbe_ddec_spin_density
 _atom_site_pbe_ddec_sum_bond_order
 _atom_site_pbe_magmom
Gd  Gd0  1  0.26345995  0.06344645  0.02184885  1  2.167193  0  1.502611  2.03375  0  2.323867  0
Gd  Gd1  1  0.73654487  0.56344916  0.47815253  1  2.167092  0  1.502569  2.033729  0  2.323909  0
Gd  Gd2  1  0.73653205  0.93655711  0.97815390  1  2.166969  0  1.502541  2.033651  0  2.324164  0
Gd  Gd3  1  0.26346428  0.43655561  0.52184700  1  2.167112  0  1.502565  2.033754  0  2.324  0
H  H4  1  0.63906037  0.77795324  0.82028934  1  0.081683  0  0.101198  0.12095  0  1.007612  0
H  H5  1  0.36093180  0.27795101  0.67970923  1  0.081662  0  0.101216  0.120984  0  1.007645  0
H  H6  1  0.36091922  0.22203827  0.17971996  1  0.082009  0  0.101167  0.121037  0  1.007616  0
H  H7  1  0.63908039  0.72204593  0.32028452  1  0.081796  0  0.101159  0.120983  0  1.007597  0
H  H8  1  0.01104314  0.83689093  0.76344219  1  0.030345  0  0.091322  0.091673  0  1.038086  0
H  H9  1  0.98895522  0.33688223  0.73655511  1  0.030562  0  0.091301  0.091589  0  1.037964  0
H  H10  1  0.98894418  0.16310600  0.23656219  1  0.030116  0  0.091296  0.091579  0  1.038101  0
H  H11  1  0.01106172  0.66311109  0.26344198  1  0.030224  0  0.091288  0.09159  0  1.037934  0
H  H12  1  0.96139383  0.91645538  0.84879439  1  0.122537  0  0.111123  0.108864  0  1.009312  0
H  H13  1  0.03861754  0.41644912  0.65120206  1  0.12258  0  0.111104  0.108802  0  1.009339  0
H  H14  1  0.03858562  0.08354698  0.15120747  1  0.122692  0  0.111098  0.108752  0  1.009406  0
H  H15  1  0.96140095  0.58354600  0.34879462  1  0.122657  0  0.111102  0.108851  0  1.009267  0
H  H16  1  0.05367644  0.69682286  0.73797090  1  0.062092  0  0.106791  0.128175  0  0.99818  0
H  H17  1  0.94631989  0.19682479  0.76202819  1  0.062117  0  0.106793  0.128202  0  0.998136  0
H  H18  1  0.94631867  0.30316805  0.26203104  1  0.062036  0  0.106794  0.128175  0  0.998159  0
H  H19  1  0.05368771  0.80316853  0.23797174  1  0.062198  0  0.106748  0.128176  0  0.998104  0
H  H20  1  0.73336957  0.70411743  0.64294436  1  0.085922  0  0.096586  0.092621  0  1.050062  0
H  H21  1  0.26661754  0.20411194  0.85705386  1  0.085913  0  0.096606  0.092661  0  1.050071  0
H  H22  1  0.26663341  0.29588614  0.35706010  1  0.085874  0  0.096582  0.092612  0  1.050096  0
H  H23  1  0.73337749  0.79589403  0.14294354  1  0.085612  0  0.096604  0.092698  0  1.050053  0
H  H24  1  0.67761931  0.79369667  0.72400126  1  0.030339  0  0.094627  0.096913  0  1.037219  0
H  H25  1  0.32237166  0.29369342  0.77599522  1  0.030285  0  0.094597  0.096889  0  1.037104  0
H  H26  1  0.32238057  0.20630027  0.27600483  1  0.030433  0  0.094591  0.096932  0  1.037111  0
H  H27  1  0.67762958  0.70630834  0.22399931  1  0.030339  0  0.094577  0.096908  0  1.037156  0
H  H28  1  0.12237580  0.22049794  0.92881352  1  0.097277  0  0.125654  0.041348  0  1.045852  0
H  H29  1  0.87764145  0.72049569  0.57118359  1  0.097443  0  0.125584  0.041311  0  1.045968  0
H  H30  1  0.87764268  0.77950321  0.07118275  1  0.097494  0  0.125531  0.04119  0  1.04604  0
H  H31  1  0.12233622  0.27951872  0.42880586  1  0.097258  0  0.125584  0.041271  0  1.046135  0
H  H32  1  0.97750460  0.31774529  0.88318214  1  0.068172  0  0.112267  0.125752  0  0.993198  0
H  H33  1  0.02250121  0.81773578  0.61682183  1  0.065224  0  0.112302  0.125833  0  0.993336  0
H  H34  1  0.02247469  0.68225887  0.11681063  1  0.068183  0  0.112261  0.12582  0  0.993102  0
H  H35  1  0.97749227  0.18226778  0.38317679  1  0.065262  0  0.112296  0.125823  0  0.993155  0
H  H36  1  0.84444289  0.39010269  0.92447744  1  0.044132  0  0.105339  0.115274  0  0.978072  0
H  H37  1  0.15555703  0.89009737  0.57552890  1  0.044014  0  0.105375  0.115333  0  0.978135  0
H  H38  1  0.15553960  0.60990027  0.07551865  1  0.044113  0  0.105353  0.115321  0  0.978037  0
H  H39  1  0.84444745  0.10990800  0.42447185  1  0.04409  0  0.105442  0.115429  0  0.97801  0
H  H40  1  0.69870094  0.31825896  0.88381775  1  0.086039  0  0.103959  0.121052  0  1.017605  0
H  H41  1  0.30130181  0.81825643  0.61618909  1  0.085856  0  0.104013  0.121147  0  1.017558  0
H  H42  1  0.30127376  0.68174038  0.11618078  1  0.086152  0  0.103998  0.120043  0  1.018779  0
H  H43  1  0.69869172  0.18174593  0.38381160  1  0.085813  0  0.103986  0.120056  0  1.018757  0
H  H44  1  0.70680297  0.23025878  0.02716134  1  0.105198  0  0.122488  0.147709  0  0.998601  0
H  H45  1  0.29325488  0.73025758  0.47284922  1  0.105194  0  0.122505  0.147801  0  0.998555  0
H  H46  1  0.29321398  0.76973936  0.97283617  1  0.10514  0  0.122474  0.147713  0  0.998513  0
H  H47  1  0.70677634  0.26973755  0.52715868  1  0.105017  0  0.122494  0.147772  0  0.99843  0
H  H48  1  0.52944232  0.26108352  0.97298006  1  0.094823  0  0.110716  0.121437  0  1.000332  0
H  H49  1  0.47059041  0.76108483  0.52703568  1  0.09517  0  0.110717  0.121423  0  1.000428  0
H  H50  1  0.47056372  0.73891281  0.02702028  1  0.094768  0  0.110728  0.121486  0  1.000344  0
H  H51  1  0.52941895  0.23890969  0.47297542  1  0.095454  0  0.110719  0.121455  0  1.000334  0
H  H52  1  0.67015114  0.33529993  0.01285489  1  0.063778  0  0.106825  0.114594  0  0.976242  0
H  H53  1  0.32990006  0.83530062  0.48715635  1  0.063885  0  0.106876  0.114594  0  0.97613  0
H  H54  1  0.32985646  0.66469942  0.98714505  1  0.063753  0  0.106799  0.114562  0  0.976231  0
H  H55  1  0.67014045  0.16469511  0.51284623  1  0.063712  0  0.10686  0.114609  0  0.976203  0
H  H56  1  0.13087847  0.56611568  0.62540126  1  0.647982  0  0.308908  0.357838  0  0.969875  0
H  H57  1  0.86910354  0.06611400  0.87459997  1  0.651475  0  0.308858  0.357724  0  0.969994  0
H  H58  1  0.86912603  0.43388728  0.37460073  1  0.647611  0  0.308914  0.357827  0  0.969898  0
H  H59  1  0.13088216  0.93388595  0.12540068  1  0.651502  0  0.308907  0.357811  0  0.969917  0
C  C60  1  0.23039634  0.94012640  0.93227781  1  1.458943  0  0.223754  0.659184  0  4.141639  0
C  C61  1  0.76960006  0.44012649  0.56772185  1  1.458757  0  0.223757  0.659123  0  4.141797  0
C  C62  1  0.76958785  0.05987776  0.06772614  1  1.458456  0  0.223807  0.659312  0  4.141333  0
C  C63  1  0.23041218  0.55987707  0.43227521  1  1.458601  0  0.223821  0.659246  0  4.141577  0
C  C64  1  0.26997493  0.89317777  0.88292292  1  -0.016493  0  -0.036384  -0.206994  0  3.938251  0
C  C65  1  0.73002489  0.39317396  0.61707391  1  -0.016423  0  -0.036433  -0.207106  0  3.938364  0
C  C66  1  0.73000613  0.10682158  0.11708143  1  -0.016119  0  -0.036516  -0.207489  0  3.938473  0
C  C67  1  0.26999984  0.60681875  0.38292115  1  -0.016237  0  -0.036524  -0.207142  0  3.938209  0
C  C68  1  0.46835669  0.85415912  0.87489536  1  0.692072  0  0.10122  0.387388  0  4.098157  0
C  C69  1  0.53164527  0.35415401  0.62510276  1  0.692015  0  0.101333  0.387525  0  4.098155  0
C  C70  1  0.53162287  0.14583661  0.12511229  1  0.691519  0  0.10143  0.387795  0  4.097724  0
C  C71  1  0.46837785  0.64584051  0.37488981  1  0.691361  0  0.101354  0.387523  0  4.097945  0
C  C72  1  0.49030070  0.80892889  0.82563900  1  -0.063873  0  -0.110139  -0.268575  0  3.901658  0
C  C73  1  0.50969070  0.30892416  0.67435953  1  -0.063957  0  -0.110248  -0.2688  0  3.90164  0
C  C74  1  0.50967727  0.19106503  0.17436740  1  -0.064406  0  -0.110239  -0.268924  0  3.901725  0
C  C75  1  0.49032619  0.69106915  0.32563508  1  -0.06423  0  -0.11023  -0.268822  0  3.90172  0
C  C76  1  0.32928979  0.80164926  0.78618373  1  -0.018768  0  -0.005844  0.099884  0  4.034676  0
C  C77  1  0.67070769  0.30164316  0.71381485  1  -0.018264  0  -0.005777  0.100029  0  4.034412  0
C  C78  1  0.67068818  0.19834646  0.21382226  1  -0.018169  0  -0.005751  0.100005  0  4.034813  0
C  C79  1  0.32931232  0.69834895  0.28617895  1  -0.018079  0  -0.005698  0.100045  0  4.034702  0
C  C80  1  0.13604446  0.84085417  0.79476730  1  -0.067844  0  -0.114438  -0.185595  0  4.029707  0
C  C81  1  0.86395241  0.34085056  0.70522792  1  -0.068541  0  -0.114376  -0.185467  0  4.029445  0
C  C82  1  0.86393193  0.15914457  0.20523786  1  -0.067687  0  -0.114418  -0.185569  0  4.029552  0
C  C83  1  0.13606921  0.65914215  0.29476836  1  -0.068139  0  -0.114385  -0.185477  0  4.029515  0
C  C84  1  0.10929850  0.88574565  0.84213924  1  -0.046432  0  -0.076485  -0.042374  0  3.998322  0
C  C85  1  0.89070270  0.38573926  0.65785844  1  -0.045906  0  -0.076423  -0.042212  0  3.998236  0
C  C86  1  0.89068725  0.11425068  0.15786472  1  -0.046639  0  -0.076378  -0.041946  0  3.99794  0
C  C87  1  0.10931422  0.61425406  0.34213783  1  -0.046188  0  -0.076422  -0.04231  0  3.998203  0
C  C88  1  0.36101988  0.75199789  0.73639606  1  0.015124  0  -0.002666  0.102233  0  4.021534  0
C  C89  1  0.63897316  0.25199334  0.76360172  1  0.014554  0  -0.002723  0.102112  0  4.021411  0
C  C90  1  0.63897369  0.24800206  0.26360753  1  0.014983  0  -0.002786  0.10206  0  4.021906  0
C  C91  1  0.36103123  0.74800359  0.23639407  1  0.014989  0  -0.002732  0.102185  0  4.021779  0
C  C92  1  0.20212136  0.70089713  0.71679840  1  0.031444  0  -0.107744  -0.266158  0  3.931892  0
C  C93  1  0.79786881  0.20089246  0.78320066  1  0.031461  0  -0.107788  -0.266229  0  3.931991  0
C  C94  1  0.79787377  0.29910222  0.28320437  1  0.031655  0  -0.107679  -0.265972  0  3.93195  0
C  C95  1  0.20212777  0.79910266  0.21679633  1  0.03161  0  -0.107707  -0.266101  0  3.932028  0
C  C96  1  0.23291829  0.65009208  0.67133688  1  0.519599  0  0.090111  0.316399  0  4.067617  0
C  C97  1  0.76707051  0.15009079  0.82865975  1  0.520016  0  0.090097  0.31633  0  4.067668  0
C  C98  1  0.76707992  0.34990787  0.32866342  1  0.519462  0  0.090012  0.31617  0  4.067967  0
C  C99  1  0.23292299  0.84990855  0.17133970  1  0.51947  0  0.090081  0.316256  0  4.067821  0
C  C100  1  0.42593582  0.65274334  0.64324157  1  -0.047236  0  -0.042268  -0.202668  0  3.977976  0
C  C101  1  0.57405464  0.15274131  0.85675589  1  -0.047752  0  -0.042291  -0.202546  0  3.977931  0
C  C102  1  0.57405766  0.34726143  0.35675664  1  -0.047486  0  -0.042252  -0.20251  0  3.977937  0
C  C103  1  0.42593883  0.84725984  0.14324191  1  -0.047863  0  -0.042302  -0.202594  0  3.977771  0
C  C104  1  0.58340851  0.70486274  0.66336858  1  -0.068688  0  -0.090079  -0.068125  0  4.046345  0
C  C105  1  0.41658483  0.20486024  0.83662718  1  -0.06826  0  -0.090111  -0.068219  0  4.046416  0
C  C106  1  0.41659124  0.29513901  0.33663007  1  -0.068632  0  -0.090086  -0.06808  0  4.046328  0
C  C107  1  0.58341805  0.79514272  0.16337191  1  -0.067959  0  -0.090056  -0.068084  0  4.046349  0
C  C108  1  0.55376295  0.75357806  0.70905328  1  -0.02992  0  -0.112135  -0.184955  0  4.032082  0
C  C109  1  0.44622859  0.25357157  0.79094614  1  -0.029629  0  -0.112066  -0.184852  0  4.03196  0
C  C110  1  0.44623689  0.24642490  0.29095033  1  -0.03003  0  -0.112038  -0.184909  0  4.032277  0
C  C111  1  0.55377581  0.74642837  0.20905047  1  -0.030015  0  -0.11207  -0.184986  0  4.032302  0
C  C112  1  0.45987573  0.60169238  0.59395310  1  1.510568  0  0.232002  0.657767  0  4.116445  0
C  C113  1  0.54011654  0.10169190  0.90604524  1  1.510748  0  0.231975  0.657703  0  4.11624  0
C  C114  1  0.54013031  0.39830937  0.40604724  1  1.511632  0  0.231949  0.657634  0  4.116677  0
C  C115  1  0.45987538  0.89830865  0.09395337  1  1.511591  0  0.231947  0.65754  0  4.116642  0
C  C116  1  0.00435256  0.21827656  0.96125386  1  1.40157  0  0.192658  0.327602  0  4.087288  0
C  C117  1  0.99567885  0.71827481  0.53875034  1  1.401573  0  0.192767  0.327572  0  4.087706  0
C  C118  1  0.99566285  0.78173001  0.03874529  1  1.400838  0  0.192866  0.328015  0  4.087669  0
C  C119  1  0.00431928  0.28173177  0.46124582  1  1.401815  0  0.192753  0.327569  0  4.088056  0
C  C120  1  0.84167469  0.32763012  0.90921194  1  0.268836  0  -0.125653  -0.27714  0  3.923107  0
C  C121  1  0.15833142  0.82762536  0.59079409  1  0.272132  0  -0.125744  -0.277451  0  3.923303  0
C  C122  1  0.15831091  0.67237224  0.09078375  1  0.268857  0  -0.125708  -0.276376  0  3.923818  0
C  C123  1  0.84166679  0.17237880  0.40920580  1  0.272146  0  -0.125746  -0.276532  0  3.92387  0
C  C124  1  0.67854049  0.27479870  0.99451759  1  0.219135  0  -0.122203  -0.261876  0  3.863829  0
C  C125  1  0.32150032  0.77479837  0.50549239  1  0.218852  0  -0.122191  -0.261947  0  3.863808  0
C  C126  1  0.32146709  0.72520124  0.00548152  1  0.219301  0  -0.122147  -0.261838  0  3.86389  0
C  C127  1  0.67852302  0.22519917  0.49451258  1  0.218813  0  -0.122177  -0.261984  0  3.863709  0
N  N128  1  0.84867246  0.27160749  0.95554308  1  -1.206901  0  -0.274628  0.032657  0  3.711072  0
N  N129  1  0.15135722  0.77160224  0.54446189  1  -1.207444  0  -0.274668  0.032924  0  3.711106  0
N  N130  1  0.15132564  0.72839487  0.04445102  1  -1.207235  0  -0.274669  0.032581  0  3.710996  0
N  N131  1  0.84865038  0.22840072  0.45553846  1  -1.207514  0  -0.274738  0.03293  0  3.710978  0
O  O132  1  0.05493461  0.97646286  0.93982659  1  -1.222564  0  -0.415381  -0.73168  0  2.349744  0
O  O133  1  0.94506589  0.47646538  0.56017471  1  -1.222531  0  -0.415388  -0.731693  0  2.349662  0
O  O134  1  0.94505266  0.02353709  0.06017490  1  -1.222895  0  -0.415339  -0.731656  0  2.349527  0
O  O135  1  0.05494798  0.52353517  0.43982567  1  -1.222907  0  -0.415341  -0.731655  0  2.349661  0
O  O136  1  0.37285966  0.94824322  0.97059327  1  -1.211705  0  -0.467  -0.749145  0  2.536388  0
O  O137  1  0.62712608  0.44824715  0.52941128  1  -1.211808  0  -0.467086  -0.749158  0  2.53657  0
O  O138  1  0.62712295  0.05175793  0.02940985  1  -1.211185  0  -0.467107  -0.749225  0  2.536267  0
O  O139  1  0.37287842  0.55175822  0.47059070  1  -1.211181  0  -0.467127  -0.749247  0  2.536292  0
O  O140  1  0.61241643  0.61703266  0.56258538  1  -1.186829  0  -0.382754  -0.652746  0  2.273387  0
O  O141  1  0.38757469  0.11703097  0.93741378  1  -1.186852  0  -0.38277  -0.652806  0  2.273276  0
O  O142  1  0.38758177  0.38297150  0.43741451  1  -1.187482  0  -0.382748  -0.652772  0  2.273424  0
O  O143  1  0.61241726  0.88297440  0.06258649  1  -1.187527  0  -0.382765  -0.652692  0  2.273525  0
O  O144  1  0.32708591  0.54433873  0.58542604  1  -1.181888  0  -0.371876  -0.64305  0  2.33182  0
O  O145  1  0.67290648  0.04434048  0.91457485  1  -1.181895  0  -0.371828  -0.643016  0  2.331727  0
O  O146  1  0.67292955  0.45566002  0.41457600  1  -1.182068  0  -0.371847  -0.642978  0  2.332025  0
O  O147  1  0.32707447  0.95565886  0.08542330  1  -1.182018  0  -0.371818  -0.642905  0  2.331878  0
O  O148  1  0.62678654  0.85746963  0.91028259  1  -1.18713  0  -0.476365  -0.680636  0  2.30487  0
O  O149  1  0.37321861  0.35746710  0.58971389  1  -1.187194  0  -0.476446  -0.680706  0  2.304902  0
O  O150  1  0.37318209  0.14252489  0.08972666  1  -1.186899  0  -0.476475  -0.68072  0  2.304326  0
O  O151  1  0.62681387  0.64252621  0.41027707  1  -1.186783  0  -0.476437  -0.680655  0  2.304637  0
O  O152  1  0.07422345  0.60091891  0.65573957  1  -1.161574  0  -0.348586  -0.443449  0  2.285471  0
O  O153  1  0.92576259  0.10091811  0.84426165  1  -1.16555  0  -0.348467  -0.443274  0  2.285433  0
O  O154  1  0.92576850  0.39908345  0.34426070  1  -1.16119  0  -0.348549  -0.443406  0  2.285552  0
O  O155  1  0.07422939  0.89908063  0.15574028  1  -1.165189  0  -0.348556  -0.443388  0  2.28543  0
O  O156  1  0.02039757  0.16828447  0.99993088  1  -1.186793  0  -0.357459  -0.535797  0  2.371131  0
O  O157  1  0.97964187  0.66828157  0.50006970  1  -1.18659  0  -0.35754  -0.535957  0  2.371127  0
O  O158  1  0.97962415  0.83172813  0.00007078  1  -1.186044  0  -0.357484  -0.535941  0  2.371098  0
O  O159  1  0.02035779  0.33172742  0.49992400  1  -1.186641  0  -0.357483  -0.535875  0  2.37119  0
