# generated using pymatgen
data_CdH20C18(NO2)2
_symmetry_space_group_name_H-M   'P 1'
_cell_length_a   5.12057630
_cell_length_b   9.74747518
_cell_length_c   16.53494318
_cell_angle_alpha   97.31245290
_cell_angle_beta   89.99930319
_cell_angle_gamma   89.99952612
_symmetry_Int_Tables_number   1
_chemical_formula_structural   CdH20C18(NO2)2
_chemical_formula_sum   'Cd2 H40 C36 N4 O8'
_cell_volume   818.59114227
_cell_formula_units_Z   2
loop_
 _symmetry_equiv_pos_site_id
 _symmetry_equiv_pos_as_xyz
  1  'x, y, z'
loop_
 _atom_site_type_symbol
 _atom_site_label
 _atom_site_symmetry_multiplicity
 _atom_site_fract_x
 _atom_site_fract_y
 _atom_site_fract_z
 _atom_site_occupancy
 _atom_site_hle17_bader_spin_density
 _atom_site_hle17_ddec_charge
 _atom_site_hle17_ddec_spin_density
 _atom_site_hle17_ddec_sum_bond_order
 _atom_site_hle17_magmom
 _atom_site_hse06_10hf_bader_spin_density
 _atom_site_hse06_10hf_ddec_charge
 _atom_site_hse06_10hf_ddec_spin_density
 _atom_site_hse06_10hf_ddec_sum_bond_order
 _atom_site_hse06_10hf_magmom
 _atom_site_hse06_bader_spin_density
 _atom_site_hse06_ddec_charge
 _atom_site_hse06_ddec_spin_density
 _atom_site_hse06_ddec_sum_bond_order
 _atom_site_hse06_magmom
 _atom_site_pbe_bader_spin_density
 _atom_site_pbe_cm5_charge
 _atom_site_pbe_ddec_charge
 _atom_site_pbe_ddec_spin_density
 _atom_site_pbe_ddec_sum_bond_order
 _atom_site_pbe_magmom
Cd  Cd0  1  0.11517031  0.24849727  0.00863501  1  0  1.148051  0  1.590454  0  0  0.96179  0  2.02676  0  0  1.017449  0  1.975982  0  0  0.765268  0.922394  0  2.061276  0
Cd  Cd1  1  0.61519260  0.75152670  0.99136386  1  0  1.148018  0  1.590661  0  0  0.961783  0  2.026974  0  0  1.017447  0  1.976192  0  0  0.765275  0.922369  0  2.061466  0
H  H2  1  0.51296453  0.41646875  0.07440940  1  0  0.311553  0  0.928194  0  0  0.296099  0  0.990719  0  0  0.302979  0  0.986337  0  0  0.288977  0.291261  0  0.99371  0
H  H3  1  0.01297022  0.58353934  0.92559544  1  0  0.311505  0  0.928261  0  0  0.296034  0  0.990801  0  0  0.302918  0  0.986421  0  0  0.288931  0.291193  0  0.993789  0
H  H4  1  0.43725742  0.32556108  0.14802430  1  0  0.296942  0  0.902415  0  0  0.287818  0  0.960075  0  0  0.29336  0  0.957225  0  0  0.294765  0.283821  0  0.962229  0
H  H5  1  0.93728884  0.67443450  0.85197399  1  0  0.296941  0  0.902391  0  0  0.287751  0  0.960137  0  0  0.293293  0  0.957287  0  0  0.2947  0.283749  0  0.962299  0
H  H6  1  0.77991958  0.19443626  0.87086732  1  0  0.293313  0  0.922296  0  0  0.278735  0  0.988917  0  0  0.28514  0  0.984502  0  0  0.286695  0.27428  0  0.991928  0
H  H7  1  0.27991796  0.80557343  0.12912882  1  0  0.293216  0  0.922407  0  0  0.278692  0  0.988887  0  0  0.285096  0  0.984474  0  0  0.286707  0.274233  0  0.991896  0
H  H8  1  0.75020199  0.07256020  0.93042541  1  0  0.30799  0  0.924031  0  0  0.293411  0  0.9853  0  0  0.300065  0  0.98119  0  0  0.288959  0.288675  0  0.988157  0
H  H9  1  0.25019888  0.92745283  0.06957469  1  0  0.308199  0  0.923887  0  0  0.293534  0  0.985225  0  0  0.300188  0  0.981119  0  0  0.28908  0.288794  0  0.988088  0
H  H10  1  0.32247682  0.58881333  0.16149937  1  0  0.050067  0  0.929941  0  0  0.063546  0  0.990114  0  0  0.064836  0  0.989211  0  0  0.10584  0.062508  0  0.991053  0
H  H11  1  0.82247028  0.41119243  0.83851209  1  0  0.050109  0  0.929764  0  0  0.06356  0  0.989947  0  0  0.064847  0  0.989045  0  0  0.105815  0.062521  0  0.990896  0
H  H12  1  0.91842412  0.53967854  0.24015464  1  0  0.086283  0  0.951991  0  0  0.102605  0  1.017706  0  0  0.103183  0  1.018248  0  0  0.096794  0.10202  0  1.017452  0
H  H13  1  0.41843302  0.46033087  0.75985612  1  0  0.086288  0  0.95199  0  0  0.102599  0  1.017683  0  0  0.103163  0  1.01822  0  0  0.096824  0.102017  0  1.017432  0
H  H14  1  0.94664783  0.36249311  0.20293900  1  0  0.099297  0  0.937727  0  0  0.11503  0  1.001566  0  0  0.117152  0  1.000072  0  0  0.099041  0.113339  0  1.002853  0
H  H15  1  0.44666975  0.63751596  0.79706376  1  0  0.099308  0  0.937739  0  0  0.115015  0  1.001589  0  0  0.117124  0  1.000087  0  0  0.099018  0.11332  0  1.002874  0
H  H16  1  0.49428691  0.60744664  0.27770360  1  0  0.085913  0  0.963826  0  0  0.098519  0  1.02401  0  0  0.101298  0  1.02288  0  0  0.096386  0.096251  0  1.025719  0
H  H17  1  0.99431292  0.39255402  0.72230208  1  0  0.085963  0  0.963806  0  0  0.098548  0  1.024029  0  0  0.101335  0  1.022888  0  0  0.096371  0.096265  0  1.02577  0
H  H18  1  0.75478060  0.58146841  0.40111084  1  0  0.080652  0  0.964467  0  0  0.092984  0  1.025311  0  0  0.095009  0  1.02524  0  0  0.096865  0.091674  0  1.025132  0
H  H19  1  0.25479307  0.41852080  0.59888706  1  0  0.080668  0  0.964563  0  0  0.093044  0  1.02535  0  0  0.095069  0  1.025278  0  0  0.096876  0.091735  0  1.025171  0
H  H20  1  0.63622519  0.40627416  0.48976289  1  0  0.08201  0  0.981167  0  0  0.092128  0  1.045367  0  0  0.094225  0  1.045667  0  0  0.094999  0.090685  0  1.045025  0
H  H21  1  0.13620915  0.59370310  0.51023041  1  0  0.081944  0  0.981269  0  0  0.092065  0  1.045485  0  0  0.094159  0  1.04579  0  0  0.094969  0.090622  0  1.045149  0
H  H22  1  0.25772893  0.24681489  0.45176026  1  0  0.080477  0  0.963091  0  0  0.093693  0  1.022293  0  0  0.09587  0  1.02195  0  0  0.096885  0.091959  0  1.023145  0
H  H23  1  0.75770346  0.75316179  0.54823257  1  0  0.080435  0  0.963271  0  0  0.093674  0  1.022425  0  0  0.095847  0  1.022089  0  0  0.096874  0.091942  0  1.023277  0
H  H24  1  0.00478330  0.26851632  0.32617386  1  0  0.08966  0  0.94843  0  0  0.102561  0  1.006914  0  0  0.105256  0  1.006153  0  0  0.098412  0.100454  0  1.008069  0
H  H25  1  0.50477439  0.73146997  0.67382473  1  0  0.089688  0  0.948473  0  0  0.102589  0  1.006962  0  0  0.105283  0  1.006199  0  0  0.098462  0.100484  0  1.00811  0
H  H26  1  0.19467070  0.11570270  0.82376180  1  0  0.063299  0  0.936631  0  0  0.079734  0  0.99257  0  0  0.080757  0  0.992475  0  0  0.112758  0.078896  0  0.992739  0
H  H27  1  0.69465088  0.88431063  0.17623912  1  0  0.06335  0  0.936694  0  0  0.079715  0  0.992659  0  0  0.080738  0  0.992573  0  0  0.112759  0.078873  0  0.992825  0
H  H28  1  0.08885142  0.86146042  0.76352345  1  0  0.090446  0  0.944487  0  0  0.103695  0  1.011919  0  0  0.106009  0  1.010094  0  0  0.094778  0.102049  0  1.013405  0
H  H29  1  0.58878109  0.13855150  0.23648380  1  0  0.090442  0  0.944346  0  0  0.103654  0  1.011852  0  0  0.10595  0  1.010023  0  0  0.094769  0.102028  0  1.013312  0
H  H30  1  0.77707548  0.89131226  0.80896299  1  0  0.089859  0  0.939131  0  0  0.107006  0  1.00228  0  0  0.108184  0  1.002268  0  0  0.094624  0.106242  0  1.002384  0
H  H31  1  0.27701661  0.10868416  0.19103833  1  0  0.090021  0  0.938963  0  0  0.107235  0  1.002046  0  0  0.108397  0  1.002025  0  0  0.094664  0.106461  0  1.002168  0
H  H32  1  0.18443842  0.93585315  0.63619316  1  0  0.087217  0  0.952101  0  0  0.100337  0  1.010371  0  0  0.102775  0  1.010275  0  0  0.09745  0.098539  0  1.010793  0
H  H33  1  0.68440109  0.06413624  0.36379896  1  0  0.087109  0  0.952057  0  0  0.100305  0  1.010255  0  0  0.102749  0  1.010154  0  0  0.097471  0.098505  0  1.01068  0
H  H34  1  0.06286619  0.06235388  0.52111199  1  0  0.079856  0  0.97878  0  0  0.091845  0  1.039757  0  0  0.094059  0  1.039702  0  0  0.094238  0.090379  0  1.03968  0
H  H35  1  0.56284444  0.93762678  0.47887937  1  0  0.079886  0  0.978647  0  0  0.091852  0  1.039631  0  0  0.094055  0  1.039585  0  0  0.094204  0.090384  0  1.039557  0
H  H36  1  0.67214376  0.21536508  0.53130086  1  0  0.082137  0  0.977023  0  0  0.095823  0  1.036361  0  0  0.098143  0  1.035787  0  0  0.097703  0.094187  0  1.037044  0
H  H37  1  0.17212429  0.78461719  0.46869325  1  0  0.082167  0  0.977127  0  0  0.095827  0  1.036496  0  0  0.098183  0  1.035879  0  0  0.09771  0.094191  0  1.037181  0
H  H38  1  0.40216737  0.23919139  0.65825153  1  0  0.080986  0  0.965515  0  0  0.09456  0  1.023721  0  0  0.096787  0  1.023336  0  0  0.097055  0.093176  0  1.023729  0
H  H39  1  0.90214851  0.76078883  0.34174526  1  0  0.080901  0  0.965761  0  0  0.094504  0  1.023909  0  0  0.096728  0  1.023528  0  0  0.096999  0.093119  0  1.023921  0
H  H40  1  0.52497056  0.11360603  0.77253763  1  0  0.085609  0  0.991808  0  0  0.096395  0  1.055585  0  0  0.099521  0  1.053619  0  0  0.095747  0.094268  0  1.05693  0
H  H41  1  0.02494000  0.88637806  0.22745954  1  0  0.085847  0  0.991642  0  0  0.096628  0  1.055396  0  0  0.099751  0  1.053436  0  0  0.095807  0.094491  0  1.056749  0
C  C42  1  0.97998677  0.54128708  0.08916935  1  0  0.644206  0  3.86691  0  0  0.592853  0  4.172129  0  0  0.626529  0  4.165125  0  0  0.203238  0.570125  0  4.175998  0
C  C43  1  0.47997956  0.45873233  0.91084003  1  0  0.64382  0  3.867239  0  0  0.592322  0  4.172661  0  0  0.625996  0  4.165669  0  0  0.203028  0.569618  0  4.17649  0
C  C44  1  0.19917151  0.49719180  0.14477073  1  0  0.077249  0  3.623508  0  0  0.057515  0  3.867993  0  0  0.057605  0  3.881012  0  0  -0.002665  0.057269  0  3.859276  0
C  C45  1  0.69917444  0.50282373  0.85523637  1  0  0.077326  0  3.623058  0  0  0.057723  0  3.867401  0  0  0.057802  0  3.880394  0  0  -0.002675  0.057448  0  3.858744  0
C  C46  1  0.06048273  0.45736826  0.22081206  1  0  -0.20434  0  3.693567  0  0  -0.252038  0  3.93738  0  0  -0.253527  0  3.950119  0  0  -0.159695  -0.250526  0  3.928571  0
C  C47  1  0.56049600  0.54263858  0.77919313  1  0  -0.204445  0  3.693744  0  0  -0.252097  0  3.937339  0  0  -0.253518  0  3.949993  0  0  -0.159719  -0.25057  0  3.928488  0
C  C48  1  0.23245616  0.43858350  0.29266681  1  0  0.090359  0  3.752508  0  0  0.11324  0  3.987112  0  0  0.113403  0  4.012294  0  0  -0.015519  0.112938  0  3.970672  0
C  C49  1  0.73246433  0.56141108  0.70733516  1  0  0.090203  0  3.7529  0  0  0.113206  0  3.987298  0  0  0.113351  0  4.01247  0  0  -0.015552  0.112907  0  3.970857  0
C  C50  1  0.44448187  0.52632525  0.31481450  1  0  -0.133545  0  3.762295  0  0  -0.153165  0  4.008357  0  0  -0.15665  0  4.030996  0  0  -0.098934  -0.151505  0  3.99492  0
C  C51  1  0.94450222  0.47366834  0.68518786  1  0  -0.133492  0  3.762401  0  0  -0.153154  0  4.008436  0  0  -0.156646  0  4.031083  0  0  -0.098873  -0.151495  0  3.995004  0
C  C52  1  0.58935482  0.51323345  0.38479627  1  0  -0.067561  0  3.799346  0  0  -0.080509  0  4.050666  0  0  -0.082163  0  4.073406  0  0  -0.094576  -0.078919  0  4.034948  0
C  C53  1  0.08935960  0.48675660  0.61520348  1  0  -0.067563  0  3.799609  0  0  -0.080539  0  4.050912  0  0  -0.082193  0  4.073657  0  0  -0.094588  -0.078951  0  4.035196  0
C  C54  1  0.52298123  0.41331851  0.43462168  1  0  -0.093158  0  3.793553  0  0  -0.107919  0  4.043913  0  0  -0.110409  0  4.065673  0  0  -0.099215  -0.105793  0  4.028523  0
C  C55  1  0.02297861  0.58666348  0.56537354  1  0  -0.093025  0  3.793501  0  0  -0.107776  0  4.043869  0  0  -0.110268  0  4.065634  0  0  -0.099154  -0.105652  0  4.028487  0
C  C56  1  0.31211553  0.32528675  0.41337967  1  0  -0.073083  0  3.800984  0  0  -0.085717  0  4.049642  0  0  -0.087315  0  4.071896  0  0  -0.096279  -0.084756  0  4.035617  0
C  C57  1  0.81209953  0.67469491  0.58661633  1  0  -0.073134  0  3.801041  0  0  -0.085787  0  4.049729  0  0  -0.087384  0  4.071982  0  0  -0.096253  -0.084824  0  4.035711  0
C  C58  1  0.16972474  0.33736766  0.34264646  1  0  -0.117382  0  3.742467  0  0  -0.134506  0  3.985012  0  0  -0.137858  0  4.007761  0  0  -0.092094  -0.132935  0  3.970938  0
C  C59  1  0.66972354  0.66261891  0.65735338  1  0  -0.117389  0  3.742848  0  0  -0.134572  0  3.985418  0  0  -0.137923  0  4.008169  0  0  -0.092194  -0.133005  0  3.971349  0
C  C60  1  0.26590955  0.97420354  0.90712042  1  0  0.646075  0  3.837279  0  0  0.592443  0  4.143724  0  0  0.626252  0  4.137131  0  0  0.206317  0.569641  0  4.147147  0
C  C61  1  0.76589990  0.02582926  0.09288819  1  0  0.646183  0  3.837231  0  0  0.592555  0  4.143549  0  0  0.626351  0  4.136984  0  0  0.206362  0.569765  0  4.146966  0
C  C62  1  0.07107134  0.04283642  0.85239703  1  0  0.071362  0  3.598485  0  0  0.055668  0  3.836052  0  0  0.054945  0  3.850475  0  0  -0.001911  0.056355  0  3.825806  0
C  C63  1  0.57104954  0.95717535  0.14760119  1  0  0.071301  0  3.598943  0  0  0.055835  0  3.836151  0  0  0.055091  0  3.850569  0  0  -0.001829  0.056513  0  3.825895  0
C  C64  1  0.94572847  0.94227474  0.78408101  1  0  -0.202754  0  3.703896  0  0  -0.255623  0  3.956106  0  0  -0.256917  0  3.968271  0  0  -0.164535  -0.254834  0  3.947897  0
C  C65  1  0.44568113  0.05772703  0.21591886  1  0  -0.202923  0  3.703926  0  0  -0.256006  0  3.956116  0  0  -0.257216  0  3.9682  0  0  -0.164561  -0.255203  0  3.947858  0
C  C66  1  0.86427234  0.01542466  0.71306393  1  0  0.092858  0  3.756223  0  0  0.116623  0  3.989706  0  0  0.11677  0  4.015192  0  0  -0.015792  0.116957  0  3.972475  0
C  C67  1  0.36424348  0.98456607  0.28693308  1  0  0.093029  0  3.75668  0  0  0.117126  0  3.989775  0  0  0.11721  0  4.015315  0  0  -0.015582  0.11745  0  3.972542  0
C  C68  1  0.01295572  0.00286732  0.64124501  1  0  -0.125946  0  3.761503  0  0  -0.144392  0  4.006199  0  0  -0.148133  0  4.029509  0  0  -0.093485  -0.14142  0  3.990266  0
C  C69  1  0.51292435  0.99711772  0.35874682  1  0  -0.1258  0  3.762021  0  0  -0.144416  0  4.006613  0  0  -0.148153  0  4.029947  0  0  -0.0936  -0.141446  0  3.99068  0
C  C70  1  0.94494142  0.07468143  0.57647823  1  0  -0.081866  0  3.805447  0  0  -0.093763  0  4.054052  0  0  -0.095252  0  4.075464  0  0  -0.099439  -0.093107  0  4.039217  0
C  C71  1  0.44492929  0.92530155  0.42351374  1  0  -0.081976  0  3.805569  0  0  -0.093835  0  4.054231  0  0  -0.095315  0  4.07566  0  0  -0.0994  -0.093178  0  4.039395  0
C  C72  1  0.72572892  0.16047542  0.58220763  1  0  -0.086891  0  3.797853  0  0  -0.1021  0  4.046159  0  0  -0.104494  0  4.067933  0  0  -0.100264  -0.100152  0  4.031585  0
C  C73  1  0.22570676  0.83950448  0.41778431  1  0  -0.086915  0  3.798194  0  0  -0.102128  0  4.046477  0  0  -0.104551  0  4.068241  0  0  -0.100269  -0.100185  0  4.03191  0
C  C74  1  0.57588480  0.17413840  0.65318859  1  0  -0.066181  0  3.803564  0  0  -0.080097  0  4.055526  0  0  -0.081535  0  4.077664  0  0  -0.095773  -0.078367  0  4.040162  0
C  C75  1  0.07586977  0.82584439  0.34680771  1  0  -0.066066  0  3.803943  0  0  -0.079955  0  4.055846  0  0  -0.081393  0  4.077995  0  0  -0.095703  -0.078233  0  4.040486  0
C  C76  1  0.64493877  0.10227181  0.71773903  1  0  -0.13507  0  3.74347  0  0  -0.15426  0  3.988832  0  0  -0.157399  0  4.009797  0  0  -0.099644  -0.152185  0  3.974294  0
C  C77  1  0.14491353  0.89771161  0.28225464  1  0  -0.13547  0  3.743477  0  0  -0.154791  0  3.988813  0  0  -0.157905  0  4.009761  0  0  -0.099849  -0.152703  0  3.974278  0
N  N78  1  0.35779413  0.38117362  0.10567253  1  0  -0.653808  0  3.087945  0  0  -0.600157  0  3.332392  0  0  -0.621214  0  3.331575  0  0  -0.627209  -0.585532  0  3.332837  0
N  N79  1  0.85781299  0.61883687  0.89432884  1  0  -0.653649  0  3.087688  0  0  -0.599988  0  3.332134  0  0  -0.62105  0  3.331315  0  0  -0.627076  -0.585354  0  3.33257  0
N  N80  1  0.88439791  0.13050854  0.90332940  1  0  -0.657193  0  3.108818  0  0  -0.602941  0  3.353768  0  0  -0.623868  0  3.352822  0  0  -0.63368  -0.588282  0  3.353795  0
N  N81  1  0.38439072  0.86950382  0.09666957  1  0  -0.657368  0  3.109054  0  0  -0.603056  0  3.353981  0  0  -0.623982  0  3.353033  0  0  -0.633902  -0.588396  0  3.354008  0
O  O82  1  0.87037985  0.44882079  0.03874306  1  0  -0.656422  0  2.052749  0  0  -0.578527  0  2.295763  0  0  -0.607919  0  2.285561  0  0  -0.32731  -0.558129  0  2.301928  0
O  O83  1  0.37037873  0.55121675  0.96126851  1  0  -0.656292  0  2.052378  0  0  -0.578397  0  2.295488  0  0  -0.607806  0  2.285317  0  0  -0.327271  -0.557994  0  2.301627  0
O  O84  1  0.90875714  0.66642362  0.10165404  1  0  -0.643091  0  1.939305  0  0  -0.589801  0  2.188654  0  0  -0.616056  0  2.178482  0  0  -0.330592  -0.57169  0  2.195081  0
O  O85  1  0.40873304  0.33361375  0.89835799  1  0  -0.642967  0  1.940141  0  0  -0.589568  0  2.189499  0  0  -0.615822  0  2.179332  0  0  -0.330459  -0.57147  0  2.19592  0
O  O86  1  0.36193258  0.05217776  0.96769550  1  0  -0.657007  0  2.062984  0  0  -0.583968  0  2.3116  0  0  -0.613328  0  2.301639  0  0  -0.330735  -0.563529  0  2.31763  0
O  O87  1  0.86193728  0.94783878  0.03230141  1  0  -0.657019  0  2.062205  0  0  -0.584112  0  2.311015  0  0  -0.613475  0  2.301049  0  0  -0.330754  -0.563667  0  2.317038  0
O  O88  1  0.33421584  0.84974547  0.88675938  1  0  -0.638412  0  1.943901  0  0  -0.577147  0  2.189958  0  0  -0.603493  0  2.178972  0  0  -0.324396  -0.55863  0  2.1968  0
O  O89  1  0.83420519  0.15025594  0.11324570  1  0  -0.638387  0  1.94444  0  0  -0.577219  0  2.190639  0  0  -0.603549  0  2.179656  0  0  -0.324465  -0.558717  0  2.197493  0
