# generated using pymatgen
data_ZnH7C9NO4
_symmetry_space_group_name_H-M   'P 1'
_cell_length_a   7.41173361
_cell_length_b   8.21619814
_cell_length_c   8.21619086
_cell_angle_alpha   116.53312764
_cell_angle_beta   102.45059057
_cell_angle_gamma   102.45082070
_symmetry_Int_Tables_number   1
_chemical_formula_structural   ZnH7C9NO4
_chemical_formula_sum   'Zn2 H14 C18 N2 O8'
_cell_volume   408.30240868
_cell_formula_units_Z   2
loop_
 _symmetry_equiv_pos_site_id
 _symmetry_equiv_pos_as_xyz
  1  'x, y, z'
loop_
 _atom_site_type_symbol
 _atom_site_label
 _atom_site_symmetry_multiplicity
 _atom_site_fract_x
 _atom_site_fract_y
 _atom_site_fract_z
 _atom_site_occupancy
 _atom_site_hle17_bader_spin_density
 _atom_site_hle17_ddec_charge
 _atom_site_hle17_ddec_spin_density
 _atom_site_hle17_ddec_sum_bond_order
 _atom_site_hle17_magmom
 _atom_site_hse06_10hf_bader_spin_density
 _atom_site_hse06_10hf_ddec_charge
 _atom_site_hse06_10hf_ddec_spin_density
 _atom_site_hse06_10hf_ddec_sum_bond_order
 _atom_site_hse06_10hf_magmom
 _atom_site_hse06_bader_spin_density
 _atom_site_hse06_ddec_charge
 _atom_site_hse06_ddec_spin_density
 _atom_site_hse06_ddec_sum_bond_order
 _atom_site_hse06_magmom
 _atom_site_pbe_bader_spin_density
 _atom_site_pbe_cm5_charge
 _atom_site_pbe_ddec_charge
 _atom_site_pbe_ddec_spin_density
 _atom_site_pbe_ddec_sum_bond_order
 _atom_site_pbe_magmom
Zn  Zn0  1  0.74999996  0.91630007  0.08370190  1  0  1.130011  0  1.706498  0  0  0.961166  0  2.152283  0  0  1.009549  0  2.096487  0  0  0.707075  0.927574  0  2.19037  0
Zn  Zn1  1  0.24999949  0.08369704  0.91629936  1  0  1.129961  0  1.706593  0  0  0.961126  0  2.15239  0  0  1.009502  0  2.096595  0  0  0.707027  0.927525  0  2.190478  0
H  H2  1  0.25000559  0.50689485  0.49311012  1  0  0.119401  0  0.908164  0  0  0.133601  0  0.961961  0  0  0.136657  0  0.959244  0  0  0.120135  0.131376  0  0.963882  0
H  H3  1  0.74999764  0.49310523  0.50689196  1  0  0.119375  0  0.908209  0  0  0.133584  0  0.961997  0  0  0.136641  0  0.95928  0  0  0.120135  0.13136  0  0.963919  0
H  H4  1  0.11643520  0.38569016  0.05251417  1  0  0.13921  0  0.94893  0  0  0.160299  0  1.007061  0  0  0.162427  0  1.005996  0  0  0.101698  0.158711  0  1.007879  0
H  H5  1  0.38356292  0.94748029  0.61430365  1  0  0.139219  0  0.948921  0  0  0.1603  0  1.007052  0  0  0.162426  0  1.005998  0  0  0.101684  0.15871  0  1.007871  0
H  H6  1  0.88356003  0.61430689  0.94748140  1  0  0.139216  0  0.948973  0  0  0.160311  0  1.007079  0  0  0.162436  0  1.006026  0  0  0.101716  0.158723  0  1.007897  0
H  H7  1  0.61643990  0.05252268  0.38569722  1  0  0.13918  0  0.948941  0  0  0.160284  0  1.007054  0  0  0.162411  0  1.006  0  0  0.101692  0.158696  0  1.007872  0
H  H8  1  0.20470006  0.62931290  0.10145502  1  0  0.131978  0  0.964275  0  0  0.152908  0  1.019898  0  0  0.154565  0  1.019918  0  0  0.097704  0.151686  0  1.019934  0
H  H9  1  0.29529969  0.89853941  0.37068261  1  0  0.131907  0  0.964335  0  0  0.152847  0  1.01994  0  0  0.154504  0  1.019964  0  0  0.09768  0.151626  0  1.019976  0
H  H10  1  0.79529757  0.37068709  0.89854232  1  0  0.132002  0  0.964244  0  0  0.152929  0  1.01987  0  0  0.154588  0  1.019889  0  0  0.097722  0.151707  0  1.019906  0
H  H11  1  0.70470351  0.10146068  0.62931703  1  0  0.131961  0  0.964272  0  0  0.152885  0  1.019908  0  0  0.154542  0  1.01993  0  0  0.097686  0.151664  0  1.019943  0
H  H12  1  0.37183762  0.52408207  0.16560295  1  0  0.131747  0  0.957122  0  0  0.150559  0  1.021297  0  0  0.151581  0  1.022449  0  0  0.097651  0.149822  0  1.020523  0
H  H13  1  0.12816535  0.83439687  0.47591450  1  0  0.131773  0  0.957126  0  0  0.150566  0  1.021316  0  0  0.151589  0  1.022467  0  0  0.097671  0.149831  0  1.020541  0
H  H14  1  0.62816422  0.47591799  0.83439885  1  0  0.131791  0  0.957131  0  0  0.1506  0  1.021298  0  0  0.151624  0  1.022447  0  0  0.097669  0.149863  0  1.020524  0
H  H15  1  0.87183787  0.16560321  0.52408636  1  0  0.131759  0  0.957125  0  0  0.150575  0  1.0213  0  0  0.151599  0  1.022449  0  0  0.097659  0.149838  0  1.020525  0
C  C16  1  0.29570230  0.73691406  0.86999881  1  0  0.696615  0  3.864121  0  0  0.640862  0  4.1599  0  0  0.677947  0  4.149481  0  0  0.220077  0.615634  0  4.166417  0
C  C17  1  0.20429914  0.13000681  0.26308881  1  0  0.696623  0  3.864232  0  0  0.640891  0  4.15996  0  0  0.677976  0  4.149539  0  0  0.220091  0.615663  0  4.166476  0
C  C18  1  0.70430204  0.26308891  0.13001451  1  0  0.696454  0  3.86412  0  0  0.64084  0  4.159722  0  0  0.677924  0  4.149305  0  0  0.220085  0.615612  0  4.166237  0
C  C19  1  0.79569174  0.86998147  0.73690930  1  0  0.696498  0  3.864082  0  0  0.640871  0  4.159683  0  0  0.677956  0  4.149265  0  0  0.220108  0.615642  0  4.166196  0
C  C20  1  0.26035051  0.52270037  0.76398874  1  0  -0.169744  0  3.691879  0  0  -0.151133  0  3.936659  0  0  -0.164819  0  3.956139  0  0  -0.013567  -0.142705  0  3.924082  0
C  C21  1  0.23965012  0.23601684  0.47730244  1  0  -0.169776  0  3.691877  0  0  -0.151172  0  3.936653  0  0  -0.16486  0  3.956134  0  0  -0.013556  -0.142742  0  3.924076  0
C  C22  1  0.73964208  0.47730098  0.23600950  1  0  -0.1697  0  3.691796  0  0  -0.151154  0  3.936607  0  0  -0.164837  0  3.956083  0  0  -0.013593  -0.142724  0  3.924029  0
C  C23  1  0.76035359  0.76398470  0.52269794  1  0  -0.169678  0  3.691827  0  0  -0.151098  0  3.936569  0  0  -0.164782  0  3.956045  0  0  -0.013573  -0.142669  0  3.923992  0
C  C24  1  0.25000154  0.42897995  0.57102877  1  0  0.026276  0  3.65985  0  0  -0.021099  0  3.923898  0  0  -0.00977  0  3.934058  0  0  -0.048176  -0.028433  0  3.917237  0
C  C25  1  0.74999892  0.57102008  0.42897399  1  0  0.026296  0  3.659739  0  0  -0.021084  0  3.923801  0  0  -0.009753  0  3.933958  0  0  -0.048143  -0.028418  0  3.917141  0
C  C26  1  0.25078215  0.41603371  0.85834172  1  0  0.329169  0  3.674223  0  0  0.320642  0  3.925272  0  0  0.333698  0  3.942638  0  0  0.134799  0.311977  0  3.913451  0
C  C27  1  0.24921912  0.14166007  0.58396743  1  0  0.329223  0  3.674237  0  0  0.32069  0  3.925286  0  0  0.333748  0  3.94265  0  0  0.134821  0.312023  0  3.913464  0
C  C28  1  0.74922068  0.58396926  0.14165915  1  0  0.329193  0  3.674157  0  0  0.320642  0  3.925252  0  0  0.333698  0  3.942619  0  0  0.13483  0.311977  0  3.913429  0
C  C29  1  0.75077890  0.85833703  0.41602990  1  0  0.329234  0  3.674168  0  0  0.320721  0  3.925188  0  0  0.333778  0  3.942552  0  0  0.134874  0.312058  0  3.913364  0
C  C30  1  0.23513299  0.49456972  0.05564053  1  0  -0.391054  0  3.670264  0  0  -0.474856  0  3.908165  0  0  -0.478309  0  3.913802  0  0  -0.244108  -0.472246  0  3.904188  0
C  C31  1  0.26486905  0.94435921  0.50542707  1  0  -0.391028  0  3.670276  0  0  -0.474801  0  3.908142  0  0  -0.478259  0  3.913779  0  0  -0.244107  -0.472191  0  3.904166  0
C  C32  1  0.76486466  0.50543026  0.94435925  1  0  -0.391135  0  3.670329  0  0  -0.474921  0  3.908225  0  0  -0.478378  0  3.913858  0  0  -0.244177  -0.472312  0  3.904248  0
C  C33  1  0.73513466  0.05564233  0.49457332  1  0  -0.391047  0  3.670184  0  0  -0.474876  0  3.908066  0  0  -0.478334  0  3.913701  0  0  -0.244135  -0.472266  0  3.904088  0
N  N34  1  0.25000220  0.23167153  0.76832744  1  0  -0.443874  0  3.220868  0  0  -0.364235  0  3.484406  0  0  -0.387268  0  3.497086  0  0  -0.324988  -0.348807  0  3.475453  0
N  N35  1  0.75000012  0.76832998  0.23167268  1  0  -0.443931  0  3.220965  0  0  -0.364272  0  3.484499  0  0  -0.387311  0  3.497187  0  0  -0.325018  -0.348846  0  3.475546  0
O  O36  1  0.42848996  0.84406128  0.03712617  1  0  -0.648047  0  2.047813  0  0  -0.590833  0  2.309021  0  0  -0.617583  0  2.297279  0  0  -0.311936  -0.572064  0  2.316505  0
O  O37  1  0.07151398  0.96287736  0.15594088  1  0  -0.648099  0  2.047892  0  0  -0.590858  0  2.309031  0  0  -0.617606  0  2.297285  0  0  -0.311941  -0.57209  0  2.316521  0
O  O38  1  0.57150571  0.15593724  0.96286405  1  0  -0.648066  0  2.047473  0  0  -0.590886  0  2.308592  0  0  -0.61764  0  2.296855  0  0  -0.311983  -0.572109  0  2.31607  0
O  O39  1  0.92849223  0.03713146  0.84406082  1  0  -0.648074  0  2.047393  0  0  -0.590898  0  2.308519  0  0  -0.617652  0  2.296777  0  0  -0.311974  -0.572133  0  2.31602  0
O  O40  1  0.19047589  0.79658881  0.77942573  1  0  -0.635788  0  2.051879  0  0  -0.563183  0  2.319254  0  0  -0.594104  0  2.306979  0  0  -0.309355  -0.541685  0  2.326952  0
O  O41  1  0.30952543  0.22057325  0.20340938  1  0  -0.635768  0  2.051879  0  0  -0.563183  0  2.319261  0  0  -0.594104  0  2.306983  0  0  -0.309355  -0.541685  0  2.326959  0
O  O42  1  0.80951982  0.20340970  0.22056815  1  0  -0.635613  0  2.052036  0  0  -0.563053  0  2.319343  0  0  -0.593972  0  2.307067  0  0  -0.309286  -0.541561  0  2.327045  0
O  O43  1  0.69047879  0.77942974  0.79659298  1  0  -0.635649  0  2.052085  0  0  -0.563104  0  2.31942  0  0  -0.594021  0  2.307142  0  0  -0.309318  -0.54161  0  2.327123  0
