# generated using pymatgen
data_ZnH32C25(NO)4
_symmetry_space_group_name_H-M   'P 1'
_cell_length_a   6.92676383
_cell_length_b   10.87482396
_cell_length_c   16.17947805
_cell_angle_alpha   77.81851629
_cell_angle_beta   86.74759514
_cell_angle_gamma   87.34802371
_symmetry_Int_Tables_number   1
_chemical_formula_structural   ZnH32C25(NO)4
_chemical_formula_sum   'Zn2 H64 C50 N8 O8'
_cell_volume   1188.66201801
_cell_formula_units_Z   2
loop_
 _symmetry_equiv_pos_site_id
 _symmetry_equiv_pos_as_xyz
  1  'x, y, z'
loop_
 _atom_site_type_symbol
 _atom_site_label
 _atom_site_symmetry_multiplicity
 _atom_site_fract_x
 _atom_site_fract_y
 _atom_site_fract_z
 _atom_site_occupancy
 _atom_site_hle17_bader_spin_density
 _atom_site_hle17_ddec_charge
 _atom_site_hle17_ddec_spin_density
 _atom_site_hle17_ddec_sum_bond_order
 _atom_site_hle17_magmom
 _atom_site_hse06_10hf_bader_spin_density
 _atom_site_hse06_10hf_ddec_charge
 _atom_site_hse06_10hf_ddec_spin_density
 _atom_site_hse06_10hf_ddec_sum_bond_order
 _atom_site_hse06_10hf_magmom
 _atom_site_hse06_bader_spin_density
 _atom_site_hse06_ddec_charge
 _atom_site_hse06_ddec_spin_density
 _atom_site_hse06_ddec_sum_bond_order
 _atom_site_hse06_magmom
 _atom_site_pbe_bader_spin_density
 _atom_site_pbe_cm5_charge
 _atom_site_pbe_ddec_charge
 _atom_site_pbe_ddec_spin_density
 _atom_site_pbe_ddec_sum_bond_order
 _atom_site_pbe_magmom
Zn  Zn0  1  0.31320205  0.09870486  0.25445887  1  0  1.020482  0  1.866359  0  0  0.828095  0  2.353374  0  0  0.87491  0  2.29651  0  0  0.694342  0.795349  0  2.392585  0
Zn  Zn1  1  0.68679476  0.90129561  0.74553996  1  0  1.020434  0  1.866319  0  0  0.828069  0  2.353328  0  0  0.874873  0  2.296476  0  0  0.694322  0.795316  0  2.392524  0
H  H2  1  0.42268360  0.01285457  0.08144386  1  0  0.112547  0  0.998259  0  0  0.119666  0  1.061908  0  0  0.122736  0  1.060369  0  0  0.115507  0.117408  0  1.063153  0
H  H3  1  0.57731915  0.98714114  0.91855673  1  0  0.112541  0  0.998302  0  0  0.119656  0  1.061948  0  0  0.122726  0  1.06041  0  0  0.115504  0.117397  0  1.063202  0
H  H4  1  0.77800513  0.07859057  0.99126081  1  0  0.136954  0  0.998934  0  0  0.142692  0  1.065507  0  0  0.147031  0  1.061638  0  0  0.123704  0.139549  0  1.068373  0
H  H5  1  0.22199615  0.92140609  0.00874030  1  0  0.137004  0  0.998904  0  0  0.142746  0  1.065464  0  0  0.147084  0  1.061595  0  0  0.123727  0.139599  0  1.06833  0
H  H6  1  0.59412218  0.29465462  0.25471723  1  0  0.135897  0  0.971704  0  0  0.154346  0  1.034651  0  0  0.156909  0  1.033281  0  0  0.101056  0.152444  0  1.035706  0
H  H7  1  0.40587467  0.70534491  0.74528174  1  0  0.135854  0  0.971733  0  0  0.154306  0  1.034675  0  0  0.156868  0  1.033301  0  0  0.101049  0.152403  0  1.035733  0
H  H8  1  0.78153121  0.36693670  0.18378130  1  0  0.130887  0  0.942072  0  0  0.150482  0  1.001861  0  0  0.152463  0  1.001807  0  0  0.100494  0.149068  0  1.001914  0
H  H9  1  0.21846563  0.63306283  0.81621829  1  0  0.130884  0  0.942069  0  0  0.150474  0  1.001868  0  0  0.152454  0  1.001813  0  0  0.100477  0.149056  0  1.001924  0
H  H10  1  0.83743393  0.23059699  0.26127691  1  0  0.139374  0  0.960648  0  0  0.155823  0  1.025792  0  0  0.158266  0  1.024975  0  0  0.099549  0.154037  0  1.026455  0
H  H11  1  0.16256289  0.76940349  0.73872254  1  0  0.139389  0  0.960649  0  0  0.155848  0  1.025781  0  0  0.158292  0  1.024963  0  0  0.099558  0.154061  0  1.02644  0
H  H12  1  0.05857171  0.17802693  0.02369654  1  0  0.098216  0  0.912918  0  0  0.115351  0  0.971737  0  0  0.116553  0  0.970656  0  0  0.122763  0.114419  0  0.972572  0
H  H13  1  0.94142963  0.82196785  0.97630545  1  0  0.098226  0  0.912926  0  0  0.115399  0  0.97171  0  0  0.116605  0  0.970624  0  0  0.122741  0.114464  0  0.972548  0
H  H14  1  0.07441420  0.20646121  0.12633571  1  0  0.084616  0  0.947768  0  0  0.095483  0  1.021548  0  0  0.097032  0  1.019552  0  0  0.112668  0.094183  0  1.023219  0
H  H15  1  0.92558412  0.79353736  0.87366645  1  0  0.084678  0  0.947747  0  0  0.095535  0  1.021545  0  0  0.097095  0  1.019538  0  0  0.11268  0.094236  0  1.023209  0
H  H16  1  0.23902143  0.39442133  0.10322566  1  0  0.103178  0  0.95791  0  0  0.113092  0  1.01838  0  0  0.116269  0  1.01693  0  0  0.10177  0.110738  0  1.019619  0
H  H17  1  0.76097991  0.60557345  0.89677509  1  0  0.103134  0  0.957931  0  0  0.113035  0  1.018416  0  0  0.116211  0  1.016969  0  0  0.101756  0.11068  0  1.019652  0
H  H18  1  0.25694608  0.62388933  0.04199939  1  0  0.094436  0  0.949812  0  0  0.105791  0  1.010174  0  0  0.108863  0  1.008634  0  0  0.102576  0.103548  0  1.011407  0
H  H19  1  0.74305668  0.37610638  0.95799997  1  0  0.094441  0  0.949827  0  0  0.105786  0  1.010204  0  0  0.108857  0  1.008666  0  0  0.102571  0.103546  0  1.011434  0
H  H20  1  0.74289074  0.04304364  0.33283299  1  0  0.109583  0  0.968743  0  0  0.119615  0  1.03002  0  0  0.122014  0  1.029027  0  0  0.119888  0.117823  0  1.030914  0
H  H21  1  0.25711481  0.95695488  0.66716529  1  0  0.10959  0  0.968761  0  0  0.119625  0  1.030032  0  0  0.122024  0  1.029041  0  0  0.119895  0.117834  0  1.030921  0
H  H22  1  0.79058839  0.86565946  0.48269057  1  0  0.121803  0  0.975441  0  0  0.133308  0  1.035885  0  0  0.135613  0  1.035256  0  0  0.12458  0.131585  0  1.036561  0
H  H23  1  0.20940987  0.13434100  0.51730947  1  0  0.121792  0  0.975453  0  0  0.133295  0  1.035899  0  0  0.135601  0  1.035271  0  0  0.124582  0.131577  0  1.036565  0
H  H24  1  0.06305972  0.97848440  0.40358058  1  0  0.145613  0  0.949358  0  0  0.164476  0  1.011171  0  0  0.167248  0  1.009273  0  0  0.104624  0.162334  0  1.012854  0
H  H25  1  0.93694392  0.02152823  0.59642009  1  0  0.145633  0  0.949387  0  0  0.164472  0  1.011188  0  0  0.167252  0  1.009277  0  0  0.104639  0.162329  0  1.012876  0
H  H26  1  0.09847754  0.86110371  0.49817010  1  0  0.141687  0  0.974356  0  0  0.159539  0  1.036858  0  0  0.162108  0  1.035348  0  0  0.1007  0.157611  0  1.03812  0
H  H27  1  0.90152327  0.13890707  0.50183028  1  0  0.141686  0  0.974412  0  0  0.15952  0  1.036918  0  0  0.16209  0  1.035408  0  0  0.100676  0.157618  0  1.038148  0
H  H28  1  0.09971693  0.81784195  0.39818468  1  0  0.131215  0  0.935526  0  0  0.151841  0  0.996262  0  0  0.154029  0  0.995343  0  0  0.100223  0.150272  0  0.996983  0
H  H29  1  0.90027372  0.18216986  0.60181519  1  0  0.131199  0  0.935424  0  0  0.151779  0  0.996197  0  0  0.153974  0  0.995271  0  0  0.100188  0.150223  0  0.996904  0
H  H30  1  0.30194553  0.75742265  0.57207961  1  0  0.098666  0  0.944413  0  0  0.111797  0  1.008199  0  0  0.11315  0  1.00734  0  0  0.11793  0.110735  0  1.008881  0
H  H31  1  0.69804826  0.24258162  0.42791814  1  0  0.098692  0  0.944348  0  0  0.111795  0  1.008105  0  0  0.113148  0  1.007245  0  0  0.117952  0.11073  0  1.008789  0
H  H32  1  0.54999136  0.75489532  0.59397898  1  0  0.092449  0  0.938837  0  0  0.106406  0  1.00234  0  0  0.106962  0  1.002483  0  0  0.11624  0.105881  0  1.002381  0
H  H33  1  0.45000404  0.24510422  0.40601940  1  0  0.092521  0  0.938832  0  0  0.106433  0  1.002326  0  0  0.106991  0  1.002464  0  0  0.116255  0.105905  0  1.002366  0
H  H34  1  0.75392755  0.65721539  0.45377586  1  0  0.089466  0  0.956796  0  0  0.102026  0  1.017198  0  0  0.104903  0  1.015562  0  0  0.101848  0.099892  0  1.018567  0
H  H35  1  0.24606628  0.34278794  0.54622141  1  0  0.089488  0  0.956725  0  0  0.102024  0  1.017145  0  0  0.104916  0  1.01549  0  0  0.101858  0.099891  0  1.018508  0
H  H36  1  0.20491933  0.55356162  0.58144719  1  0  0.094355  0  0.973008  0  0  0.103703  0  1.03797  0  0  0.106646  0  1.036584  0  0  0.101858  0.101532  0  1.03912  0
H  H37  1  0.79507598  0.44644075  0.41855079  1  0  0.094321  0  0.973013  0  0  0.10369  0  1.037955  0  0  0.106632  0  1.03657  0  0  0.101832  0.101519  0  1.039104  0
H  H38  1  0.14194888  0.46809625  0.38422070  1  0  0.086468  0  0.953447  0  0  0.102423  0  1.016486  0  0  0.10379  0  1.017018  0  0  0.090724  0.101438  0  1.016155  0
H  H39  1  0.85804935  0.53190515  0.61577859  1  0  0.086451  0  0.953451  0  0  0.102416  0  1.016477  0  0  0.103785  0  1.017008  0  0  0.090724  0.101433  0  1.016148  0
H  H40  1  0.00339156  0.49330774  0.29383820  1  0  0.094368  0  0.932666  0  0  0.11535  0  0.987959  0  0  0.116745  0  0.988124  0  0  0.09823  0.114332  0  0.987917  0
H  H41  1  0.99661110  0.50669080  0.70616138  1  0  0.094319  0  0.932623  0  0  0.115301  0  0.987925  0  0  0.116692  0  0.988093  0  0  0.098209  0.114291  0  0.987871  0
H  H42  1  0.44648607  0.47022266  0.28315095  1  0  0.051976  0  0.955108  0  0  0.071725  0  1.018051  0  0  0.071673  0  1.019583  0  0  0.084075  0.07167  0  1.017113  0
H  H43  1  0.55351509  0.52977778  0.71684840  1  0  0.05199  0  0.955132  0  0  0.071758  0  1.018059  0  0  0.071707  0  1.019589  0  0  0.084109  0.071701  0  1.01712  0
H  H44  1  0.29429815  0.51893637  0.19842008  1  0  0.058658  0  0.945386  0  0  0.079254  0  1.005472  0  0  0.079592  0  1.006157  0  0  0.086933  0.078966  0  1.005055  0
H  H45  1  0.70570015  0.48106315  0.80157947  1  0  0.058636  0  0.945395  0  0  0.079248  0  1.005477  0  0  0.079589  0  1.006161  0  0  0.086901  0.07896  0  1.005062  0
H  H46  1  0.36349434  0.65917173  0.33912383  1  0  0.051076  0  0.954796  0  0  0.068897  0  1.020191  0  0  0.068791  0  1.022545  0  0  0.077607  0.068907  0  1.018619  0
H  H47  1  0.63650392  0.34082873  0.66087559  1  0  0.051072  0  0.954785  0  0  0.068906  0  1.020173  0  0  0.068801  0  1.022529  0  0  0.077616  0.068915  0  1.018604  0
H  H48  1  0.18303958  0.70734638  0.26513541  1  0  0.057457  0  0.963404  0  0  0.079525  0  1.023652  0  0  0.079363  0  1.025157  0  0  0.084384  0.079534  0  1.022707  0
H  H49  1  0.81696157  0.29265405  0.73486333  1  0  0.057459  0  0.963435  0  0  0.079517  0  1.023696  0  0  0.079371  0  1.025181  0  0  0.084382  0.079525  0  1.022752  0
H  H50  1  0.42177900  0.74626272  0.14643881  1  0  0.057655  0  0.9388  0  0  0.076338  0  1.001609  0  0  0.077192  0  1.001931  0  0  0.08301  0.075682  0  1.001437  0
H  H51  1  0.57822369  0.25373488  0.85356090  1  0  0.057699  0  0.938729  0  0  0.07638  0  1.001543  0  0  0.077232  0  1.001865  0  0  0.083013  0.075723  0  1.001376  0
H  H52  1  0.47880133  0.82698300  0.22417428  1  0  0.057143  0  0.953909  0  0  0.077293  0  1.015957  0  0  0.077739  0  1.016704  0  0  0.083127  0.076824  0  1.015668  0
H  H53  1  0.52120426  0.17301457  0.77582475  1  0  0.057124  0  0.953926  0  0  0.077273  0  1.015982  0  0  0.077719  0  1.016726  0  0  0.083107  0.076808  0  1.015687  0
H  H54  1  0.68002783  0.58877300  0.18282651  1  0  0.053213  0  0.945095  0  0  0.073807  0  1.002171  0  0  0.0746  0  1.002574  0  0  0.083142  0.073207  0  1.001924  0
H  H55  1  0.31997484  0.41122555  0.81717060  1  0  0.053236  0  0.945109  0  0  0.073856  0  1.002156  0  0  0.07465  0  1.002558  0  0  0.083169  0.073254  0  1.001914  0
H  H56  1  0.71343802  0.63327134  0.27956366  1  0  0.047587  0  0.951997  0  0  0.066283  0  1.017689  0  0  0.066389  0  1.018766  0  0  0.079157  0.066114  0  1.017022  0
H  H57  1  0.28656480  0.36672249  0.72043658  1  0  0.047625  0  0.952016  0  0  0.066325  0  1.017705  0  0  0.066432  0  1.018782  0  0  0.079164  0.066168  0  1.01702  0
H  H58  1  0.97154792  0.70744671  0.16307526  1  0  0.061538  0  0.946457  0  0  0.079929  0  1.009108  0  0  0.08053  0  1.009952  0  0  0.085447  0.079418  0  1.008628  0
H  H59  1  0.02845619  0.29255181  0.83692614  1  0  0.061575  0  0.946421  0  0  0.079975  0  1.009066  0  0  0.080575  0  1.009914  0  0  0.085464  0.079461  0  1.008589  0
H  H60  1  0.79492311  0.80631622  0.10587655  1  0  0.059012  0  0.940871  0  0  0.079516  0  1.001197  0  0  0.07991  0  1.002131  0  0  0.085478  0.079158  0  1.00063  0
H  H61  1  0.20508100  0.19368229  0.89412547  1  0  0.059053  0  0.940892  0  0  0.079576  0  1.001187  0  0  0.079976  0  1.002116  0  0  0.085475  0.079215  0  1.000624  0
H  H62  1  0.87890502  0.81683065  0.28852272  1  0  0.079986  0  0.95158  0  0  0.095531  0  1.01689  0  0  0.097069  0  1.016842  0  0  0.09023  0.094341  0  1.017128  0
H  H63  1  0.12109192  0.18316605  0.71147973  1  0  0.080063  0  0.951574  0  0  0.095611  0  1.016869  0  0  0.09715  0  1.016816  0  0  0.090265  0.094418  0  1.017105  0
H  H64  1  0.73873600  0.92498128  0.21970829  1  0  0.090449  0  0.974154  0  0  0.105187  0  1.039791  0  0  0.106284  0  1.041265  0  0  0.094583  0.104397  0  1.038851  0
H  H65  1  0.26126241  0.07501446  0.78029426  1  0  0.090467  0  0.974152  0  0  0.105269  0  1.039696  0  0  0.10634  0  1.041198  0  0  0.094613  0.104475  0  1.03876  0
C  C66  1  0.53654073  0.07230264  0.09155367  1  0  -0.012307  0  3.76377  0  0  -0.047567  0  4.033488  0  0  -0.046236  0  4.053412  0  0  -0.013746  -0.048444  0  4.020068  0
C  C67  1  0.46346344  0.92769400  0.90844738  1  0  -0.012247  0  3.763702  0  0  -0.047494  0  4.033405  0  0  -0.046161  0  4.053326  0  0  -0.013721  -0.048376  0  4.019994  0
C  C68  1  0.70900855  0.10263531  0.04798409  1  0  -0.064882  0  3.665553  0  0  -0.109768  0  3.930297  0  0  -0.108413  0  3.948137  0  0  -0.001598  -0.110619  0  3.918358  0
C  C69  1  0.29099276  0.89736041  0.95201777  1  0  -0.064963  0  3.665553  0  0  -0.10986  0  3.930304  0  0  -0.108506  0  3.948144  0  0  -0.001628  -0.110711  0  3.91837  0
C  C70  1  0.67975929  0.19724614  0.15806902  1  0  0.378364  0  3.67015  0  0  0.354939  0  3.932637  0  0  0.371383  0  3.946875  0  0  0.219284  0.344092  0  3.922634  0
C  C71  1  0.32023759  0.80275245  0.84193131  1  0  0.378446  0  3.670155  0  0  0.35492  0  3.932776  0  0  0.371362  0  3.947016  0  0  0.219284  0.344067  0  3.922775  0
C  C72  1  0.72605136  0.27625994  0.21804232  1  0  -0.402011  0  3.690649  0  0  -0.48151  0  3.926607  0  0  -0.486126  0  3.931626  0  0  -0.236449  -0.478073  0  3.923082  0
C  C73  1  0.27394545  0.72374053  0.78195775  1  0  -0.401997  0  3.690645  0  0  -0.48146  0  3.926624  0  0  -0.486071  0  3.931642  0  0  -0.23643  -0.478022  0  3.923104  0
C  C74  1  0.99025615  0.23036390  0.06934492  1  0  -0.033652  0  3.642622  0  0  -0.101728  0  3.890333  0  0  -0.097408  0  3.901154  0  0  -0.043687  -0.10441  0  3.882932  0
C  C75  1  0.00974223  0.76963279  0.93065626  1  0  -0.033828  0  3.642687  0  0  -0.101935  0  3.890455  0  0  -0.09762  0  3.90127  0  0  -0.043714  -0.104617  0  3.883051  0
C  C76  1  0.99126341  0.37023127  0.03404369  1  0  0.062973  0  3.765644  0  0  0.083798  0  4.003471  0  0  0.082484  0  4.029178  0  0  -0.01378  0.084654  0  3.985965  0
C  C77  1  0.00873935  0.62976445  0.96595567  1  0  0.062859  0  3.765659  0  0  0.083608  0  4.003608  0  0  0.082289  0  4.029323  0  0  -0.01383  0.084472  0  3.986087  0
C  C78  1  0.13552025  0.44086088  0.05717366  1  0  -0.120046  0  3.752544  0  0  -0.136392  0  3.994417  0  0  -0.139489  0  4.016425  0  0  -0.092694  -0.134223  0  3.979534  0
C  C79  1  0.86448106  0.55913485  0.94282573  1  0  -0.119893  0  3.752403  0  0  -0.136186  0  3.994297  0  0  -0.13928  0  4.016304  0  0  -0.092662  -0.134014  0  3.979404  0
C  C80  1  0.14440451  0.56958301  0.02328224  1  0  -0.111892  0  3.760482  0  0  -0.13438  0  4.010939  0  0  -0.136656  0  4.032267  0  0  -0.09268  -0.132756  0  3.996471  0
C  C81  1  0.85559831  0.43041083  0.97671614  1  0  -0.112122  0  3.760424  0  0  -0.134645  0  4.010894  0  0  -0.136923  0  4.032218  0  0  -0.09278  -0.13302  0  3.996429  0
C  C82  1  0.63651576  0.98676060  0.37389452  1  0  0.010608  0  3.74683  0  0  -0.027454  0  4.022498  0  0  -0.024812  0  4.04196  0  0  -0.003713  -0.029158  0  4.009408  0
C  C83  1  0.36348540  0.01323983  0.62610421  1  0  0.010489  0  3.746873  0  0  -0.027585  0  4.022564  0  0  -0.024943  0  4.042021  0  0  -0.003763  -0.029288  0  4.009471  0
C  C84  1  0.66465607  0.89820464  0.44644607  1  0  -0.06412  0  3.674661  0  0  -0.108852  0  3.941066  0  0  -0.107668  0  3.960365  0  0  -0.000928  -0.10968  0  3.928365  0
C  C85  1  0.33534509  0.10179580  0.55355328  1  0  -0.064022  0  3.674673  0  0  -0.108749  0  3.94109  0  0  -0.107566  0  3.960393  0  0  -0.000895  -0.109589  0  3.928388  0
C  C86  1  0.35156867  0.91150367  0.41952373  1  0  0.384934  0  3.678892  0  0  0.361295  0  3.943752  0  0  0.378002  0  3.957856  0  0  0.223278  0.350329  0  3.933713  0
C  C87  1  0.64843236  0.08850053  0.58047448  1  0  0.384802  0  3.679184  0  0  0.361308  0  3.943812  0  0  0.378029  0  3.957904  0  0  0.223271  0.350327  0  3.933803  0
C  C88  1  0.14155642  0.89088964  0.43083558  1  0  -0.412593  0  3.710698  0  0  -0.496607  0  3.949653  0  0  -0.50107  0  3.954862  0  0  -0.239166  -0.493241  0  3.946179  0
C  C89  1  0.85844155  0.10911928  0.56916451  1  0  -0.412603  0  3.710688  0  0  -0.496539  0  3.94949  0  0  -0.501037  0  3.954714  0  0  -0.239128  -0.493195  0  3.945968  0
C  C90  1  0.44953157  0.74645821  0.54548894  1  0  -0.045352  0  3.633387  0  0  -0.108264  0  3.872758  0  0  -0.104205  0  3.88381  0  0  -0.044854  -0.110735  0  3.865154  0
C  C91  1  0.55046371  0.25354510  0.45450891  1  0  -0.04549  0  3.633492  0  0  -0.108166  0  3.872615  0  0  -0.104107  0  3.883667  0  0  -0.044852  -0.110637  0  3.865003  0
C  C92  1  0.47647026  0.61970123  0.52079687  1  0  0.071909  0  3.730496  0  0  0.09187  0  3.9674  0  0  0.090991  0  3.992101  0  0  -0.010118  0.092406  0  3.950622  0
C  C93  1  0.52352209  0.38030305  0.47920091  1  0  0.071939  0  3.730523  0  0  0.091752  0  3.967542  0  0  0.09087  0  3.992246  0  0  -0.01017  0.092291  0  3.950758  0
C  C94  1  0.64168071  0.58866822  0.47436229  1  0  -0.105187  0  3.750717  0  0  -0.12694  0  3.999748  0  0  -0.12865  0  4.02008  0  0  -0.088419  -0.125684  0  3.985963  0
C  C95  1  0.35831312  0.41133512  0.52563374  1  0  -0.105185  0  3.750645  0  0  -0.126885  0  3.999712  0  0  -0.128605  0  4.020039  0  0  -0.088409  -0.12563  0  3.98592  0
C  C96  1  0.33507281  0.52973153  0.54603735  1  0  -0.11633  0  3.747715  0  0  -0.133736  0  3.992442  0  0  -0.136576  0  4.013706  0  0  -0.088076  -0.131736  0  3.978061  0
C  C97  1  0.66491960  0.47027087  0.45395946  1  0  -0.116262  0  3.747614  0  0  -0.133656  0  3.992387  0  0  -0.136492  0  4.013644  0  0  -0.08803  -0.131658  0  3.978005  0
C  C98  1  0.14483721  0.31217751  0.32309515  1  0  0.686011  0  3.878457  0  0  0.641376  0  4.18108  0  0  0.674417  0  4.173365  0  0  0.199143  0.618926  0  4.185569  0
C  C99  1  0.85516687  0.68782195  0.67690550  1  0  0.685852  0  3.878558  0  0  0.641213  0  4.181191  0  0  0.674255  0  4.173478  0  0  0.199071  0.618758  0  4.185691  0
C  C100  1  0.14331550  0.45390252  0.31880945  1  0  -0.26705  0  3.687393  0  0  -0.307063  0  3.939637  0  0  -0.312947  0  3.949055  0  0  -0.170395  -0.30291  0  3.932936  0
C  C101  1  0.85668276  0.54609794  0.68118996  1  0  -0.266953  0  3.687255  0  0  -0.306968  0  3.939523  0  0  -0.312859  0  3.948957  0  0  -0.170376  -0.302826  0  3.932829  0
C  C102  1  0.31004204  0.52215453  0.26519999  1  0  -0.077467  0  3.707557  0  0  -0.11741  0  3.966138  0  0  -0.11715  0  3.980268  0  0  -0.171589  -0.117447  0  3.95634  0
C  C103  1  0.68995914  0.47784496  0.73480011  1  0  -0.077448  0  3.707568  0  0  -0.117418  0  3.96617  0  0  -0.117159  0  3.980307  0  0  -0.171576  -0.117451  0  3.956372  0
C  C104  1  0.32535920  0.65831951  0.27395319  1  0  -0.111364  0  3.689377  0  0  -0.150853  0  3.949711  0  0  -0.151894  0  3.964726  0  0  -0.171686  -0.149946  0  3.939279  0
C  C105  1  0.67464198  0.34167999  0.72604629  1  0  -0.111371  0  3.689384  0  0  -0.150875  0  3.94977  0  0  -0.151924  0  3.964781  0  0  -0.171706  -0.149966  0  3.939343  0
C  C106  1  0.47359687  0.73197982  0.21108430  1  0  -0.101324  0  3.676822  0  0  -0.13939  0  3.933606  0  0  -0.140326  0  3.948422  0  0  -0.170219  -0.138556  0  3.92327  0
C  C107  1  0.52640724  0.26801871  0.78891463  1  0  -0.101312  0  3.676726  0  0  -0.139382  0  3.933537  0  0  -0.140319  0  3.948357  0  0  -0.170208  -0.138552  0  3.923207  0
C  C108  1  0.67751315  0.67063506  0.21306590  1  0  -0.105111  0  3.686015  0  0  -0.140763  0  3.942697  0  0  -0.141741  0  3.957246  0  0  -0.168766  -0.139884  0  3.932503  0
C  C109  1  0.32248810  0.32936255  0.78693384  1  0  -0.105219  0  3.686076  0  0  -0.140907  0  3.942779  0  0  -0.141886  0  3.95733  0  0  -0.16882  -0.140037  0  3.932588  0
C  C110  1  0.83484889  0.76062999  0.17033471  1  0  -0.087774  0  3.708658  0  0  -0.131295  0  3.971509  0  0  -0.131469  0  3.985557  0  0  -0.170967  -0.130958  0  3.961651  0
C  C111  1  0.16515522  0.23936853  0.82966669  1  0  -0.087812  0  3.708726  0  0  -0.131365  0  3.971593  0  0  -0.131543  0  3.985642  0  0  -0.170966  -0.131028  0  3.961743  0
C  C112  1  0.86630464  0.86069059  0.22100566  1  0  -0.272776  0  3.713975  0  0  -0.309363  0  3.962041  0  0  -0.315953  0  3.972728  0  0  -0.172643  -0.304745  0  3.954552  0
C  C113  1  0.13369230  0.13930611  0.77899740  1  0  -0.272971  0  3.714099  0  0  -0.30956  0  3.962097  0  0  -0.316131  0  3.972795  0  0  -0.172731  -0.304942  0  3.954601  0
C  C114  1  0.04057439  0.94227333  0.19383717  1  0  0.694444  0  3.855401  0  0  0.644502  0  4.160737  0  0  0.677875  0  4.153212  0  0  0.204287  0.62175  0  4.165151  0
C  C115  1  0.95942097  0.05772714  0.80616788  1  0  0.694466  0  3.855354  0  0  0.64455  0  4.160667  0  0  0.677925  0  4.153132  0  0  0.204312  0.621806  0  4.16507  0
N  N116  1  0.51966814  0.13120430  0.15993006  1  0  -0.457226  0  3.256533  0  0  -0.378142  0  3.553125  0  0  -0.399058  0  3.562563  0  0  -0.364089  -0.363917  0  3.546462  0
N  N117  1  0.48033021  0.86879334  0.84006975  1  0  -0.457302  0  3.25661  0  0  -0.378191  0  3.553238  0  0  -0.399107  0  3.562674  0  0  -0.364107  -0.36395  0  3.546542  0
N  N118  1  0.79739431  0.18052330  0.09072714  1  0  -0.105008  0  3.530743  0  0  -0.01262  0  3.743129  0  0  -0.028475  0  3.769081  0  0  -0.239067  -0.002118  0  3.725441  0
N  N119  1  0.20260552  0.81947338  0.90927401  1  0  -0.105003  0  3.530703  0  0  -0.012569  0  3.74312  0  0  -0.028423  0  3.769077  0  0  -0.23908  -0.002072  0  3.725437  0
N  N120  1  0.44141801  0.99450990  0.35763045  1  0  -0.457202  0  3.237569  0  0  -0.381093  0  3.537687  0  0  -0.402517  0  3.547903  0  0  -0.361031  -0.366503  0  3.530445  0
N  N121  1  0.55858591  0.00549428  0.64236646  1  0  -0.457071  0  3.237509  0  0  -0.381052  0  3.537647  0  0  -0.402472  0  3.547841  0  0  -0.361032  -0.366461  0  3.530408  0
N  N122  1  0.48475546  0.85139743  0.47408676  1  0  -0.10888  0  3.540286  0  0  -0.018579  0  3.75341  0  0  -0.034633  0  3.779753  0  0  -0.240311  -0.007974  0  3.735505  0
N  N123  1  0.51524415  0.14860584  0.52591285  1  0  -0.108794  0  3.540392  0  0  -0.018606  0  3.753449  0  0  -0.034664  0  3.779786  0  0  -0.240277  -0.007999  0  3.73555  0
O  O124  1  0.25289345  0.27451618  0.26442714  1  0  -0.67974  0  2.083017  0  0  -0.599972  0  2.368371  0  0  -0.628747  0  2.352034  0  0  -0.33926  -0.579692  0  2.378709  0
O  O125  1  0.74709748  0.72548718  0.73556772  1  0  -0.679631  0  2.083027  0  0  -0.599886  0  2.368428  0  0  -0.628657  0  2.35209  0  0  -0.339241  -0.579597  0  2.378751  0
O  O126  1  0.04705560  0.24188906  0.38008364  1  0  -0.651676  0  1.897512  0  0  -0.608295  0  2.128079  0  0  -0.630127  0  2.117973  0  0  -0.342851  -0.593068  0  2.134626  0
O  O127  1  0.95296442  0.75810930  0.61992111  1  0  -0.651647  0  1.897554  0  0  -0.608258  0  2.128119  0  0  -0.63009  0  2.118016  0  0  -0.342801  -0.593024  0  2.134659  0
O  O128  1  0.07291368  0.01489961  0.24610003  1  0  -0.690406  0  2.059508  0  0  -0.608698  0  2.348779  0  0  -0.637858  0  2.331622  0  0  -0.347136  -0.588258  0  2.359978  0
O  O129  1  0.92708175  0.98509897  0.75390528  1  0  -0.690419  0  2.059275  0  0  -0.608749  0  2.348561  0  0  -0.637907  0  2.331402  0  0  -0.347191  -0.588313  0  2.359753  0
O  O130  1  0.13886395  0.93830872  0.12751292  1  0  -0.615756  0  1.959628  0  0  -0.565496  0  2.193599  0  0  -0.588181  0  2.185104  0  0  -0.314433  -0.549667  0  2.199005  0
O  O131  1  0.86113123  0.06169740  0.87248949  1  0  -0.615679  0  1.959786  0  0  -0.565442  0  2.193774  0  0  -0.588129  0  2.185281  0  0  -0.314381  -0.549624  0  2.19918  0
