# generated using pymatgen
data_LaH35C20O9
_symmetry_space_group_name_H-M   'P 1'
_cell_length_a   8.48316419
_cell_length_b   8.88579211
_cell_length_c   15.30554976
_cell_angle_alpha   97.02808812
_cell_angle_beta   99.31393544
_cell_angle_gamma   98.13670154
_symmetry_Int_Tables_number   1
_chemical_formula_structural   LaH35C20O9
_chemical_formula_sum   'La2 H70 C40 O18'
_cell_volume   1114.52499355
_cell_formula_units_Z   2
loop_
 _symmetry_equiv_pos_site_id
 _symmetry_equiv_pos_as_xyz
  1  'x, y, z'
loop_
 _atom_site_type_symbol
 _atom_site_label
 _atom_site_symmetry_multiplicity
 _atom_site_fract_x
 _atom_site_fract_y
 _atom_site_fract_z
 _atom_site_occupancy
 _atom_site_pbe_bader_spin_density
 _atom_site_pbe_cm5_charge
 _atom_site_pbe_ddec_charge
 _atom_site_pbe_ddec_spin_density
 _atom_site_pbe_ddec_sum_bond_order
 _atom_site_pbe_magmom
La  La0  1  0.25317084  0.51623042  0.99991687  1  0  1.424767  1.92016  0  2.393251  0
La  La1  1  0.74683322  0.48377278  0.00008529  1  0  1.424762  1.920171  0  2.393391  0
H  H2  1  0.22261377  0.93454911  0.01293636  1  0  0.298639  0.349799  0  0.991227  0
H  H3  1  0.77737865  0.06544154  0.98705979  1  0  0.298644  0.349754  0  0.991211  0
H  H4  1  0.15072505  0.14676882  0.97682709  1  0  0.316662  0.409065  0  0.90992  0
H  H5  1  0.84926910  0.85323210  0.02317264  1  0  0.316661  0.409069  0  0.909945  0
H  H6  1  0.30911639  0.18614741  0.04658304  1  0  0.316593  0.409683  0  0.908122  0
H  H7  1  0.69087830  0.81385002  0.95341843  1  0  0.316582  0.409653  0  0.908161  0
H  H8  1  0.71190019  0.42137390  0.22503550  1  0  0.104009  0.116614  0  1.021087  0
H  H9  1  0.28809929  0.57862355  0.77496577  1  0  0.104027  0.116637  0  1.021018  0
H  H10  1  0.54419106  0.31557392  0.25912914  1  0  0.100974  0.11483  0  0.990841  0
H  H11  1  0.45580504  0.68442468  0.74087190  1  0  0.100994  0.114861  0  0.990807  0
H  H12  1  0.47902345  0.56612684  0.33147734  1  0  0.087798  0.076243  0  1.012001  0
H  H13  1  0.52097647  0.43387294  0.66852285  1  0  0.08778  0.07623  0  1.011953  0
H  H14  1  0.65866484  0.66347608  0.30544941  1  0  0.093891  0.092086  0  0.980306  0
H  H15  1  0.34133488  0.33652255  0.69455068  1  0  0.093888  0.092057  0  0.980303  0
H  H16  1  0.64316976  0.40729538  0.42302215  1  0  0.085502  0.076091  0  1.005227  0
H  H17  1  0.35682994  0.59270323  0.57697858  1  0  0.08549  0.076062  0  1.005156  0
H  H18  1  0.82211837  0.50316757  0.39670651  1  0  0.083884  0.069347  0  1.015587  0
H  H19  1  0.17788032  0.49683218  0.60329487  1  0  0.083899  0.069362  0  1.015521  0
H  H20  1  0.59003015  0.66017173  0.49717527  1  0  0.083256  0.070298  0  1.007325  0
H  H21  1  0.40996478  0.33982688  0.50282500  1  0  0.083248  0.07029  0  1.007317  0
H  H22  1  0.77088666  0.75347321  0.47142972  1  0  0.087632  0.081647  0  0.991078  0
H  H23  1  0.22911044  0.24652424  0.52857133  1  0  0.087634  0.081601  0  0.991117  0
H  H24  1  0.74778592  0.50048802  0.59089416  1  0  0.08788  0.081868  0  0.997054  0
H  H25  1  0.25221222  0.49950833  0.40910494  1  0  0.087851  0.081866  0  0.997004  0
H  H26  1  0.92823836  0.58567169  0.56123756  1  0  0.082588  0.064098  0  1.02343  0
H  H27  1  0.07175879  0.41432581  0.43876153  1  0  0.082607  0.064121  0  1.023467  0
H  H28  1  0.71202396  0.75643952  0.66660082  1  0  0.084076  0.074573  0  0.996062  0
H  H29  1  0.28797630  0.24355562  0.33340100  1  0  0.084064  0.074572  0  0.996057  0
H  H30  1  0.88707486  0.84484971  0.63247461  1  0  0.085876  0.076845  0  0.997081  0
H  H31  1  0.11292279  0.15514426  0.36752753  1  0  0.085906  0.076866  0  0.996943  0
H  H32  1  0.87639326  0.60017335  0.75774097  1  0  0.096871  0.101913  0  1.001489  0
H  H33  1  0.12360492  0.39981613  0.24225629  1  0  0.096858  0.101872  0  1.001374  0
H  H34  1  0.05193474  0.67695167  0.71941740  1  0  0.085914  0.070463  0  1.022555  0
H  H35  1  0.94806138  0.32304004  0.28058245  1  0  0.08591  0.07046  0  1.022565  0
H  H36  1  0.85568791  0.85743742  0.83473285  1  0  0.107191  0.129453  0  0.990549  0
H  H37  1  0.14431213  0.14254966  0.16526899  1  0  0.107246  0.129514  0  0.990499  0
H  H38  1  0.01792673  0.94474748  0.79045559  1  0  0.103223  0.118389  0  0.985115  0
H  H39  1  0.98207594  0.05524767  0.20954582  1  0  0.103236  0.118379  0  0.985227  0
H  H40  1  0.64278740  0.08437558  0.16114060  1  0  0.098212  0.115139  0  0.997746  0
H  H41  1  0.35720855  0.91562882  0.83885892  1  0  0.098251  0.11517  0  0.997718  0
H  H42  1  0.68781220  0.89525862  0.17098743  1  0  0.102121  0.121901  0  0.994381  0
H  H43  1  0.31218200  0.10474235  0.82901034  1  0  0.102125  0.121948  0  0.994333  0
H  H44  1  0.46354098  0.06029377  0.27434704  1  0  0.083233  0.066008  0  1.019886  0
H  H45  1  0.53645669  0.93970712  0.72565498  1  0  0.083229  0.065998  0  1.019833  0
H  H46  1  0.50372210  0.87309463  0.28424195  1  0  0.091863  0.084332  0  1.003133  0
H  H47  1  0.49627682  0.12690630  0.71575824  1  0  0.09186  0.084321  0  1.003141  0
H  H48  1  0.79757695  0.97655029  0.33979794  1  0  0.084775  0.074057  0  1.010818  0
H  H49  1  0.20242083  0.02345068  0.66020018  1  0  0.084775  0.074025  0  1.01084  0
H  H50  1  0.76216016  0.16436000  0.32794207  1  0  0.086144  0.079442  0  1.006105  0
H  H51  1  0.23783879  0.83564096  0.67205682  1  0  0.086145  0.079486  0  1.006082  0
H  H52  1  0.61184032  0.96212107  0.45204401  1  0  0.086978  0.078106  0  1.008311  0
H  H53  1  0.38816691  0.03787982  0.54795894  1  0  0.086969  0.078066  0  1.008334  0
H  H54  1  0.57404505  0.14839428  0.43945343  1  0  0.081958  0.064427  0  1.021038  0
H  H55  1  0.42595646  0.85160780  0.56054710  1  0  0.081955  0.064403  0  1.021107  0
H  H56  1  0.86993034  0.25373529  0.49615248  1  0  0.086354  0.080185  0  1.000374  0
H  H57  1  0.13007629  0.74626806  0.50384341  1  0  0.086337  0.080103  0  1.000395  0
H  H58  1  0.90731792  0.06690181  0.50890733  1  0  0.081405  0.067454  0  1.021531  0
H  H59  1  0.09268746  0.93310150  0.49109039  1  0  0.081414  0.067443  0  1.021507  0
H  H60  1  0.67609648  0.23433027  0.60466760  1  0  0.083172  0.0676  0  1.015197  0
H  H61  1  0.32391250  0.76567994  0.39533036  1  0  0.083167  0.067619  0  1.0152  0
H  H62  1  0.71602126  0.04895162  0.61797275  1  0  0.085409  0.07505  0  1.011149  0
H  H63  1  0.28398630  0.95105742  0.38202629  1  0  0.085402  0.075051  0  1.011127  0
H  H64  1  0.97099247  0.34302787  0.66496226  1  0  0.089664  0.083624  0  0.994576  0
H  H65  1  0.02901728  0.65698002  0.33503689  1  0  0.089667  0.08363  0  0.994561  0
H  H66  1  0.00926252  0.15808965  0.68041246  1  0  0.082431  0.066752  0  1.021489  0
H  H67  1  0.99074345  0.84191710  0.31958559  1  0  0.082411  0.066704  0  1.021291  0
H  H68  1  0.76439363  0.32073405  0.76952268  1  0  0.107437  0.126919  0  1.021322  0
H  H69  1  0.23561115  0.67927271  0.23047526  1  0  0.107409  0.126855  0  1.021355  0
H  H70  1  0.81542398  0.14172279  0.78863368  1  0  0.103227  0.120135  0  0.988342  0
H  H71  1  0.18457689  0.85828173  0.21136109  1  0  0.10321  0.120064  0  0.988351  0
C  C72  1  0.47876186  0.45213956  0.16021687  1  0  0.224503  0.669915  0  4.089328  0
C  C73  1  0.52123598  0.54786244  0.83978656  1  0  0.22447  0.669822  0  4.08936  0
C  C74  1  0.59208400  0.42817495  0.24198445  1  0  -0.16016  -0.301662  0  3.914292  0
C  C75  1  0.40791684  0.57182362  0.75801836  1  0  -0.16024  -0.301794  0  3.914216  0
C  C76  1  0.60239954  0.55320461  0.32159432  1  0  -0.162541  -0.118412  0  3.939898  0
C  C77  1  0.39759914  0.44679514  0.67840706  1  0  -0.162495  -0.118305  0  3.939739  0
C  C78  1  0.69933777  0.51828517  0.40736976  1  0  -0.16701  -0.144955  0  3.960298  0
C  C79  1  0.30066073  0.48171344  0.59263086  1  0  -0.166976  -0.144914  0  3.960156  0
C  C80  1  0.71267546  0.64327255  0.48704528  1  0  -0.166833  -0.143071  0  3.965166  0
C  C81  1  0.28732044  0.35672490  0.51295566  1  0  -0.166885  -0.143032  0  3.965139  0
C  C82  1  0.80813318  0.60797526  0.57320922  1  0  -0.167415  -0.146331  0  3.965268  0
C  C83  1  0.19186136  0.39202107  0.42679019  1  0  -0.167361  -0.146354  0  3.96518  0
C  C84  1  0.83132706  0.73684928  0.65186948  1  0  -0.165751  -0.1376  0  3.94974  0
C  C85  1  0.16866947  0.26314476  0.34812994  1  0  -0.165816  -0.137691  0  3.949638  0
C  C86  1  0.93592567  0.70302884  0.73559422  1  0  -0.169231  -0.132743  0  3.963726  0
C  C87  1  0.06407047  0.29696290  0.26440498  1  0  -0.169195  -0.132638  0  3.963493  0
C  C88  1  0.96842571  0.83647430  0.81186488  1  0  -0.159624  -0.308454  0  3.932105  0
C  C89  1  0.03157167  0.16351748  0.18813249  1  0  -0.159715  -0.30857  0  3.932191  0
C  C90  1  0.08445338  0.81439400  0.89290365  1  0  0.253229  0.674635  0  4.067068  0
C  C91  1  0.91554697  0.18558742  0.10709386  1  0  0.253407  0.675003  0  4.066583  0
C  C92  1  0.44700643  0.90141563  0.10599034  1  0  0.234612  0.679148  0  4.088695  0
C  C93  1  0.55298893  0.09857841  0.89400831  1  0  0.234495  0.678967  0  4.088442  0
C  C94  1  0.59599682  0.97009655  0.17571858  1  0  -0.165924  -0.309172  0  3.899641  0
C  C95  1  0.40399910  0.02990782  0.82428223  1  0  -0.165931  -0.309182  0  3.899806  0
C  C96  1  0.55703217  0.98630248  0.27073716  1  0  -0.162591  -0.126211  0  3.944454  0
C  C97  1  0.44296574  0.01369958  0.72926367  1  0  -0.162594  -0.126197  0  3.944521  0
C  C98  1  0.70597930  0.05286387  0.34279014  1  0  -0.166491  -0.144945  0  3.942378  0
C  C99  1  0.29402100  0.94713820  0.65721092  1  0  -0.1665  -0.145004  0  3.942451  0
C  C100  1  0.66741932  0.07374328  0.43723906  1  0  -0.169445  -0.152252  0  3.965169  0
C  C101  1  0.33258456  0.92625878  0.56276235  1  0  -0.169427  -0.15221  0  3.965251  0
C  C102  1  0.81407541  0.14169970  0.51051716  1  0  -0.169297  -0.147852  0  3.951807  0
C  C103  1  0.18593156  0.85830591  0.48948090  1  0  -0.16929  -0.147685  0  3.951738  0
C  C104  1  0.77124820  0.16141244  0.60406980  1  0  -0.167831  -0.150156  0  3.954548  0
C  C105  1  0.22876013  0.83859429  0.39592978  1  0  -0.167828  -0.15025  0  3.954644  0
C  C106  1  0.91454642  0.23123495  0.67902988  1  0  -0.165855  -0.117387  0  3.950155  0
C  C107  1  0.08546269  0.76876946  0.32097025  1  0  -0.165799  -0.117288  0  3.949804  0
C  C108  1  0.86383067  0.25333194  0.77047705  1  0  -0.163926  -0.314738  0  3.914271  0
C  C109  1  0.13617509  0.74667365  0.22952154  1  0  -0.163873  -0.314517  0  3.914118  0
C  C110  1  0.99650237  0.33141974  0.84746680  1  0  0.218716  0.662326  0  4.098491  0
C  C111  1  0.00349912  0.66858232  0.15253438  1  0  0.218644  0.662139  0  4.098471  0
O  O112  1  0.52411370  0.43910310  0.08330908  1  0  -0.430457  -0.68756  0  2.322221  0
O  O113  1  0.47589101  0.56090359  0.91669146  1  0  -0.430414  -0.687447  0  2.322423  0
O  O114  1  0.33927483  0.48201515  0.16618217  1  0  -0.346212  -0.57773  0  2.190476  0
O  O115  1  0.66073225  0.51798463  0.83381872  1  0  -0.346181  -0.577696  0  2.190185  0
O  O116  1  0.14124702  0.69311838  0.89792330  1  0  -0.343845  -0.590431  0  2.294993  0
O  O117  1  0.85875101  0.30687690  0.10207244  1  0  -0.344073  -0.590773  0  2.294388  0
O  O118  1  0.12111151  0.93306267  0.95622932  1  0  -0.314742  -0.517379  0  2.406599  0
O  O119  1  0.87889261  0.06693368  0.04377036  1  0  -0.314663  -0.517341  0  2.406826  0
O  O120  1  0.42246209  0.75964252  0.07677714  1  0  -0.376938  -0.626785  0  2.277122  0
O  O121  1  0.57753365  0.24037450  0.92322399  1  0  -0.376986  -0.626817  0  2.276423  0
O  O122  1  0.34823643  0.99250869  0.08139894  1  0  -0.317563  -0.565233  0  2.241446  0
O  O123  1  0.65175346  0.00750252  0.91860378  1  0  -0.317405  -0.564979  0  2.241746  0
O  O124  1  0.14371650  0.34787434  0.84043715  1  0  -0.338031  -0.571268  0  2.146461  0
O  O125  1  0.85628192  0.65212420  0.15956672  1  0  -0.33796  -0.571165  0  2.146318  0
O  O126  1  0.95507849  0.38089199  0.92283524  1  0  -0.434209  -0.709188  0  2.289319  0
O  O127  1  0.04491942  0.61911007  0.07716559  1  0  -0.434228  -0.709184  0  2.289419  0
O  O128  1  0.22415540  0.23423260  0.01466081  1  0  -0.630775  -0.819139  0  2.112884  0
O  O129  1  0.77584676  0.76576607  0.98533755  1  0  -0.63077  -0.81915  0  2.112895  0
