# generated using pymatgen
data_Al6H41C67NO30
_symmetry_space_group_name_H-M   'P 1'
_cell_length_a   12.21255414
_cell_length_b   12.17326300
_cell_length_c   26.98603659
_cell_angle_alpha   82.38180656
_cell_angle_beta   82.24286575
_cell_angle_gamma   63.26298447
_symmetry_Int_Tables_number   1
_chemical_formula_structural   Al6H41C67NO30
_chemical_formula_sum   'Al6 H41 C67 N1 O30'
_cell_volume   3538.46390015
_cell_formula_units_Z   1
loop_
 _symmetry_equiv_pos_site_id
 _symmetry_equiv_pos_as_xyz
  1  'x, y, z'
loop_
 _atom_site_type_symbol
 _atom_site_label
 _atom_site_symmetry_multiplicity
 _atom_site_fract_x
 _atom_site_fract_y
 _atom_site_fract_z
 _atom_site_occupancy
 _atom_site_pbe_bader_charge
 _atom_site_pbe_bader_spin_density
 _atom_site_pbe_cm5_charge
 _atom_site_pbe_ddec_charge
 _atom_site_pbe_ddec_spin_density
 _atom_site_pbe_ddec_sum_bond_order
 _atom_site_pbe_magmom
Al  Al0  1  0.40529844  0.40318752  0.50987849  1  2.494611  0  0.400174  1.681601  0  2.559447  0
Al  Al1  1  0.66040909  0.42510818  0.49498869  1  2.480106  0  0.51063  1.663824  0  2.505716  0
Al  Al2  1  0.42408380  0.66007961  0.49710491  1  2.480111  0  0.510725  1.662261  0  2.507565  0
Al  Al3  1  0.93037406  0.93557004  0.97882040  1  2.493703  0  0.400869  1.681007  0  2.5596  0
Al  Al4  1  0.91496105  0.67663396  0.99582066  1  2.481882  0  0.510701  1.661798  0  2.508186  0
Al  Al5  1  0.67735743  0.90973952  0.99325902  1  2.483005  0  0.511459  1.66086  0  2.509771  0
H  H6  1  0.29864570  0.72496590  0.17892316  1  0.045436  0  0.096963  0.097001  0  0.976176  0
H  H7  1  0.82663902  0.21543961  0.27007924  1  0.0287  0  0.095186  0.094055  0  0.978177  0
H  H8  1  0.32458203  0.72914626  0.26291163  1  0.028969  0  0.093439  0.091303  0  0.981079  0
H  H9  1  0.85758549  0.05867986  0.28403995  1  0.029487  0  0.095841  0.098513  0  0.985024  0
H  H10  1  0.80974654  0.20638648  0.18508439  1  0.040805  0  0.09725  0.097065  0  0.969827  0
H  H11  1  0.60515057  0.37499043  0.26020867  1  0.017447  0  0.093969  0.091998  0  0.981194  0
H  H12  1  0.57894326  0.33948091  0.18021964  1  0.032896  0  0.098839  0.100891  0  0.976892  0
H  H13  1  0.86795075  0.04499624  0.19765866  1  0.065337  0  0.099688  0.104643  0  0.9985  0
H  H14  1  0.51786949  0.64930484  0.81312359  1  0.057638  0  0.104436  0.108258  0  0.973775  0
H  H15  1  0.48329541  0.67911235  0.72732375  1  0.033647  0  0.095732  0.093783  0  0.983663  0
H  H16  1  0.70549384  0.81180226  0.68535086  1  0.018491  0  0.094015  0.097486  0  0.982975  0
H  H17  1  0.38025708  0.56710755  0.27016278  1  0.041448  0  0.0911  0.086513  0  1.007906  0
H  H18  1  0.54752456  0.84836587  0.69411679  1  0.052627  0  0.10249  0.112162  0  0.980547  0
H  H19  1  0.99487612  0.80247426  0.30225065  1  0.032577  0  0.093798  0.091716  0  0.982613  0
H  H20  1  0.69398588  0.84119991  0.76996589  1  0.039243  0  0.109819  0.059004  0  0.968527  0
H  H21  1  0.81955090  0.46889230  0.71096533  1  0.057066  0  0.10494  0.118859  0  0.963316  0
H  H22  1  0.86780307  0.58291143  0.68623649  1  0.049666  0  0.103533  0.111831  0  0.977019  0
H  H23  1  0.85617666  0.49859295  0.78944735  1  0.077328  0  0.116391  0.068265  0  0.932309  0
H  H24  1  0.58989623  0.52220251  0.72451309  1  0.034543  0  0.097671  0.099736  0  0.979044  0
H  H25  1  0.64961340  0.50858194  0.80490884  1  0.039426  0  0.100786  0.101005  0  0.971383  0
H  H26  1  0.09939040  0.86774684  0.28630482  1  0.023766  0  0.09489  0.092506  0  0.980499  0
H  H27  1  0.07816475  0.87542939  0.20075341  1  0.027955  0  0.095204  0.094454  0  0.976014  0
H  H28  1  0.34269171  0.56467708  0.18763016  1  0.031843  0  0.093341  0.092895  0  0.983872  0
H  H29  1  0.96322982  0.82368294  0.21753745  1  0.063939  0  0.092994  0.101296  0  1.016491  0
H  H30  1  0.22959818  0.47392334  0.29512701  1  0.022666  0  0.094428  0.093138  0  0.981575  0
H  H31  1  0.07330574  0.56935863  0.31175718  1  0.039587  0  0.097668  0.098581  0  0.973355  0
H  H32  1  0.18037813  0.48609044  0.21283202  1  0.026474  0  0.093635  0.090818  0  0.981254  0
H  H33  1  0.70843608  0.86619083  0.24061003  1  0.579914  0  0.300483  0.320776  0  0.973224  0
H  H34  1  0.44825884  0.85213307  0.78118226  1  0.379445  0  0.290333  0.227825  0  0.968707  0
H  H35  1  0.38262244  0.05973987  0.79513966  1  0.059628  0  0.10715  0.120044  0  0.969843  0
H  H36  1  0.47192950  0.03828733  0.73585920  1  -0.006266  0  0.078598  0.070456  0  1.013054  0
H  H37  1  0.53801129  0.03463837  0.79148180  1  0.020254  0  0.09164  0.097383  0  1.0306  0
H  H38  1  0.89052769  0.69837889  0.73782876  1  0.577504  0  0.31376  0.337482  0  0.923668  0
H  H39  1  0.02668912  0.59200458  0.22847933  1  0.047226  0  0.093776  0.092962  0  0.979151  0
H  H40  1  0.47720591  0.27534632  0.20520192  1  0.037012  0  0.094675  0.091613  0  0.982328  0
H  H41  1  0.48245170  0.33745557  0.28319292  1  0.052533  0  0.094976  0.093092  0  0.991941  0
H  H42  1  0.68298975  0.99923273  0.31247486  1  0.05493  0  0.10062  0.110498  0  0.981857  0
H  H43  1  0.52933972  0.11179671  0.30594043  1  0.031601  0  0.1004  0.111197  0  0.969382  0
H  H44  1  0.55314194  0.05156558  0.22501742  1  0.053626  0  0.10168  0.036443  0  0.962673  0
H  H45  1  0.30078588  0.29418615  0.55314363  1  0.588804  0  0.296111  0.387401  0  0.916249  0
H  H46  1  0.04025088  0.03893189  0.99648759  1  0.574599  0  0.296287  0.386528  0  0.917063  0
C  C47  1  0.61909695  0.28444863  0.43421655  1  1.645444  0  0.280098  0.718937  0  4.158771  0
C  C48  1  0.28079790  0.65347688  0.20289515  1  -0.018618  0  -0.152123  -0.185727  0  3.842802  0
C  C49  1  0.14595825  0.67809825  0.19939871  1  0.149444  0  0.001046  0.166833  0  3.901289  0
C  C50  1  0.61751340  0.62251128  0.41850049  1  1.667332  0  0.286439  0.698525  0  4.179723  0
C  C51  1  0.12304535  0.57278182  0.23040310  1  -0.037784  0  -0.153657  -0.185558  0  3.851349  0
C  C52  1  0.15221617  0.56290589  0.28528125  1  -0.014006  0  -0.152898  -0.186378  0  3.846004  0
C  C53  1  0.12264169  0.68622584  0.14748034  1  -0.496972  0  -0.006586  -0.006108  0  4.005842  0
C  C54  1  0.21076249  0.65985697  0.34471794  1  -0.529941  0  -0.007053  -0.00594  0  4.009364  0
C  C55  1  0.23528469  0.64906718  0.38781870  1  0.273739  0  -0.052231  -0.231319  0  3.980094  0
C  C56  1  0.57344138  0.30300707  0.26215193  1  -0.031474  0  -0.151654  -0.189392  0  3.850454  0
C  C57  1  0.62476966  0.08166784  0.28955076  1  -0.029451  0  -0.157191  -0.273849  0  3.835235  0
C  C58  1  0.66181838  0.67745337  0.26964336  1  0.239152  0  -0.000461  -0.014395  0  4.191411  0
C  C59  1  0.63960257  0.04757100  0.23496334  1  0.460747  0  0.007571  0.191503  0  3.807947  0
C  C60  1  0.68217375  0.09982772  0.10303578  1  0.247097  0  -0.051117  -0.226256  0  3.967671  0
C  C61  1  0.66397504  0.18542036  0.29150555  1  0.153511  0  0.001614  0.17514  0  3.904626  0
C  C62  1  0.28406279  0.62044100  0.43584476  1  1.618865  0  0.279706  0.720278  0  4.155965  0
C  C63  1  0.56695766  0.27240783  0.20917240  1  -0.021374  0  -0.150599  -0.189668  0  3.866382  0
C  C64  1  0.66932287  0.14207001  0.19851247  1  0.12812  0  0.001041  0.109557  0  3.887039  0
C  C65  1  0.79478166  0.13329520  0.20911413  1  -0.041699  0  -0.153629  -0.178035  0  3.827722  0
C  C66  1  0.79517794  0.14632861  0.26519151  1  -0.011146  0  -0.153093  -0.189033  0  3.847178  0
C  C67  1  0.67343672  0.11887356  0.14681207  1  -0.512433  0  -0.008733  -0.000684  0  4.011566  0
C  C68  1  0.65771228  0.21103829  0.34298273  1  -0.503844  0  -0.008487  -0.008301  0  4.002087  0
C  C69  1  0.65180869  0.66593686  0.31999147  1  -0.170064  0  -0.005028  0.025237  0  4.247471  0
C  C70  1  0.64779188  0.23563531  0.38605774  1  0.203997  0  -0.050667  -0.226448  0  3.974851  0
C  C71  1  0.57813980  0.61199718  0.73408617  1  -0.013547  0  -0.149759  -0.190119  0  3.842789  0
C  C72  1  0.63750419  0.78556729  0.70788599  1  -0.04502  0  -0.156112  -0.272103  0  3.833937  0
C  C73  1  0.63356660  0.79912083  0.76492812  1  0.374746  0  0.012277  0.105431  0  3.822149  0
C  C74  1  0.61914224  0.28126648  0.57638776  1  1.690427  0  0.276864  0.693535  0  4.187849  0
C  C75  1  0.70750811  0.68406892  0.88866144  1  0.262565  0  -0.048257  -0.238343  0  3.943705  0
C  C76  1  0.66837418  0.65128564  0.69885357  1  0.149894  0  0.000663  0.176332  0  3.907647  0
C  C77  1  0.60357855  0.60487286  0.78927181  1  -0.045321  0  -0.147888  -0.180693  0  3.850473  0
C  C78  1  0.68773605  0.66770771  0.79300279  1  0.137432  0  -0.000192  0.039978  0  3.87754  0
C  C79  1  0.81655731  0.58686455  0.76655175  1  0.473916  0  0.008513  0.192136  0  3.81418  0
C  C80  1  0.64178165  0.65283365  0.36602128  1  0.056117  0  0.013066  -0.11528  0  3.794647  0
C  C81  1  0.80047259  0.56537289  0.71331024  1  -0.046247  0  -0.154932  -0.280741  0  3.84656  0
C  C82  1  0.69801494  0.67633047  0.84508275  1  -0.462188  0  0.012196  0.050392  0  3.98224  0
C  C83  1  0.65576248  0.64301577  0.64696876  1  -0.439624  0  0.006305  0.025305  0  3.95721  0
C  C84  1  0.64349748  0.63639693  0.60358169  1  0.176199  0  -0.050586  -0.238148  0  3.954543  0
C  C85  1  0.10580628  0.69295693  0.86324995  1  0.044467  0  0.011581  -0.116467  0  3.8055  0
C  C86  1  0.61709962  0.61602322  0.55648030  1  1.62168  0  0.285991  0.735631  0  4.137253  0
C  C87  1  0.13096669  0.68139888  0.81811688  1  -0.078726  0  -0.001767  0.031897  0  4.240066  0
C  C88  1  0.15650047  0.67086599  0.76866148  1  -0.171431  0  0.005889  0.012963  0  4.183319  0
C  C89  1  0.17772614  0.66321915  0.72292352  1  0.129784  0  -0.004649  -0.014976  0  4.197846  0
C  C90  1  0.20326244  0.65260810  0.67346445  1  0.186651  0  -0.009152  0.026615  0  4.267844  0
C  C91  1  0.30248418  0.65331203  0.25808123  1  -0.032887  0  -0.152521  -0.184326  0  3.843141  0
C  C92  1  0.22903199  0.64172207  0.62827191  1  -0.299226  0  -0.001953  -0.138818  0  3.83268  0
C  C93  1  0.69307587  0.10841982  0.86203688  1  0.033044  0  0.013528  -0.112144  0  3.804551  0
C  C94  1  0.68441663  0.13736268  0.81693692  1  -0.154282  0  -0.005693  0.019532  0  4.260857  0
C  C95  1  0.67526249  0.16501641  0.76749637  1  0.155682  0  0.0028  -0.002609  0  4.203208  0
C  C96  1  0.66744230  0.18574863  0.72178029  1  -0.188929  0  -0.001705  -0.0085  0  4.201215  0
C  C97  1  0.65707129  0.20935531  0.67230640  1  0.122906  0  -0.00819  0.023796  0  4.266976  0
C  C98  1  0.28122456  0.61375413  0.57793667  1  1.684442  0  0.277631  0.694628  0  4.18743  0
C  C99  1  0.64641225  0.23250315  0.62707681  1  -0.187649  0  0.003039  -0.13075  0  3.826402  0
C  C100  1  0.05300460  0.72253357  0.05584902  1  1.682088  0  0.278727  0.726867  0  4.148457  0
C  C101  1  0.71920253  0.72078031  0.07381073  1  1.707724  0  0.287163  0.697306  0  4.180532  0
C  C102  1  0.07836982  0.79337654  0.27831425  1  -0.006826  0  -0.153614  -0.187913  0  3.854526  0
C  C103  1  0.71218962  0.05418457  0.05418702  1  1.657018  0  0.278143  0.725334  0  4.146166  0
C  C104  1  0.05540976  0.72165230  0.91376369  1  1.682981  0  0.281172  0.688349  0  4.189726  0
C  C105  1  0.72744764  0.71088311  0.93561479  1  1.589196  0  0.289008  0.740274  0  4.125661  0
C  C106  1  0.71988890  0.05460351  0.91233504  1  1.697448  0  0.28164  0.685324  0  4.192968  0
C  C107  1  0.69227625  0.69910246  0.12689025  1  0.028666  0  0.017063  -0.106988  0  3.785916  0
C  C108  1  0.68064807  0.69177644  0.17293302  1  -0.156417  0  -0.002865  0.024728  0  4.23781  0
C  C109  1  0.66985595  0.68439076  0.22327626  1  -0.168084  0  0.004885  -0.001258  0  4.183725  0
C  C110  1  0.47455204  0.00838495  0.77652566  1  0.299444  0  -0.146997  -0.214749  0  4.016803  0
C  C111  1  0.05897015  0.80182879  0.22221997  1  -0.038688  0  -0.155471  -0.192947  0  3.829968  0
C  C112  1  0.10036033  0.69628395  0.10409316  1  0.168582  0  -0.053351  -0.231606  0  3.976647  0
C  C113  1  0.18571872  0.66761676  0.29308174  1  0.13983  0  0.000947  0.163133  0  3.905088  0
N  N114  1  0.51370027  0.87654980  0.78858902  1  -1.063769  0  -0.4917  -0.350735  0  3.449991  0
O  O115  1  0.30368001  0.51629872  0.45826445  1  -1.225263  0  -0.20216  -0.543879  0  2.284524  0
O  O116  1  0.64125833  0.81887494  0.05191950  1  -1.233463  0  -0.216524  -0.565368  0  2.249123  0
O  O117  1  0.63137945  0.03127319  0.03692366  1  -1.25482  0  -0.246633  -0.613446  0  2.226153  0
O  O118  1  0.51414063  0.30631061  0.45603216  1  -1.219344  0  -0.200049  -0.539889  0  2.290153  0
O  O119  1  0.82253606  0.03551144  0.92542944  1  -1.189672  0  -0.1912  -0.518079  0  2.286742  0
O  O120  1  0.03164783  0.82759726  0.92526094  1  -1.198247  0  -0.195436  -0.527109  0  2.287513  0
O  O121  1  0.03461695  0.63772796  0.94192094  1  -1.249208  0  -0.234278  -0.592157  0  2.238154  0
O  O122  1  0.82602272  0.63551078  0.95610800  1  -1.248501  0  -0.230137  -0.599223  0  2.23999  0
O  O123  1  0.64801015  0.81239055  0.95332274  1  -1.250625  0  -0.22886  -0.596745  0  2.239682  0
O  O124  1  0.63810973  0.02666290  0.93835536  1  -1.244607  0  -0.231976  -0.588233  0  2.23816  0
O  O125  1  0.83962194  0.83945942  0.98963570  1  -1.608699  0  -0.390142  -1.273818  0  2.29218  0
O  O126  1  0.69495492  0.51897446  0.53544128  1  -1.248175  0  -0.228605  -0.595869  0  2.242378  0
O  O127  1  0.70159227  0.30652002  0.45051483  1  -1.248462  0  -0.2454  -0.613359  0  2.229863  0
O  O128  1  0.69433063  0.51856782  0.43718838  1  -1.225557  0  -0.215806  -0.56633  0  2.249297  0
O  O129  1  0.51842965  0.69866363  0.44064928  1  -1.234578  0  -0.215521  -0.56577  0  2.25025  0
O  O130  1  0.30867866  0.70234548  0.45141284  1  -1.253932  0  -0.245463  -0.613396  0  2.232481  0
O  O131  1  0.30566730  0.50811657  0.56572759  1  -1.202557  0  -0.205865  -0.553603  0  2.296897  0
O  O132  1  0.51605844  0.29993280  0.56382282  1  -1.202981  0  -0.203857  -0.549161  0  2.292009  0
O  O133  1  0.70142515  0.30644012  0.54910412  1  -1.254731  0  -0.235621  -0.593206  0  2.234111  0
O  O134  1  0.73808043  0.92724707  0.22736781  1  -1.100275  0  -0.398581  -0.499827  0  2.252089  0
O  O135  1  0.90146570  0.63797342  0.76653078  1  -1.098331  0  -0.402476  -0.501547  0  2.208562  0
O  O136  1  0.51434109  0.69321246  0.53964284  1  -1.241793  0  -0.227963  -0.592831  0  2.241463  0
O  O137  1  0.30310008  0.69789838  0.55038123  1  -1.245983  0  -0.236887  -0.594427  0  2.235745  0
O  O138  1  0.49808470  0.49732273  0.50081999  1  -1.607734  0  -0.390441  -1.275591  0  2.293015  0
O  O139  1  0.81691159  0.03513203  0.03271981  1  -1.225444  0  -0.209738  -0.565463  0  2.291331  0
O  O140  1  0.03121478  0.82680192  0.03297487  1  -1.225789  0  -0.212325  -0.571787  0  2.293287  0
O  O141  1  0.03168597  0.63827233  0.04045194  1  -1.259042  0  -0.244533  -0.611224  0  2.22789  0
O  O142  1  0.82176832  0.64342369  0.05441774  1  -1.229171  0  -0.216093  -0.564952  0  2.248725  0
O  O143  1  0.32204468  0.31615882  0.51871544  1  -1.367485  0  -0.572504  -0.987912  0  1.78887  0
O  O144  1  0.01265849  0.02357797  0.96735046  1  -1.351468  0  -0.572066  -0.986821  0  1.791794  0
