# generated using pymatgen
data_AgH9C11S2N3O5F3
_symmetry_space_group_name_H-M   'P 1'
_cell_length_a   8.28465648
_cell_length_b   9.00074608
_cell_length_c   14.07602186
_cell_angle_alpha   89.99884301
_cell_angle_beta   90.00098867
_cell_angle_gamma   113.94850202
_symmetry_Int_Tables_number   1
_chemical_formula_structural   AgH9C11S2N3O5F3
_chemical_formula_sum   'Ag2 H18 C22 S4 N6 O10 F6'
_cell_volume   959.26079307
_cell_formula_units_Z   2
loop_
 _symmetry_equiv_pos_site_id
 _symmetry_equiv_pos_as_xyz
  1  'x, y, z'
loop_
 _atom_site_type_symbol
 _atom_site_label
 _atom_site_symmetry_multiplicity
 _atom_site_fract_x
 _atom_site_fract_y
 _atom_site_fract_z
 _atom_site_occupancy
 _atom_site_hle17_bader_spin_density
 _atom_site_hle17_ddec_charge
 _atom_site_hle17_ddec_spin_density
 _atom_site_hle17_ddec_sum_bond_order
 _atom_site_hle17_magmom
 _atom_site_hse06_10hf_bader_spin_density
 _atom_site_hse06_10hf_ddec_charge
 _atom_site_hse06_10hf_ddec_spin_density
 _atom_site_hse06_10hf_ddec_sum_bond_order
 _atom_site_hse06_10hf_magmom
 _atom_site_hse06_bader_spin_density
 _atom_site_hse06_ddec_charge
 _atom_site_hse06_ddec_spin_density
 _atom_site_hse06_ddec_sum_bond_order
 _atom_site_hse06_magmom
 _atom_site_pbe_bader_spin_density
 _atom_site_pbe_cm5_charge
 _atom_site_pbe_ddec_charge
 _atom_site_pbe_ddec_spin_density
 _atom_site_pbe_ddec_sum_bond_order
 _atom_site_pbe_magmom
Ag  Ag0  1  0.51112818  0.14395022  0.23707787  1  0  0.538773  0  1.338484  0  0  0.381719  0  1.747095  0  0  0.41236  0  1.703755  0  0  0.473183  0.3608  0  1.776902  0
Ag  Ag1  1  0.48886917  0.85604339  0.73707310  1  0  0.538798  0  1.338534  0  0  0.381741  0  1.747149  0  0  0.41238  0  1.703802  0  0  0.473188  0.360835  0  1.776965  0
H  H2  1  0.27824717  0.39111584  0.16255760  1  0  0.321429  0  0.934112  0  0  0.301956  0  1.003269  0  0  0.310017  0  0.996551  0  0  0.298006  0.296252  0  1.007973  0
H  H3  1  0.72175677  0.60888697  0.66255410  1  0  0.321395  0  0.934172  0  0  0.302012  0  1.003174  0  0  0.310099  0  0.996383  0  0  0.298058  0.296308  0  1.007889  0
H  H4  1  0.57335539  0.75121902  0.93215844  1  0  0.097556  0  0.935282  0  0  0.105102  0  1.000423  0  0  0.108452  0  0.996286  0  0  0.123138  0.10258  0  1.003495  0
H  H5  1  0.42663626  0.24878175  0.43216100  1  0  0.097549  0  0.935343  0  0  0.105092  0  1.00048  0  0  0.108433  0  0.996368  0  0  0.123115  0.102554  0  1.003557  0
H  H6  1  0.20954656  0.50771485  0.72251513  1  0  0.091491  0  0.949213  0  0  0.099467  0  1.014967  0  0  0.101338  0  1.013185  0  0  0.120873  0.098061  0  1.01633  0
H  H7  1  0.79045746  0.49227558  0.22252107  1  0  0.09154  0  0.949196  0  0  0.099523  0  1.014972  0  0  0.101387  0  1.013221  0  0  0.120866  0.098115  0  1.016328  0
H  H8  1  0.11697987  0.24253534  0.80869342  1  0  0.12249  0  0.952094  0  0  0.133448  0  1.007096  0  0  0.136343  0  1.007075  0  0  0.114779  0.131338  0  1.00736  0
H  H9  1  0.88302333  0.75746139  0.30869261  1  0  0.12241  0  0.952157  0  0  0.133387  0  1.007142  0  0  0.136263  0  1.007139  0  0  0.114752  0.131285  0  1.007406  0
H  H10  1  0.94923409  0.70346752  0.09588175  1  0  0.121751  0  0.967454  0  0  0.131626  0  1.024677  0  0  0.134909  0  1.023505  0  0  0.109212  0.129278  0  1.02563  0
H  H11  1  0.05077573  0.29653943  0.59588972  1  0  0.121701  0  0.967479  0  0  0.131572  0  1.024723  0  0  0.134832  0  1.023612  0  0  0.109181  0.129219  0  1.025671  0
H  H12  1  0.15604216  0.97883199  0.14977188  1  0  0.091362  0  0.983922  0  0  0.098322  0  1.051696  0  0  0.101033  0  1.048713  0  0  0.112408  0.096328  0  1.053851  0
H  H13  1  0.84396241  0.02116751  0.64977151  1  0  0.09134  0  0.983915  0  0  0.098299  0  1.051694  0  0  0.101011  0  1.04871  0  0  0.112398  0.096303  0  1.053849  0
H  H14  1  0.55602668  0.82169370  0.20195017  1  0  0.114085  0  0.954951  0  0  0.121521  0  1.020659  0  0  0.124411  0  1.018024  0  0  0.119944  0.119351  0  1.022722  0
H  H15  1  0.44397800  0.17830813  0.70194444  1  0  0.114115  0  0.95491  0  0  0.121579  0  1.020614  0  0  0.124472  0  1.017977  0  0  0.119935  0.119403  0  1.022672  0
H  H16  1  0.05268609  0.47562249  0.09746437  1  0  0.125674  0  0.933554  0  0  0.139143  0  0.986596  0  0  0.142229  0  0.984392  0  0  0.114692  0.136828  0  0.988309  0
H  H17  1  0.94731959  0.52438316  0.59747276  1  0  0.125615  0  0.933563  0  0  0.139114  0  0.986599  0  0  0.142195  0  0.984415  0  0  0.114686  0.136804  0  0.988316  0
H  H18  1  0.25496505  0.23847441  0.96801615  1  0  0.119272  0  0.910875  0  0  0.134185  0  0.959919  0  0  0.137118  0  0.957562  0  0  0.123096  0.131941  0  0.961767  0
H  H19  1  0.74503247  0.76152917  0.46800963  1  0  0.119265  0  0.910904  0  0  0.134184  0  0.959937  0  0  0.13712  0  0.957575  0  0  0.123122  0.131947  0  0.961787  0
C  C20  1  0.47035815  0.63801350  0.90714945  1  0  0.115877  0  3.697586  0  0  0.070364  0  3.943466  0  0  0.079502  0  3.961818  0  0  0.051086  0.064485  0  3.931096  0
C  C21  1  0.52963927  0.36198554  0.40715444  1  0  0.115909  0  3.697542  0  0  0.07041  0  3.943417  0  0  0.079495  0  3.961882  0  0  0.051082  0.064549  0  3.931025  0
C  C22  1  0.26801648  0.49969426  0.79042032  1  0  0.146249  0  3.6462  0  0  0.106754  0  3.899142  0  0  0.116696  0  3.916122  0  0  0.056287  0.100219  0  3.887662  0
C  C23  1  0.73198776  0.50030052  0.29042556  1  0  0.146184  0  3.646189  0  0  0.106648  0  3.899146  0  0  0.116535  0  3.916249  0  0  0.056254  0.100121  0  3.887647  0
C  C24  1  0.42135114  0.49635518  0.96072989  1  0  -0.17319  0  3.754638  0  0  -0.143864  0  4.007407  0  0  -0.15627  0  4.031882  0  0  -0.016188  -0.136054  0  3.99123  0
C  C25  1  0.57864018  0.50364851  0.46072928  1  0  -0.173166  0  3.754812  0  0  -0.143868  0  4.007626  0  0  -0.156314  0  4.032205  0  0  -0.016202  -0.136065  0  3.991457  0
C  C26  1  0.21450507  0.35327450  0.83984121  1  0  -0.093785  0  3.677005  0  0  -0.102501  0  3.920982  0  0  -0.111054  0  3.942243  0  0  -0.069067  -0.097162  0  3.906868  0
C  C27  1  0.78548571  0.64672494  0.33984084  1  0  -0.093574  0  3.676992  0  0  -0.102284  0  3.920961  0  0  -0.110844  0  3.942286  0  0  -0.068959  -0.096951  0  3.90686  0
C  C28  1  0.31254968  0.63278626  0.14901972  1  0  0.195662  0  3.802363  0  0  0.197613  0  4.052666  0  0  0.197837  0  4.077997  0  0  0.08758  0.196993  0  4.035713  0
C  C29  1  0.68745627  0.36721932  0.64902112  1  0  0.195635  0  3.802234  0  0  0.197582  0  4.052624  0  0  0.19785  0  4.077826  0  0  0.087565  0.196955  0  4.03568  0
C  C30  1  0.08209774  0.72359019  0.11875871  1  0  -0.096857  0  3.736668  0  0  -0.108552  0  3.987662  0  0  -0.115293  0  4.009337  0  0  -0.083897  -0.104225  0  3.973071  0
C  C31  1  0.91790851  0.27641253  0.61876503  1  0  -0.096757  0  3.736588  0  0  -0.108449  0  3.987612  0  0  -0.115208  0  4.009345  0  0  -0.083752  -0.104108  0  3.972999  0
C  C32  1  0.19651446  0.87786178  0.14832560  1  0  0.106229  0  3.686461  0  0  0.073741  0  3.926908  0  0  0.080205  0  3.94695  0  0  0.037379  0.069333  0  3.913687  0
C  C33  1  0.80348697  0.12213892  0.64832209  1  0  0.106269  0  3.686562  0  0  0.073778  0  3.926994  0  0  0.080243  0  3.947037  0  0  0.037338  0.069369  0  3.913771  0
C  C34  1  0.42083506  0.79055921  0.17832227  1  0  0.039464  0  3.640994  0  0  0.001355  0  3.878978  0  0  0.007257  0  3.897341  0  0  0.044596  -0.002463  0  3.866578  0
C  C35  1  0.57916849  0.20944440  0.67831609  1  0  0.039466  0  3.640932  0  0  0.001322  0  3.878912  0  0  0.007228  0  3.897258  0  0  0.044579  -0.002491  0  3.866503  0
C  C36  1  0.14001738  0.59852405  0.11892960  1  0  -0.095098  0  3.672323  0  0  -0.122157  0  3.920785  0  0  -0.120727  0  3.93953  0  0  -0.0693  -0.122755  0  3.908067  0
C  C37  1  0.85998870  0.40148108  0.61893017  1  0  -0.095069  0  3.67214  0  0  -0.122186  0  3.920671  0  0  -0.120737  0  3.939368  0  0  -0.06938  -0.122793  0  3.90797  0
C  C38  1  0.29222598  0.35040085  0.92708644  1  0  0.012927  0  3.66835  0  0  -0.01455  0  3.905323  0  0  -0.008676  0  3.922767  0  0  -0.047347  -0.018114  0  3.893563  0
C  C39  1  0.70777128  0.64959649  0.42708738  1  0  0.012875  0  3.668424  0  0  -0.014601  0  3.905407  0  0  -0.008734  0  3.922847  0  0  -0.047361  -0.01818  0  3.893683  0
C  C40  1  0.99503050  0.21745441  0.35189423  1  0  0.592369  0  3.680178  0  0  0.526296  0  4.046118  0  0  0.554173  0  4.019507  0  0  0.284146  0.506327  0  4.06525  0
C  C41  1  0.00497194  0.78253761  0.85189761  1  0  0.592523  0  3.680001  0  0  0.526328  0  4.046118  0  0  0.554441  0  4.018913  0  0  0.284034  0.506334  0  4.065297  0
S  S42  1  0.94688144  0.15070515  0.22538922  1  0  1.116346  0  5.835442  0  0  1.014826  0  6.37312  0  0  1.058275  0  6.352943  0  0  0.48726  0.984895  0  6.3863  0
S  S43  1  0.05311345  0.84929477  0.72539364  1  0  1.116256  0  5.835519  0  0  1.014798  0  6.373186  0  0  1.058393  0  6.352672  0  0  0.487207  0.984873  0  6.386363  0
S  S44  1  0.52276845  0.50708114  0.07302426  1  0  1.210953  0  5.433622  0  0  1.110597  0  5.953548  0  0  1.1551  0  5.939613  0  0  0.560459  1.079995  0  5.962294  0
S  S45  1  0.47723261  0.49291540  0.57301837  1  0  1.211087  0  5.433812  0  0  1.11072  0  5.95376  0  0  1.155206  0  5.939906  0  0  0.560492  1.080117  0  5.962509  0
N  N46  1  0.36261991  0.91031949  0.17801856  1  0  -0.287743  0  3.398122  0  0  -0.191591  0  3.675521  0  0  -0.212116  0  3.694198  0  0  -0.349121  -0.177594  0  3.662345  0
N  N47  1  0.63738502  0.08968173  0.67802091  1  0  -0.287821  0  3.398193  0  0  -0.191644  0  3.675578  0  0  -0.212169  0  3.69426  0  0  -0.349085  -0.177647  0  3.662395  0
N  N48  1  0.39475855  0.63930862  0.82275590  1  0  -0.279865  0  3.34121  0  0  -0.189309  0  3.623188  0  0  -0.209741  0  3.639368  0  0  -0.342157  -0.175578  0  3.611941  0
N  N49  1  0.60523278  0.36068761  0.32276024  1  0  -0.279981  0  3.34112  0  0  -0.189427  0  3.623126  0  0  -0.20988  0  3.639357  0  0  -0.342136  -0.175689  0  3.611847  0
N  N50  1  0.37609470  0.50786665  0.15210197  1  0  -0.577189  0  3.176693  0  0  -0.523499  0  3.435931  0  0  -0.543856  0  3.44149  0  0  -0.437932  -0.508961  0  3.431524  0
N  N51  1  0.62390940  0.49214004  0.65209828  1  0  -0.577214  0  3.176753  0  0  -0.523577  0  3.435955  0  0  -0.543883  0  3.441358  0  0  -0.43796  -0.509034  0  3.431552  0
O  O52  1  0.84563135  0.97635165  0.23306880  1  0  -0.587015  0  1.997656  0  0  -0.555299  0  2.24394  0  0  -0.574062  0  2.232108  0  0  -0.32679  -0.542039  0  2.251626  0
O  O53  1  0.15435830  0.02364680  0.73307067  1  0  -0.587057  0  1.997808  0  0  -0.555336  0  2.244077  0  0  -0.574103  0  2.232225  0  0  -0.326816  -0.542072  0  2.251755  0
O  O54  1  0.12436329  0.19777837  0.18455079  1  0  -0.622989  0  2.049664  0  0  -0.584046  0  2.308477  0  0  -0.602577  0  2.293299  0  0  -0.33455  -0.570971  0  2.318477  0
O  O55  1  0.87563622  0.80222383  0.68454848  1  0  -0.62294  0  2.049838  0  0  -0.584043  0  2.308635  0  0  -0.602499  0  2.293272  0  0  -0.334511  -0.570962  0  2.318631  0
O  O56  1  0.85284941  0.24515394  0.18904122  1  0  -0.609091  0  2.044371  0  0  -0.568861  0  2.309999  0  0  -0.588321  0  2.294701  0  0  -0.336276  -0.55518  0  2.320165  0
O  O57  1  0.14714498  0.75484445  0.68904425  1  0  -0.609039  0  2.044274  0  0  -0.568854  0  2.30992  0  0  -0.588234  0  2.294442  0  0  -0.336247  -0.555172  0  2.320081  0
O  O58  1  0.67184698  0.66235846  0.07718996  1  0  -0.578139  0  1.971726  0  0  -0.530916  0  2.215429  0  0  -0.55158  0  2.204378  0  0  -0.295622  -0.516397  0  2.222423  0
O  O59  1  0.32815920  0.33766101  0.57718884  1  0  -0.578076  0  1.972199  0  0  -0.530819  0  2.215887  0  0  -0.551501  0  2.204901  0  0  -0.295526  -0.516298  0  2.222873  0
O  O60  1  0.54361109  0.35698364  0.08748965  1  0  -0.586508  0  1.962062  0  0  -0.533432  0  2.21662  0  0  -0.554271  0  2.201923  0  0  -0.308481  -0.518861  0  2.226295  0
O  O61  1  0.45640065  0.64302838  0.58748517  1  0  -0.586681  0  1.961734  0  0  -0.533608  0  2.216292  0  0  -0.55446  0  2.20163  0  0  -0.308604  -0.519031  0  2.22597  0
F  F62  1  0.84251429  0.18405764  0.40057078  1  0  -0.236149  0  1.199123  0  0  -0.202329  0  1.370699  0  0  -0.212456  0  1.355939  0  0  -0.099837  -0.195032  0  1.381012  0
F  F63  1  0.15748718  0.81595129  0.90057527  1  0  -0.23613  0  1.199203  0  0  -0.202286  0  1.370819  0  0  -0.212211  0  1.355977  0  0  -0.099791  -0.194978  0  1.381143  0
F  F64  1  0.08381217  0.13859345  0.39574771  1  0  -0.225882  0  1.166207  0  0  -0.18923  0  1.329466  0  0  -0.198679  0  1.313355  0  0  -0.097615  -0.182434  0  1.340733  0
F  F65  1  0.91616785  0.86138270  0.89574221  1  0  -0.225925  0  1.166311  0  0  -0.189255  0  1.329624  0  0  -0.198508  0  1.313436  0  0  -0.09762  -0.182453  0  1.340905  0
F  F66  1  0.09496782  0.38007628  0.35817167  1  0  -0.230442  0  1.157014  0  0  -0.187872  0  1.307165  0  0  -0.197202  0  1.29298  0  0  -0.103976  -0.181179  0  1.317112  0
F  F67  1  0.90504323  0.61990722  0.85817343  1  0  -0.230517  0  1.156898  0  0  -0.187882  0  1.307058  0  0  -0.198671  0  1.294624  0  0  -0.103869  -0.181176  0  1.317015  0
