# generated using pymatgen
data_EuAgH12C14N2O11
_symmetry_space_group_name_H-M   'P 1'
_cell_length_a   7.34972811
_cell_length_b   13.23155322
_cell_length_c   19.75303552
_cell_angle_alpha   105.54926969
_cell_angle_beta   90.00150556
_cell_angle_gamma   89.99762836
_symmetry_Int_Tables_number   1
_chemical_formula_structural   EuAgH12C14N2O11
_chemical_formula_sum   'Eu4 Ag4 H48 C56 N8 O44'
_cell_volume   1850.64330318
_cell_formula_units_Z   4
loop_
 _symmetry_equiv_pos_site_id
 _symmetry_equiv_pos_as_xyz
  1  'x, y, z'
loop_
 _atom_site_type_symbol
 _atom_site_label
 _atom_site_symmetry_multiplicity
 _atom_site_fract_x
 _atom_site_fract_y
 _atom_site_fract_z
 _atom_site_occupancy
 _atom_site_pbe_bader_charge
 _atom_site_pbe_bader_spin_density
 _atom_site_pbe_cm5_charge
 _atom_site_pbe_ddec_charge
 _atom_site_pbe_ddec_spin_density
 _atom_site_pbe_ddec_sum_bond_order
 _atom_site_pbe_magmom
Eu  Eu0  1  0.09420264  0.19413888  0.85132362  1  2.179473  0  1.487386  1.996541  0  2.169601  0
Eu  Eu1  1  0.59419906  0.30586478  0.64868273  1  2.179368  0  1.487365  1.996589  0  2.169535  0
Eu  Eu2  1  0.90579773  0.80586078  0.14867637  1  2.17948  0  1.487391  1.996529  0  2.169586  0
Eu  Eu3  1  0.40580267  0.69413487  0.35131676  1  2.179378  0  1.48738  1.996629  0  2.169472  0
Ag  Ag4  1  0.58122726  0.10719644  0.00655019  1  0.610708  0  0.428254  0.465674  0  1.699065  0
Ag  Ag5  1  0.08121908  0.39279187  0.49344636  1  0.610825  0  0.428211  0.465666  0  1.6991  0
Ag  Ag6  1  0.41877176  0.89280636  0.99345034  1  0.61056  0  0.428266  0.465692  0  1.699067  0
Ag  Ag7  1  0.91877993  0.60720624  0.50655387  1  0.610732  0  0.428235  0.465702  0  1.699105  0
H  H8  1  0.31748804  0.35169381  0.81258934  1  0.644741  0  0.299846  0.389955  0  0.948557  0
H  H9  1  0.81749889  0.14829970  0.68741290  1  0.644718  0  0.299898  0.389999  0  0.948452  0
H  H10  1  0.68251234  0.64830663  0.18741028  1  0.644739  0  0.299831  0.389924  0  0.948611  0
H  H11  1  0.18250012  0.85170077  0.31258773  1  0.644743  0  0.299884  0.389975  0  0.948487  0
H  H12  1  0.41660967  0.35628719  0.88435802  1  0.645671  0  0.295466  0.402234  0  0.936413  0
H  H13  1  0.91662813  0.14371354  0.61563933  1  0.645392  0  0.295432  0.402156  0  0.936519  0
H  H14  1  0.58339071  0.64371404  0.11564173  1  0.645663  0  0.295459  0.402219  0  0.936445  0
H  H15  1  0.08337088  0.85628692  0.38436130  1  0.645384  0  0.295423  0.402135  0  0.93655  0
H  H16  1  0.17405905  0.23028874  0.70527954  1  0.639456  0  0.300784  0.400665  0  0.935838  0
H  H17  1  0.67405196  0.26970223  0.79472188  1  0.639735  0  0.300779  0.400644  0  0.935872  0
H  H18  1  0.82594405  0.76970937  0.29472069  1  0.639536  0  0.300791  0.400677  0  0.935834  0
H  H19  1  0.32594705  0.73029742  0.20527709  1  0.639724  0  0.300749  0.400619  0  0.935909  0
H  H20  1  0.00698304  0.30762941  0.73664938  1  0.658887  0  0.301869  0.400498  0  0.934449  0
H  H21  1  0.50697955  0.19236809  0.76335000  1  0.658841  0  0.301919  0.400583  0  0.934354  0
H  H22  1  0.99301733  0.69236948  0.26335048  1  0.658882  0  0.301839  0.400431  0  0.934551  0
H  H23  1  0.49301810  0.80763000  0.23664921  1  0.658872  0  0.301915  0.400593  0  0.934349  0
H  H24  1  0.95812659  0.01733655  0.72452851  1  0.59196  0  0.333817  0.410462  0  0.862771  0
H  H25  1  0.45811836  0.48265089  0.77547204  1  0.59204  0  0.333907  0.410665  0  0.862632  0
H  H26  1  0.04187378  0.98266313  0.27547199  1  0.59195  0  0.333753  0.410324  0  0.862841  0
H  H27  1  0.54188065  0.51734798  0.22452731  1  0.592027  0  0.333916  0.410674  0  0.862565  0
H  H28  1  0.77170252  0.04251386  0.76652103  1  0.653045  0  0.296273  0.402  0  0.935007  0
H  H29  1  0.27171231  0.45748366  0.73347891  1  0.653177  0  0.296281  0.402034  0  0.934979  0
H  H30  1  0.22829649  0.95748583  0.23347998  1  0.65305  0  0.296274  0.40202  0  0.934985  0
H  H31  1  0.72828806  0.54251600  0.26652057  1  0.653122  0  0.29622  0.401968  0  0.935085  0
H  H32  1  0.47213058  0.81539530  0.80379457  1  0.111144  0  0.11537  0.131401  0  0.983902  0
H  H33  1  0.97211621  0.68459332  0.69619949  1  0.110748  0  0.115391  0.131434  0  0.984062  0
H  H34  1  0.52787115  0.18460358  0.19620478  1  0.111175  0  0.115402  0.131474  0  0.983906  0
H  H35  1  0.02788280  0.31540717  0.30380215  1  0.110797  0  0.115384  0.131418  0  0.984096  0
H  H36  1  0.24059691  0.71724279  0.85695309  1  0.079901  0  0.110849  0.115379  0  0.988906  0
H  H37  1  0.74057289  0.78275211  0.64303877  1  0.080066  0  0.110905  0.115513  0  0.988847  0
H  H38  1  0.75940210  0.28275610  0.14304728  1  0.079918  0  0.110859  0.115392  0  0.988906  0
H  H39  1  0.25942476  0.21724915  0.35696250  1  0.080039  0  0.110922  0.115524  0  0.988887  0
H  H40  1  0.95789928  0.81415463  0.91180185  1  0.1038  0  0.111921  0.123833  0  1.023963  0
H  H41  1  0.45786074  0.68584286  0.58819156  1  0.103392  0  0.111971  0.123744  0  1.024003  0
H  H42  1  0.04210381  0.18584582  0.08819827  1  0.103799  0  0.111912  0.123822  0  1.02396  0
H  H43  1  0.54213691  0.31415686  0.41181047  1  0.10338  0  0.111981  0.123746  0  1.024031  0
H  H44  1  0.21123842  0.39733889  0.13279419  1  0.103024  0  0.111918  0.120153  0  0.989455  0
H  H45  1  0.71123386  0.10265704  0.36720847  1  0.102952  0  0.111954  0.120232  0  0.989437  0
H  H46  1  0.78876195  0.60266234  0.86720607  1  0.10496  0  0.111929  0.120182  0  0.989437  0
H  H47  1  0.28876652  0.89734103  0.63278973  1  0.102964  0  0.111956  0.120197  0  0.989454  0
H  H48  1  0.92209139  0.50404034  0.15343021  1  0.151301  0  0.112809  0.111321  0  1.021157  0
H  H49  1  0.42208437  0.99595904  0.34656979  1  0.151006  0  0.112846  0.111377  0  1.021093  0
H  H50  1  0.07791035  0.49596164  0.84656865  1  0.151577  0  0.112815  0.111325  0  1.02107  0
H  H51  1  0.57791328  0.00404141  0.65343034  1  0.151035  0  0.112851  0.111356  0  1.021092  0
H  H52  1  0.69916077  0.48159537  0.05301341  1  0.151668  0  0.117605  0.135898  0  1.006129  0
H  H53  1  0.19916232  0.01840616  0.44698350  1  0.151938  0  0.117588  0.135909  0  1.006148  0
H  H54  1  0.30084097  0.51840662  0.94698545  1  0.152005  0  0.117581  0.135868  0  1.006054  0
H  H55  1  0.80083669  0.98159348  0.55301497  1  0.151944  0  0.117602  0.135925  0  1.006129  0
C  C56  1  0.43182643  0.01882090  0.79242897  1  1.607751  0  0.226862  0.573955  0  4.202647  0
C  C57  1  0.93180297  0.48117173  0.70756967  1  1.607663  0  0.226833  0.574017  0  4.202278  0
C  C58  1  0.56817258  0.98117797  0.20757037  1  1.607453  0  0.226818  0.573974  0  4.20262  0
C  C59  1  0.06819468  0.51882951  0.29243058  1  1.607865  0  0.22681  0.574059  0  4.202255  0
C  C60  1  0.30547506  0.95400466  0.82420375  1  0.4878  0  0.117877  0.104991  0  4.004161  0
C  C61  1  0.80545872  0.54599214  0.67579312  1  0.487694  0  0.117763  0.104727  0  4.004475  0
C  C62  1  0.69452531  0.04599421  0.17579560  1  0.487789  0  0.117859  0.104963  0  4.004272  0
C  C63  1  0.19453757  0.45400910  0.32420714  1  0.48785  0  0.117813  0.104797  0  4.004458  0
C  C64  1  0.34414840  0.85115625  0.82558255  1  -0.006075  0  -0.069208  -0.122785  0  3.924027  0
C  C65  1  0.84413791  0.64883655  0.67441098  1  -0.005383  0  -0.069232  -0.122705  0  3.92414  0
C  C66  1  0.65585197  0.14884266  0.17441833  1  -0.006114  0  -0.06924  -0.1229  0  3.924122  0
C  C67  1  0.15586111  0.35116312  0.32558901  1  -0.005582  0  -0.069227  -0.122705  0  3.924169  0
C  C68  1  0.21664331  0.79806763  0.85590856  1  -0.01123  0  -0.06794  -0.035154  0  3.96936  0
C  C69  1  0.71661315  0.70192930  0.64408241  1  -0.011242  0  -0.068074  -0.035595  0  3.969407  0
C  C70  1  0.78335434  0.20193205  0.14409194  1  -0.011245  0  -0.067912  -0.035116  0  3.969248  0
C  C71  1  0.28338450  0.29807117  0.35591874  1  -0.011046  0  -0.068106  -0.035618  0  3.969335  0
C  C72  1  0.05971007  0.85071744  0.88623622  1  0.00619  0  -0.069426  -0.117101  0  3.898652  0
C  C73  1  0.55968173  0.64928050  0.61375997  1  0.006104  0  -0.069484  -0.116664  0  3.898403  0
C  C74  1  0.94029031  0.14928224  0.11376428  1  0.00625  0  -0.069422  -0.117039  0  3.898611  0
C  C75  1  0.44031865  0.35072000  0.38624219  1  0.006121  0  -0.069459  -0.116662  0  3.898277  0
C  C76  1  0.03551749  0.95474944  0.88485336  1  0.489534  0  0.125033  0.136975  0  3.964227  0
C  C77  1  0.53549700  0.54524742  0.61514190  1  0.490182  0  0.125059  0.136655  0  3.964443  0
C  C78  1  0.96448016  0.04525106  0.11514880  1  0.489558  0  0.124944  0.136765  0  3.964371  0
C  C79  1  0.46450201  0.45475380  0.38485734  1  0.490212  0  0.125082  0.136727  0  3.96445  0
C  C80  1  0.88225286  0.02282824  0.92167913  1  1.584591  0  0.212312  0.564137  0  4.187305  0
C  C81  1  0.38223409  0.47716923  0.57831530  1  1.584584  0  0.21231  0.563998  0  4.18731  0
C  C82  1  0.11774751  0.97717224  0.07832201  1  1.584994  0  0.212285  0.564047  0  4.187299  0
C  C83  1  0.61776628  0.52282887  0.42168443  1  1.584605  0  0.212362  0.56407  0  4.187306  0
C  C84  1  0.30248372  0.25055124  0.00694009  1  1.583857  0  0.211137  0.561745  0  4.188196  0
C  C85  1  0.80247694  0.24944439  0.49306341  1  1.584226  0  0.21113  0.56183  0  4.188098  0
C  C86  1  0.69751665  0.74944843  0.99305990  1  1.583845  0  0.211185  0.561819  0  4.188137  0
C  C87  1  0.19752207  0.75055369  0.50693581  1  1.584371  0  0.211156  0.561875  0  4.188137  0
C  C88  1  0.14558727  0.32612662  0.02433780  1  0.506161  0  0.123017  0.121278  0  3.970243  0
C  C89  1  0.64558083  0.17386991  0.47566584  1  0.506197  0  0.123008  0.121367  0  3.970347  0
C  C90  1  0.85441038  0.67387382  0.97566182  1  0.506204  0  0.123008  0.12123  0  3.970427  0
C  C91  1  0.35441682  0.82612822  0.52433490  1  0.505984  0  0.123037  0.121413  0  3.970283  0
C  C92  1  0.11246750  0.39295367  0.09104026  1  -0.010595  0  -0.065847  -0.1164  0  3.910748  0
C  C93  1  0.61245326  0.10704043  0.40896416  1  -0.01017  0  -0.065922  -0.116615  0  3.911081  0
C  C94  1  0.88753696  0.60704757  0.90896000  1  -0.012495  0  -0.065851  -0.11641  0  3.910858  0
C  C95  1  0.38754576  0.89295688  0.59103543  1  -0.010184  0  -0.065958  -0.116606  0  3.911059  0
C  C96  1  0.95139879  0.45096044  0.10215733  1  -0.080145  0  -0.061485  -0.024789  0  3.929868  0
C  C97  1  0.45140010  0.04904063  0.39784196  1  -0.079567  0  -0.061498  -0.024741  0  3.929726  0
C  C98  1  0.04860022  0.54904238  0.89784370  1  -0.080335  0  -0.061503  -0.024833  0  3.929993  0
C  C99  1  0.54859756  0.95096057  0.60215677  1  -0.079813  0  -0.061472  -0.02473  0  3.929725  0
C  C100  1  0.82806620  0.43973241  0.04690564  1  -0.046171  0  -0.062481  -0.108505  0  3.880834  0
C  C101  1  0.32805553  0.06026565  0.45309042  1  -0.046922  0  -0.062542  -0.108695  0  3.880543  0
C  C102  1  0.17193145  0.56027036  0.95309336  1  -0.046717  0  -0.062384  -0.108359  0  3.88073  0
C  C103  1  0.67194484  0.93973241  0.54690778  1  -0.046594  0  -0.062576  -0.108646  0  3.880556  0
C  C104  1  0.87436266  0.37355844  0.98150064  1  0.548836  0  0.122349  0.111179  0  3.996082  0
C  C105  1  0.37436453  0.12644241  0.51849784  1  0.548886  0  0.122341  0.111263  0  3.996117  0
C  C106  1  0.12563907  0.62644121  0.01849834  1  0.548883  0  0.122284  0.111131  0  3.996012  0
C  C107  1  0.62563720  0.87355644  0.48150050  1  0.548849  0  0.12234  0.111188  0  3.996128  0
C  C108  1  0.75219465  0.35712794  0.91824036  1  1.589482  0  0.227872  0.569756  0  4.206633  0
C  C109  1  0.25218200  0.14287073  0.58175807  1  1.588761  0  0.227712  0.569413  0  4.20694  0
C  C110  1  0.24780572  0.64287250  0.08175926  1  1.589574  0  0.227825  0.569773  0  4.206577  0
C  C111  1  0.74781565  0.85712814  0.41824127  1  1.588717  0  0.227696  0.56945  0  4.207025  0
N  N112  1  0.15338069  0.00353947  0.85253477  1  -1.217844  0  -0.376863  -0.37387  0  3.56647  0
N  N113  1  0.65337505  0.49645894  0.64746568  1  -1.21802  0  -0.376765  -0.373548  0  3.566568  0
N  N114  1  0.84661833  0.99646022  0.14746623  1  -1.217963  0  -0.376819  -0.373704  0  3.566369  0
N  N115  1  0.34662532  0.50354149  0.35253342  1  -1.218185  0  -0.376788  -0.373598  0  3.566652  0
N  N116  1  0.02998206  0.31906620  0.97078927  1  -1.243188  0  -0.381259  -0.355526  0  3.551472  0
N  N117  1  0.52996863  0.18093090  0.52921381  1  -1.243297  0  -0.381171  -0.355502  0  3.551816  0
N  N118  1  0.97001695  0.68093501  0.02920997  1  -1.243189  0  -0.381247  -0.355539  0  3.551489  0
N  N119  1  0.47003038  0.81906879  0.47078719  1  -1.243242  0  -0.381184  -0.355527  0  3.551795  0
O  O120  1  0.36449394  0.10479938  0.78500040  1  -1.188265  0  -0.356635  -0.622127  0  2.270014  0
O  O121  1  0.86449238  0.39520099  0.71500296  1  -1.188141  0  -0.356621  -0.622119  0  2.26996  0
O  O122  1  0.63551051  0.89519871  0.21499882  1  -1.187992  0  -0.356619  -0.622142  0  2.269858  0
O  O123  1  0.13551071  0.60479945  0.28499666  1  -1.188167  0  -0.35663  -0.62214  0  2.269903  0
O  O124  1  0.58937802  0.98375570  0.77589273  1  -1.179009  0  -0.305595  -0.531714  0  2.172656  0
O  O125  1  0.08936155  0.51624405  0.72410658  1  -1.179112  0  -0.305552  -0.531707  0  2.172204  0
O  O126  1  0.41061963  0.01624553  0.22410702  1  -1.178987  0  -0.305546  -0.531706  0  2.172729  0
O  O127  1  0.91064018  0.48375486  0.27589429  1  -1.17926  0  -0.305527  -0.531731  0  2.17226  0
O  O128  1  0.87444754  0.11574156  0.91556170  1  -1.172742  0  -0.37308  -0.633134  0  2.331999  0
O  O129  1  0.37442932  0.38425223  0.58443608  1  -1.172831  0  -0.373002  -0.632982  0  2.331913  0
O  O130  1  0.12555691  0.88425812  0.08443880  1  -1.173144  0  -0.373079  -0.633092  0  2.332007  0
O  O131  1  0.62557650  0.61574509  0.41556402  1  -1.172829  0  -0.373086  -0.633082  0  2.331859  0
O  O132  1  0.41212775  0.24551173  0.05569323  1  -1.112415  0  -0.323924  -0.500744  0  2.25184  0
O  O133  1  0.91211449  0.25448169  0.44431248  1  -1.112851  0  -0.323894  -0.500727  0  2.251885  0
O  O134  1  0.58787262  0.75449029  0.94430716  1  -1.112387  0  -0.323927  -0.500773  0  2.251817  0
O  O135  1  0.08788996  0.74551716  0.55568585  1  -1.112852  0  -0.323908  -0.500759  0  2.251971  0
O  O136  1  0.31018807  0.19223469  0.94421839  1  -1.172018  0  -0.376333  -0.62579  0  2.32711  0
O  O137  1  0.81018335  0.30776372  0.55578663  1  -1.172154  0  -0.37633  -0.625935  0  2.326976  0
O  O138  1  0.68981230  0.80776733  0.05578200  1  -1.172028  0  -0.376394  -0.625853  0  2.327101  0
O  O139  1  0.18981566  0.69223441  0.44421411  1  -1.172202  0  -0.376359  -0.625968  0  2.326971  0
O  O140  1  0.77414083  0.98383658  0.95830317  1  -1.107884  0  -0.31445  -0.5008  0  2.34458  0
O  O141  1  0.27411308  0.51615843  0.54168954  1  -1.108166  0  -0.314464  -0.500749  0  2.344598  0
O  O142  1  0.22586362  0.01616389  0.04169746  1  -1.107855  0  -0.314425  -0.50074  0  2.344557  0
O  O143  1  0.72588593  0.48384283  0.45831173  1  -1.108214  0  -0.31448  -0.500802  0  2.344658  0
O  O144  1  0.81883126  0.29967067  0.86019259  1  -1.182669  0  -0.369934  -0.620831  0  2.287567  0
O  O145  1  0.31883196  0.20033612  0.63981091  1  -1.181639  0  -0.369852  -0.620804  0  2.28742  0
O  O146  1  0.18117047  0.70032976  0.13980651  1  -1.182716  0  -0.369891  -0.620837  0  2.287526  0
O  O147  1  0.68117250  0.79966511  0.36018935  1  -1.181667  0  -0.369819  -0.62077  0  2.287542  0
O  O148  1  0.59878903  0.39974079  0.92638136  1  -1.177907  0  -0.298476  -0.513751  0  2.174548  0
O  O149  1  0.09880620  0.10026886  0.57361694  1  -1.178085  0  -0.298348  -0.513419  0  2.175082  0
O  O150  1  0.40121270  0.60026275  0.07361676  1  -1.177952  0  -0.298471  -0.513767  0  2.174585  0
O  O151  1  0.90119417  0.89973081  0.42638306  1  -1.178073  0  -0.298355  -0.513468  0  2.175056  0
O  O152  1  0.29716555  0.33927384  0.85894407  1  -1.286679  0  -0.660236  -0.870709  0  2.15595  0
O  O153  1  0.79717770  0.16071534  0.64105571  1  -1.286412  0  -0.660217  -0.870624  0  2.155902  0
O  O154  1  0.70283483  0.66072581  0.14105541  1  -1.286677  0  -0.660211  -0.870642  0  2.156037  0
O  O155  1  0.20282131  0.83928433  0.35894428  1  -1.286408  0  -0.660197  -0.870587  0  2.155929  0
O  O156  1  0.09056399  0.25405641  0.74676229  1  -1.301317  0  -0.660449  -0.855643  0  2.104656  0
O  O157  1  0.59056669  0.24592994  0.75323500  1  -1.301586  0  -0.660457  -0.85568  0  2.104679  0
O  O158  1  0.90943638  0.74594166  0.25323642  1  -1.301361  0  -0.660433  -0.855595  0  2.104664  0
O  O159  1  0.40943232  0.75406816  0.24676473  1  -1.30159  0  -0.660436  -0.855682  0  2.104653  0
O  O160  1  0.89253271  0.07373865  0.75705766  1  -1.232732  0  -0.597033  -0.820699  0  2.082854  0
O  O161  1  0.39254412  0.42625564  0.74294392  1  -1.232888  0  -0.597149  -0.820958  0  2.082777  0
O  O162  1  0.10746766  0.92625865  0.24294091  1  -1.232745  0  -0.596962  -0.820565  0  2.082854  0
O  O163  1  0.60745489  0.57374481  0.25705620  1  -1.232874  0  -0.597117  -0.820926  0  2.082785  0
