# generated using pymatgen
data_Cd3H8C10(Br3N)2
_symmetry_space_group_name_H-M   'P 1'
_cell_length_a   3.95528253
_cell_length_b   13.17381303
_cell_length_c   17.96651418
_cell_angle_alpha   90.00031826
_cell_angle_beta   89.99959648
_cell_angle_gamma   89.99947286
_symmetry_Int_Tables_number   1
_chemical_formula_structural   Cd3H8C10(Br3N)2
_chemical_formula_sum   'Cd6 H16 C20 Br12 N4'
_cell_volume   936.16592886
_cell_formula_units_Z   2
loop_
 _symmetry_equiv_pos_site_id
 _symmetry_equiv_pos_as_xyz
  1  'x, y, z'
loop_
 _atom_site_type_symbol
 _atom_site_label
 _atom_site_symmetry_multiplicity
 _atom_site_fract_x
 _atom_site_fract_y
 _atom_site_fract_z
 _atom_site_occupancy
 _atom_site_hle17_bader_spin_density
 _atom_site_hle17_ddec_charge
 _atom_site_hle17_ddec_spin_density
 _atom_site_hle17_ddec_sum_bond_order
 _atom_site_hle17_magmom
 _atom_site_hse06_10hf_bader_spin_density
 _atom_site_hse06_10hf_ddec_charge
 _atom_site_hse06_10hf_ddec_spin_density
 _atom_site_hse06_10hf_ddec_sum_bond_order
 _atom_site_hse06_10hf_magmom
 _atom_site_hse06_bader_spin_density
 _atom_site_hse06_ddec_charge
 _atom_site_hse06_ddec_spin_density
 _atom_site_hse06_ddec_sum_bond_order
 _atom_site_hse06_magmom
 _atom_site_pbe_bader_spin_density
 _atom_site_pbe_cm5_charge
 _atom_site_pbe_ddec_charge
 _atom_site_pbe_ddec_spin_density
 _atom_site_pbe_ddec_sum_bond_order
 _atom_site_pbe_magmom
Cd  Cd0  1  0.90344206  0.50000183  0.49999760  1  0  0.815689  0  2.126196  0  0  0.680977  0  2.572936  0  0  0.727658  0  2.538307  0  0  0.422225  0.648471  0  2.596031  0
Cd  Cd1  1  0.09657364  0.00000024  0.99999858  1  0  0.815697  0  2.12614  0  0  0.680936  0  2.572971  0  0  0.72762  0  2.538333  0  0  0.422196  0.64843  0  2.59607  0
Cd  Cd2  1  0.42301995  0.39014593  0.68211713  1  0  0.826997  0  2.051625  0  0  0.67296  0  2.503602  0  0  0.722441  0  2.466687  0  0  0.487959  0.638584  0  2.52824  0
Cd  Cd3  1  0.42306302  0.60985908  0.31787714  1  0  0.826948  0  2.051697  0  0  0.672924  0  2.503669  0  0  0.722404  0  2.466756  0  0  0.487932  0.638545  0  2.528308  0
Cd  Cd4  1  0.57696305  0.10985196  0.18212691  1  0  0.826981  0  2.051679  0  0  0.672981  0  2.503629  0  0  0.722466  0  2.466713  0  0  0.487958  0.638603  0  2.528267  0
Cd  Cd5  1  0.57697656  0.89015110  0.81787826  1  0  0.827023  0  2.05159  0  0  0.673015  0  2.503526  0  0  0.722498  0  2.466611  0  0  0.487974  0.638642  0  2.528162  0
H  H6  1  0.60471168  0.57842949  0.78824587  1  0  0.081176  0  0.96718  0  0  0.088095  0  1.037217  0  0  0.090758  0  1.034016  0  0  0.0926  0.086057  0  1.039699  0
H  H7  1  0.60471828  0.42155983  0.21174923  1  0  0.081103  0  0.967234  0  0  0.088042  0  1.037284  0  0  0.090701  0  1.034078  0  0  0.09258  0.086003  0  1.039761  0
H  H8  1  0.39527071  0.92155539  0.28825763  1  0  0.081197  0  0.967158  0  0  0.088043  0  1.037261  0  0  0.090699  0  1.034048  0  0  0.092617  0.08601  0  1.039735  0
H  H9  1  0.39527893  0.07844819  0.71175115  1  0  0.081189  0  0.967214  0  0  0.088117  0  1.037245  0  0  0.090774  0  1.034033  0  0  0.092603  0.086079  0  1.039728  0
H  H10  1  0.60742664  0.63135549  0.92041073  1  0  0.111923  0  0.961394  0  0  0.118354  0  1.029919  0  0  0.121821  0  1.028229  0  0  0.096497  0.115836  0  1.031336  0
H  H11  1  0.60741886  0.36863610  0.07958215  1  0  0.111983  0  0.9613  0  0  0.118411  0  1.029818  0  0  0.121879  0  1.028124  0  0  0.096577  0.115893  0  1.031232  0
H  H12  1  0.39255653  0.86863581  0.42042564  1  0  0.111946  0  0.961274  0  0  0.118356  0  1.029811  0  0  0.121825  0  1.028117  0  0  0.096548  0.115817  0  1.031242  0
H  H13  1  0.39255228  0.13136778  0.57958260  1  0  0.11197  0  0.961254  0  0  0.118397  0  1.029761  0  0  0.121865  0  1.028069  0  0  0.096521  0.115878  0  1.031175  0
H  H14  1  0.22668874  0.33221357  0.97597217  1  0  0.116565  0  0.951804  0  0  0.125819  0  1.014025  0  0  0.129329  0  1.012329  0  0  0.099874  0.123258  0  1.015457  0
H  H15  1  0.22670167  0.66778442  0.02402741  1  0  0.116582  0  0.951873  0  0  0.125791  0  1.014136  0  0  0.129305  0  1.01243  0  0  0.09985  0.123228  0  1.015571  0
H  H16  1  0.77330498  0.16778071  0.47597574  1  0  0.116486  0  0.951976  0  0  0.125766  0  1.014168  0  0  0.129282  0  1.012455  0  0  0.099823  0.123204  0  1.015601  0
H  H17  1  0.77329685  0.83222104  0.52403079  1  0  0.116608  0  0.951942  0  0  0.125878  0  1.014125  0  0  0.129389  0  1.012428  0  0  0.099905  0.123315  0  1.015557  0
H  H18  1  0.23837717  0.29178733  0.84049617  1  0  0.083385  0  0.948643  0  0  0.088286  0  1.019452  0  0  0.091344  0  1.016065  0  0  0.102335  0.085974  0  1.022031  0
H  H19  1  0.23839716  0.70820834  0.15950395  1  0  0.08339  0  0.948679  0  0  0.088248  0  1.019539  0  0  0.091305  0  1.016155  0  0  0.102349  0.085938  0  1.022114  0
H  H20  1  0.76162852  0.20819670  0.34049656  1  0  0.08342  0  0.948749  0  0  0.088289  0  1.019589  0  0  0.091343  0  1.016207  0  0  0.102365  0.085979  0  1.022163  0
H  H21  1  0.76162984  0.79180431  0.65950887  1  0  0.083449  0  0.948744  0  0  0.088282  0  1.019648  0  0  0.091336  0  1.016266  0  0  0.102361  0.085972  0  1.022226  0
C  C22  1  0.52118296  0.52606454  0.83147682  1  0  0.143087  0  3.6952  0  0  0.110311  0  3.94835  0  0  0.118346  0  3.966341  0  0  0.03784  0.105101  0  3.936162  0
C  C23  1  0.52119193  0.47392653  0.16851841  1  0  0.14329  0  3.694886  0  0  0.110499  0  3.948021  0  0  0.118541  0  3.966008  0  0  0.037912  0.105289  0  3.935831  0
C  C24  1  0.47879297  0.97392070  0.33148363  1  0  0.143222  0  3.694281  0  0  0.110559  0  3.947411  0  0  0.118614  0  3.965377  0  0  0.03792  0.10534  0  3.935225  0
C  C25  1  0.47879910  0.02608188  0.66852335  1  0  0.143302  0  3.694647  0  0  0.110496  0  3.947834  0  0  0.118552  0  3.965803  0  0  0.037974  0.105279  0  3.935649  0
C  C26  1  0.52155803  0.55528494  0.90582797  1  0  -0.147341  0  3.686234  0  0  -0.163821  0  3.93275  0  0  -0.171083  0  3.952978  0  0  -0.083317  -0.159153  0  3.919212  0
C  C27  1  0.52156522  0.44470917  0.09416670  1  0  -0.147585  0  3.686132  0  0  -0.164034  0  3.932669  0  0  -0.171294  0  3.952894  0  0  -0.083516  -0.159375  0  3.919136  0
C  C28  1  0.47842561  0.94470852  0.40584024  1  0  -0.147419  0  3.686135  0  0  -0.163811  0  3.932604  0  0  -0.171075  0  3.952831  0  0  -0.083417  -0.159136  0  3.91908  0
C  C29  1  0.47842568  0.05529255  0.59416786  1  0  -0.147523  0  3.68647  0  0  -0.163974  0  3.932894  0  0  -0.17124  0  3.953122  0  0  -0.083451  -0.15931  0  3.919361  0
C  C30  1  0.41566183  0.48604720  0.96017904  1  0  0.095586  0  3.753961  0  0  0.107193  0  3.984155  0  0  0.110981  0  4.005797  0  0  0.012367  0.104873  0  3.969248  0
C  C31  1  0.41566619  0.51394948  0.03981636  1  0  0.095734  0  3.754065  0  0  0.107274  0  3.984272  0  0  0.111062  0  4.005914  0  0  0.012448  0.10497  0  3.969339  0
C  C32  1  0.58432229  0.01393935  0.46018400  1  0  0.095636  0  3.754455  0  0  0.107075  0  3.98475  0  0  0.110859  0  4.006399  0  0  0.012378  0.104775  0  3.969804  0
C  C33  1  0.58432424  0.98606521  0.53982226  1  0  0.095378  0  3.754392  0  0  0.107094  0  3.984422  0  0  0.110883  0  4.006066  0  0  0.012315  0.104778  0  3.9695  0
C  C34  1  0.31319816  0.38924005  0.93639191  1  0  -0.152677  0  3.686118  0  0  -0.168954  0  3.930301  0  0  -0.176435  0  3.95117  0  0  -0.083121  -0.164109  0  3.916255  0
C  C35  1  0.31322415  0.61075541  0.06360476  1  0  -0.152696  0  3.686351  0  0  -0.168937  0  3.930567  0  0  -0.176416  0  3.951438  0  0  -0.083084  -0.164097  0  3.916523  0
C  C36  1  0.68678420  0.11075921  0.43639874  1  0  -0.152512  0  3.685875  0  0  -0.168799  0  3.930125  0  0  -0.176278  0  3.951001  0  0  -0.083012  -0.163959  0  3.916076  0
C  C37  1  0.68678826  0.88924202  0.56360848  1  0  -0.152598  0  3.685837  0  0  -0.168903  0  3.929963  0  0  -0.176385  0  3.950834  0  0  -0.08308  -0.164057  0  3.915916  0
C  C38  1  0.31910828  0.36602245  0.86093315  1  0  0.135504  0  3.692264  0  0  0.105843  0  3.942617  0  0  0.113132  0  3.961402  0  0  0.04187  0.101159  0  3.92979  0
C  C39  1  0.31913113  0.63397072  0.13906406  1  0  0.13551  0  3.692287  0  0  0.105897  0  3.942642  0  0  0.113184  0  3.961429  0  0  0.041841  0.101219  0  3.929794  0
C  C40  1  0.68088158  0.13396707  0.36093451  1  0  0.135462  0  3.692245  0  0  0.105847  0  3.942674  0  0  0.113129  0  3.961465  0  0  0.041862  0.101167  0  3.929834  0
C  C41  1  0.68088895  0.86603190  0.63907105  1  0  0.135533  0  3.692158  0  0  0.105908  0  3.942584  0  0  0.11319  0  3.961375  0  0  0.04186  0.101225  0  3.929749  0
Br  Br42  1  0.91679329  0.54127675  0.65147112  1  0  -0.442324  0  1.246476  0  0  -0.374809  0  1.571693  0  0  -0.397843  0  1.550293  0  0  -0.215979  -0.35862  0  1.58612  0
Br  Br43  1  0.91679436  0.45872687  0.34852573  1  0  -0.442338  0  1.246489  0  0  -0.374822  0  1.571718  0  0  -0.397851  0  1.55031  0  0  -0.21601  -0.358634  0  1.586143  0
Br  Br44  1  0.08324915  0.95872749  0.15147014  1  0  -0.442345  0  1.24657  0  0  -0.374797  0  1.571759  0  0  -0.397853  0  1.550407  0  0  -0.215994  -0.358609  0  1.586186  0
Br  Br45  1  0.08321613  0.04128456  0.84852632  1  0  -0.44239  0  1.246513  0  0  -0.374859  0  1.57169  0  0  -0.397912  0  1.550332  0  0  -0.215994  -0.358669  0  1.586116  0
Br  Br46  1  0.92572671  0.24986243  0.69733368  1  0  -0.47419  0  1.160578  0  0  -0.412628  0  1.482898  0  0  -0.434269  0  1.462417  0  0  -0.242533  -0.397316  0  1.49687  0
Br  Br47  1  0.92576610  0.75014419  0.30264535  1  0  -0.474126  0  1.160468  0  0  -0.412635  0  1.48294  0  0  -0.434277  0  1.462463  0  0  -0.2425  -0.397326  0  1.496909  0
Br  Br48  1  0.07425074  0.25014090  0.19734642  1  0  -0.47416  0  1.160468  0  0  -0.412636  0  1.48286  0  0  -0.434284  0  1.462391  0  0  -0.242525  -0.397325  0  1.496831  0
Br  Br49  1  0.07426891  0.74986511  0.80265618  1  0  -0.474197  0  1.160499  0  0  -0.412651  0  1.482814  0  0  -0.434294  0  1.462339  0  0  -0.242543  -0.397339  0  1.496787  0
Br  Br50  1  0.40430017  0.64676481  0.47749806  1  0  -0.461984  0  1.266817  0  0  -0.393272  0  1.585636  0  0  -0.4165  0  1.565686  0  0  -0.222374  -0.376909  0  1.5991  0
Br  Br51  1  0.40430886  0.35324102  0.52249512  1  0  -0.461954  0  1.266819  0  0  -0.393244  0  1.585627  0  0  -0.416476  0  1.565678  0  0  -0.222364  -0.376883  0  1.599098  0
Br  Br52  1  0.59571402  0.85323912  0.97749845  1  0  -0.461973  0  1.266862  0  0  -0.393222  0  1.585604  0  0  -0.416443  0  1.565647  0  0  -0.222361  -0.376863  0  1.59908  0
Br  Br53  1  0.59570205  0.14676010  0.02250223  1  0  -0.461966  0  1.266808  0  0  -0.393264  0  1.585658  0  0  -0.416485  0  1.565707  0  0  -0.222364  -0.376902  0  1.599132  0
N  N54  1  0.42122218  0.43345891  0.80913517  1  0  -0.323609  0  3.279373  0  0  -0.243886  0  3.539311  0  0  -0.26587  0  3.562302  0  0  -0.335131  -0.228988  0  3.523307  0
N  N55  1  0.42124537  0.56653549  0.19086078  1  0  -0.323622  0  3.279196  0  0  -0.243897  0  3.539132  0  0  -0.265881  0  3.562118  0  0  -0.335102  -0.228998  0  3.523134  0
N  N56  1  0.57875671  0.06652563  0.30914312  1  0  -0.323698  0  3.279216  0  0  -0.244067  0  3.539251  0  0  -0.266048  0  3.562227  0  0  -0.33524  -0.22917  0  3.523252  0
N  N57  1  0.57876545  0.93347439  0.69086371  1  0  -0.323724  0  3.279088  0  0  -0.24404  0  3.53913  0  0  -0.266021  0  3.562106  0  0  -0.335227  -0.229144  0  3.523133  0
