# generated using pymatgen
data_H4PbC4O5
_symmetry_space_group_name_H-M   'P 1'
_cell_length_a   7.09701057
_cell_length_b   7.73535713
_cell_length_c   7.82664197
_cell_angle_alpha   79.65872982
_cell_angle_beta   54.84749216
_cell_angle_gamma   70.97113525
_symmetry_Int_Tables_number   1
_chemical_formula_structural   H4PbC4O5
_chemical_formula_sum   'H8 Pb2 C8 O10'
_cell_volume   332.08881116
_cell_formula_units_Z   2
loop_
 _symmetry_equiv_pos_site_id
 _symmetry_equiv_pos_as_xyz
  1  'x, y, z'
loop_
 _atom_site_type_symbol
 _atom_site_label
 _atom_site_symmetry_multiplicity
 _atom_site_fract_x
 _atom_site_fract_y
 _atom_site_fract_z
 _atom_site_occupancy
 _atom_site_hle17_bader_spin_density
 _atom_site_hle17_ddec_charge
 _atom_site_hle17_ddec_spin_density
 _atom_site_hle17_ddec_sum_bond_order
 _atom_site_hle17_magmom
 _atom_site_hse06_10hf_bader_spin_density
 _atom_site_hse06_10hf_ddec_charge
 _atom_site_hse06_10hf_ddec_spin_density
 _atom_site_hse06_10hf_ddec_sum_bond_order
 _atom_site_hse06_10hf_magmom
 _atom_site_hse06_bader_spin_density
 _atom_site_hse06_ddec_charge
 _atom_site_hse06_ddec_spin_density
 _atom_site_hse06_ddec_sum_bond_order
 _atom_site_hse06_magmom
 _atom_site_pbe_bader_spin_density
 _atom_site_pbe_cm5_charge
 _atom_site_pbe_ddec_charge
 _atom_site_pbe_ddec_spin_density
 _atom_site_pbe_ddec_sum_bond_order
 _atom_site_pbe_magmom
H  H0  1  0.54670197  0.47406515  0.02858535  1  0  0.416903  0  0.888597  0  0  0.385858  0  0.952925  0  0  0.396411  0  0.937751  0  0  0.281688  0.378388  0  0.963627  0
H  H1  1  0.21298174  0.64638536  0.03498079  1  0  0.437278  0  0.814825  0  0  0.411482  0  0.881735  0  0  0.420523  0  0.871581  0  0  0.315148  0.40511  0  0.888819  0
H  H2  1  0.71249197  0.50322859  0.09171034  1  0  0.429461  0  0.865363  0  0  0.39672  0  0.931494  0  0  0.40804  0  0.915114  0  0  0.289545  0.388687  0  0.943077  0
H  H3  1  0.31833910  0.45999794  0.91273152  1  0  0.434765  0  0.869196  0  0  0.398204  0  0.940998  0  0  0.410405  0  0.92356  0  0  0.290948  0.38961  0  0.953228  0
H  H4  1  0.37533871  0.17239478  0.12060950  1  0  0.099697  0  0.966117  0  0  0.110701  0  1.028881  0  0  0.113392  0  1.027899  0  0  0.107785  0.108748  0  1.029865  0
H  H5  1  0.66620981  0.80659932  0.87805539  1  0  0.099711  0  0.962467  0  0  0.110054  0  1.02612  0  0  0.112953  0  1.024997  0  0  0.106418  0.107974  0  1.027151  0
H  H6  1  0.90834471  0.01256163  0.35271353  1  0  0.123828  0  0.945512  0  0  0.128869  0  1.011612  0  0  0.133473  0  1.008588  0  0  0.112319  0.125549  0  1.013964  0
H  H7  1  0.09698462  0.99447588  0.62874941  1  0  0.126755  0  0.942912  0  0  0.13315  0  1.007075  0  0  0.137636  0  1.004113  0  0  0.115239  0.12993  0  1.009386  0
Pb  Pb8  1  0.36597487  0.31462679  0.46148831  1  0  1.422251  0  1.360052  0  0  1.242469  0  1.753364  0  0  1.306167  0  1.703491  0  0  0.665761  1.196447  0  1.788207  0
Pb  Pb9  1  0.63748103  0.68448420  0.53943120  1  0  1.412851  0  1.363869  0  0  1.230192  0  1.759966  0  0  1.295211  0  1.710529  0  0  0.661757  1.18323  0  1.794415  0
C  C10  1  0.36517817  0.12715734  0.85681990  1  0  0.688347  0  3.916319  0  0  0.642459  0  4.203067  0  0  0.677454  0  4.195451  0  0  0.209144  0.618712  0  4.20726  0
C  C11  1  0.66981685  0.85414516  0.14449906  1  0  0.678214  0  3.920851  0  0  0.633896  0  4.204682  0  0  0.668907  0  4.197779  0  0  0.204538  0.610139  0  4.208344  0
C  C12  1  0.44247367  0.07031090  0.00468102  1  0  -0.141136  0  3.637856  0  0  -0.15741  0  3.885079  0  0  -0.162102  0  3.900535  0  0  -0.07545  -0.154426  0  3.874975  0
C  C13  1  0.59553479  0.90918586  0.99483838  1  0  -0.151596  0  3.645111  0  0  -0.168485  0  3.893579  0  0  -0.174492  0  3.90928  0  0  -0.080952  -0.164602  0  3.883288  0
C  C14  1  0.85650016  0.26180830  0.49086646  1  0  0.689164  0  3.907963  0  0  0.639333  0  4.195455  0  0  0.67522  0  4.188731  0  0  0.213764  0.614871  0  4.19909  0
C  C15  1  0.14833001  0.74586257  0.48833379  1  0  0.690314  0  3.906507  0  0  0.641679  0  4.194727  0  0  0.677301  0  4.187768  0  0  0.213812  0.617446  0  4.198547  0
C  C16  1  0.94475140  0.06201127  0.45023483  1  0  -0.16709  0  3.665083  0  0  -0.186438  0  3.925749  0  0  -0.192719  0  3.940729  0  0  -0.078089  -0.182392  0  3.916098  0
C  C17  1  0.06154430  0.94565727  0.53014944  1  0  -0.169484  0  3.671334  0  0  -0.189809  0  3.932207  0  0  -0.195989  0  3.947939  0  0  -0.077141  -0.185868  0  3.922057  0
O  O18  1  0.27890377  0.29933995  0.84492131  1  0  -0.641263  0  1.973645  0  0  -0.572109  0  2.191629  0  0  -0.601822  0  2.181591  0  0  -0.292527  -0.551159  0  2.197746  0
O  O19  1  0.78635271  0.68641276  0.13871087  1  0  -0.653939  0  1.929007  0  0  -0.587827  0  2.147206  0  0  -0.616251  0  2.137052  0  0  -0.300994  -0.567766  0  2.153428  0
O  O20  1  0.39215144  0.00976248  0.74472475  1  0  -0.705735  0  1.979422  0  0  -0.636535  0  2.210869  0  0  -0.669084  0  2.204209  0  0  -0.30726  -0.613456  0  2.214653  0
O  O21  1  0.60724337  0.96819556  0.27921295  1  0  -0.70579  0  1.996232  0  0  -0.632999  0  2.229622  0  0  -0.666809  0  2.224027  0  0  -0.300829  -0.609067  0  2.232652  0
O  O22  1  0.91847330  0.33521655  0.57610914  1  0  -0.671871  0  1.985706  0  0  -0.60038  0  2.213362  0  0  -0.632188  0  2.207253  0  0  -0.289668  -0.578079  0  2.216871  0
O  O23  1  0.08811337  0.67633488  0.39787920  1  0  -0.693138  0  1.991798  0  0  -0.62343  0  2.224083  0  0  -0.654288  0  2.216814  0  0  -0.298939  -0.601813  0  2.228486  0
O  O24  1  0.71495601  0.35728927  0.43419495  1  0  -0.674853  0  2.04073  0  0  -0.586568  0  2.27569  0  0  -0.621983  0  2.268415  0  0  -0.283074  -0.561657  0  2.279704  0
O  O25  1  0.28432972  0.64749835  0.54947633  1  0  -0.678322  0  2.016086  0  0  -0.594164  0  2.253404  0  0  -0.628775  0  2.245256  0  0  -0.281793  -0.56983  0  2.258104  0
O  O26  1  0.64044636  0.41311760  0.09099791  1  0  -0.844649  0  1.816018  0  0  -0.784261  0  1.991062  0  0  -0.807712  0  1.958904  0  0  -0.572273  -0.767399  0  2.013309  0
O  O27  1  0.36405049  0.56188212  0.93428761  1  0  -0.850671  0  1.846598  0  0  -0.784651  0  2.0362  0  0  -0.808879  0  2.00768  0  0  -0.548876  -0.767329  0  2.05583  0
