# generated using pymatgen
data_CoH21C17(NO2)2
_symmetry_space_group_name_H-M   'P 1'
_cell_length_a   9.91896515
_cell_length_b   12.95868148
_cell_length_c   13.67283636
_cell_angle_alpha   89.99998189
_cell_angle_beta   89.55539365
_cell_angle_gamma   89.99976199
_symmetry_Int_Tables_number   1
_chemical_formula_structural   CoH21C17(NO2)2
_chemical_formula_sum   'Co4 H84 C68 N8 O16'
_cell_volume   1757.40848901
_cell_formula_units_Z   4
loop_
 _symmetry_equiv_pos_site_id
 _symmetry_equiv_pos_as_xyz
  1  'x, y, z'
loop_
 _atom_site_type_symbol
 _atom_site_label
 _atom_site_symmetry_multiplicity
 _atom_site_fract_x
 _atom_site_fract_y
 _atom_site_fract_z
 _atom_site_occupancy
 _atom_site_pbe_bader_charge
 _atom_site_pbe_bader_spin_density
 _atom_site_pbe_cm5_charge
 _atom_site_pbe_ddec_charge
 _atom_site_pbe_ddec_spin_density
 _atom_site_pbe_ddec_sum_bond_order
 _atom_site_pbe_magmom
Co  Co0  1  0.11840793  0.52690288  0.75632152  1  1.18257  2.596838  0.607382  0.755438  2.807165  2.729961  2.579
Co  Co1  1  0.88137541  0.02695109  0.24367487  1  1.18222  2.596623  0.607531  0.755576  2.806895  2.731352  2.578
Co  Co2  1  0.88974122  0.49975145  0.74000994  1  1.184892  2.597151  0.607526  0.764404  2.808229  2.734485  2.579
Co  Co3  1  0.11008718  0.99976046  0.25997976  1  1.184992  2.597433  0.607106  0.763933  2.808847  2.73318  2.579
H  H4  1  0.85450488  0.42209625  0.43669679  1  0.001598  0.000343  0.086637  0.085056  0.00018  1.01965  0.0
H  H5  1  0.14546883  0.92208349  0.56331225  1  0.00195  0.000345  0.086615  0.085155  0.000181  1.01959  0.0
H  H6  1  0.91227827  0.53465468  0.37844178  1  0.036478  0.000188  0.086124  0.082125  6e-05  1.033076  0.0
H  H7  1  0.08769568  0.03465765  0.62154767  1  0.036002  0.000188  0.086148  0.08226  6e-05  1.032883  0.0
H  H8  1  0.87920837  0.34437150  0.28061441  1  0.036199  0.000321  0.086286  0.08957  0.000147  1.024696  0.0
H  H9  1  0.12075784  0.84438348  0.71938221  1  0.036656  0.000323  0.086323  0.089711  0.000149  1.024914  0.0
H  H10  1  0.99382562  0.43922278  0.23951829  1  0.024817  0.00022  0.084384  0.079204  6.3e-05  1.041821  0.0
H  H11  1  0.00622201  0.93917958  0.76046163  1  0.024694  0.000222  0.084296  0.079108  6.3e-05  1.042145  0.0
H  H12  1  0.17837071  0.34283008  0.28813634  1  0.011326  0.000972  0.096667  0.083006  0.000392  0.988658  0.0
H  H13  1  0.82160230  0.84284357  0.71187931  1  0.010809  0.00097  0.096653  0.08295  0.000391  0.988608  0.0
H  H14  1  0.13790163  0.60184723  0.41857545  1  0.001545  8.4e-05  0.086649  0.119245  -1.1e-05  1.02356  0.0
H  H15  1  0.86210228  0.10185609  0.58140964  1  0.001456  8.4e-05  0.086635  0.119187  -1.1e-05  1.023529  0.0
H  H16  1  0.20270726  0.50545460  0.33927982  1  0.018619  0.000525  0.085634  0.118933  0.000198  1.037187  0.0
H  H17  1  0.79729782  0.00542354  0.66072799  1  0.018434  0.000523  0.085731  0.118915  0.000197  1.037054  0.0
H  H18  1  0.26785994  0.51888409  0.45933850  1  0.046209  0.000275  0.086346  0.120009  0.000146  1.031708  0.0
H  H19  1  0.73211788  0.01887256  0.54066778  1  0.045929  0.000274  0.086379  0.120065  0.000146  1.031457  0.0
H  H20  1  0.05448969  0.17779882  0.48725515  1  0.001067  2e-06  0.090165  0.131401  -9.9e-05  1.014474  0.0
H  H21  1  0.94549545  0.67778878  0.51274670  1  0.000738  2e-06  0.090099  0.13134  -9.9e-05  1.014555  0.0
H  H22  1  0.91576933  0.26285927  0.47823674  1  0.034166  0.000107  0.089135  0.128298  5.1e-05  1.007453  0.0
H  H23  1  0.08421627  0.76284980  0.52177238  1  0.033875  0.000107  0.08912  0.128288  5.1e-05  1.007348  0.0
H  H24  1  0.02950151  0.27442211  0.57794313  1  0.02111  -4.6e-05  0.08864  0.128723  -0.000142  1.015607  0.0
H  H25  1  0.97048179  0.77441277  0.42208135  1  0.021545  -4.7e-05  0.088647  0.128692  -0.000143  1.015581  0.0
H  H26  1  0.28140335  0.22788764  0.45690707  1  0.029956  0.000192  0.086224  0.120543  6.7e-05  1.018589  0.0
H  H27  1  0.71858361  0.72785675  0.54309110  1  0.029967  0.000192  0.08627  0.12058  6.7e-05  1.018424  0.0
H  H28  1  0.27553276  0.33158647  0.54336725  1  0.041372  0.000283  0.087284  0.127521  0.000125  1.015991  0.0
H  H29  1  0.72447504  0.83156869  0.45661629  1  0.041127  0.000282  0.087334  0.127664  0.000125  1.015724  0.0
H  H30  1  0.33045688  0.35428854  0.42111784  1  0.024526  3.5e-05  0.082271  0.113521  1.1e-05  1.043014  0.0
H  H31  1  0.66951535  0.85428559  0.57887732  1  0.024164  3.5e-05  0.082339  0.113567  1.1e-05  1.042936  0.0
H  H32  1  0.95992278  0.10416093  0.74213176  1  0.031424  0.000204  0.086908  0.087736  5.1e-05  1.03857  0.0
H  H33  1  0.04011729  0.60416169  0.25786218  1  0.032032  0.000205  0.086919  0.087842  5.2e-05  1.038375  0.0
H  H34  1  0.86772919  0.20154676  0.80140550  1  0.061699  0.000257  0.08835  0.095064  0.000121  1.037356  0.0
H  H35  1  0.13226499  0.70148394  0.19858977  1  0.06216  0.00026  0.088315  0.095026  0.000124  1.037932  0.0
H  H36  1  0.84094356  0.10192400  0.94351885  1  0.035555  0.000347  0.087194  0.085489  0.000191  1.012738  0.0
H  H37  1  0.15909176  0.60193751  0.05645534  1  0.03563  0.000349  0.087217  0.085574  0.000192  1.012289  0.0
H  H38  1  0.90599964  0.99574863  0.87845542  1  -0.018687  0.000211  0.084274  0.076373  6.1e-05  1.021103  0.0
H  H39  1  0.09403870  0.49576092  0.12151933  1  -0.01812  0.000212  0.084328  0.076328  6.1e-05  1.021166  0.0
H  H40  1  0.13346021  0.03153146  0.93200056  1  0.039911  0.000848  0.102201  0.09405  0.000369  0.966203  0.0
H  H41  1  0.86653001  0.53149320  0.06798015  1  0.039864  0.000845  0.102216  0.093995  0.000367  0.966052  0.0
H  H42  1  0.17898195  0.16929387  0.69076310  1  0.011455  0.000109  0.086443  0.117148  -7e-06  1.02074  0.0
H  H43  1  0.82104140  0.66929431  0.30924834  1  0.011361  0.000109  0.086413  0.117071  -7e-06  1.020627  0.0
H  H44  1  0.20959848  0.07753371  0.78400115  1  0.041081  0.000505  0.088065  0.124192  0.000189  1.014045  0.0
H  H45  1  0.79041652  0.57751343  0.21599275  1  0.040675  0.000505  0.08811  0.124242  0.000189  1.013844  0.0
H  H46  1  0.29570458  0.19712752  0.78446699  1  0.043929  0.000313  0.083383  0.109262  0.00017  1.068413  0.0
H  H47  1  0.70432282  0.69710753  0.21553420  1  0.044381  0.000312  0.083347  0.109273  0.000169  1.068447  0.0
H  H48  1  0.26033399  0.19647171  0.05412504  1  0.030266  0.000232  0.08569  0.123024  8.3e-05  1.02509  0.0
H  H49  1  0.73968659  0.69648003  0.94585931  1  0.029984  0.000232  0.085755  0.123174  8.3e-05  1.025006  0.0
H  H50  1  0.29090634  0.28655791  0.95701420  1  0.026326  0.000272  0.085586  0.121245  0.00011  1.016276  0.0
H  H51  1  0.70913048  0.78655336  0.04300014  1  0.025612  0.000271  0.085586  0.121359  0.00011  1.016267  0.0
H  H52  1  0.32053561  0.15196623  0.93980774  1  0.028971  3.1e-05  0.084868  0.120343  4e-06  1.017635  0.0
H  H53  1  0.67945788  0.65196256  0.06018316  1  0.028941  3e-05  0.084844  0.12032  4e-06  1.017735  0.0
H  H54  1  0.02390610  0.25997162  0.07902058  1  0.002851  -8.5e-05  0.087997  0.129547  -0.000153  1.006613  0.0
H  H55  1  0.97612388  0.75996295  0.92098864  1  0.00242  -8.5e-05  0.088024  0.129476  -0.000153  1.006783  0.0
H  H56  1  0.91449859  0.27431333  0.97740317  1  0.025586  8.5e-05  0.090095  0.131498  2.9e-05  0.997363  0.0
H  H57  1  0.08551009  0.77429545  0.02260965  1  0.025568  8.6e-05  0.09004  0.13135  3e-05  0.997488  0.0
H  H58  1  0.05932046  0.35358518  0.98729596  1  0.037473  -9e-06  0.08963  0.130355  -0.000133  1.014412  0.0
H  H59  1  0.94068586  0.85355516  0.01271244  1  0.037888  -9e-06  0.089653  0.130225  -0.000132  1.014554  0.0
H  H60  1  0.41486752  0.54211536  0.63830733  1  0.081897  0.000635  0.120014  0.116783  0.000151  0.99696  0.001
H  H61  1  0.58515026  0.04207117  0.36171658  1  0.082267  0.000636  0.12017  0.117178  0.000152  0.996421  0.001
H  H62  1  0.60231243  0.69390363  0.68826682  1  0.182336  0.000909  0.121632  0.134273  0.000376  1.04028  0.0
H  H63  1  0.39769773  0.19384001  0.31174238  1  0.182957  0.000911  0.121664  0.134161  0.000377  1.040737  0.0
H  H64  1  0.26380609  0.70881157  0.87921594  1  0.147554  0.000427  0.138022  0.105963  3.1e-05  1.003143  0.0
H  H65  1  0.73616423  0.20877462  0.12075368  1  0.147801  0.000427  0.138183  0.106057  3.1e-05  1.003045  0.0
H  H66  1  0.61138794  0.79770120  0.86672061  1  0.083226  4.3e-05  0.117415  0.10428  8e-06  0.988784  0.0
H  H67  1  0.38853919  0.29764999  0.13334617  1  0.08354  4.3e-05  0.11761  0.104441  8e-06  0.98921  0.0
H  H68  1  0.45070279  0.82887671  0.91396088  1  0.081348  7.7e-05  0.123109  0.109395  1.9e-05  0.948014  0.0
H  H69  1  0.54917372  0.32882650  0.08603923  1  0.081151  7.7e-05  0.123212  0.109556  1.9e-05  0.948481  0.0
H  H70  1  0.37427097  0.86597708  0.67245288  1  0.064657  1e-05  0.10417  0.105332  -1.1e-05  1.018255  0.0
H  H71  1  0.62565031  0.36591038  0.32757583  1  0.064929  1e-05  0.104114  0.105224  -1.1e-05  1.018247  0.0
H  H72  1  0.38022461  0.03178418  0.58351497  1  0.055255  1.5e-05  0.106493  0.108778  -1e-06  0.988078  0.0
H  H73  1  0.61971863  0.53174052  0.41650807  1  0.054663  1.5e-05  0.106498  0.108625  -1e-06  0.988178  0.0
H  H74  1  0.64985235  0.15623464  0.79893594  1  0.077162  8e-06  0.105093  0.105323  -1.4e-05  1.024167  0.0
H  H75  1  0.35018770  0.65621739  0.20104115  1  0.07731  8e-06  0.105065  0.105296  -1.5e-05  1.023807  0.0
H  H76  1  0.64481088  0.99028709  0.88747118  1  0.066837  1.6e-05  0.10502  0.107504  -1e-06  1.002143  0.0
H  H77  1  0.35518723  0.49027690  0.11249911  1  0.066505  1.6e-05  0.105014  0.107573  -1e-06  1.00201  0.0
H  H78  1  0.58641000  0.19577197  0.56201915  1  0.079304  5.9e-05  0.12151  0.107615  8e-06  0.960533  0.0
H  H79  1  0.41362739  0.69573980  0.43798864  1  0.07914  5.9e-05  0.121522  0.107732  8e-06  0.960518  0.0
H  H80  1  0.41876029  0.22192692  0.59803887  1  0.08506  1.7e-05  0.115186  0.100233  -9e-06  1.005767  0.0
H  H81  1  0.58126515  0.72187876  0.40194914  1  0.090747  1.6e-05  0.115121  0.100227  -9e-06  1.005695  0.0
H  H82  1  0.76010532  0.31985452  0.60745835  1  0.138252  0.00042  0.136083  0.102688  2.1e-05  1.017009  0.0
H  H83  1  0.23993479  0.81980442  0.39252599  1  0.139192  0.000421  0.136102  0.102683  2.1e-05  1.017145  0.0
H  H84  1  0.58126966  0.47736079  0.84397909  1  0.084235  0.000641  0.122123  0.119579  0.000154  0.988104  0.001
H  H85  1  0.41874705  0.97731476  0.15603366  1  0.084622  0.00064  0.122086  0.119716  0.000154  0.988301  0.001
H  H86  1  0.40433247  0.32513727  0.78240573  1  0.178915  0.000845  0.120372  0.132419  0.000337  1.049269  0.0
H  H87  1  0.59570150  0.82508755  0.21758298  1  0.178652  0.000842  0.12029  0.132327  0.000336  1.049194  0.0
C  C88  1  0.04473618  0.47065887  0.56304281  1  1.519521  -0.010771  0.218798  0.564607  -0.014557  4.086053  -0.01
C  C89  1  0.95529091  0.97064572  0.43695241  1  1.520491  -0.010785  0.218895  0.5648  -0.014577  4.085376  -0.01
C  C90  1  0.06852841  0.44741265  0.45492424  1  0.038031  0.008746  -0.012596  0.018889  0.004645  3.74462  0.007
C  C91  1  0.93143740  0.94740882  0.54506429  1  0.03789  0.008748  -0.012562  0.018727  0.004645  3.744827  0.007
C  C92  1  0.93893152  0.45434014  0.39441529  1  -0.009976  0.002044  -0.171233  -0.194388  0.001196  3.908722  0.001
C  C93  1  0.06102627  0.95433768  0.60556737  1  -0.009226  0.002049  -0.171296  -0.194761  0.0012  3.908891  0.001
C  C94  1  0.96713326  0.39010054  0.30201191  1  -0.023082  0.002279  -0.173129  -0.165936  0.00123  3.892427  0.002
C  C95  1  0.03283309  0.89008118  0.69795909  1  -0.023518  0.002286  -0.173134  -0.166065  0.001234  3.89353  0.002
C  C96  1  0.08624997  0.31804299  0.32683987  1  -0.001639  0.009548  -0.085453  -0.161075  0.00507  3.77686  0.007
C  C97  1  0.91371631  0.81804228  0.67316114  1  -0.001106  0.009556  -0.085443  -0.160847  0.005075  3.776824  0.007
C  C98  1  0.11239459  0.33130509  0.43935361  1  0.059926  -0.001761  -0.001453  0.205215  -0.002135  3.681144  -0.002
C  C99  1  0.88756339  0.83129137  0.56065909  1  0.059992  -0.001764  -0.001378  0.205358  -0.002137  3.681054  -0.002
C  C100  1  0.06374253  0.20598224  0.29903076  1  1.527691  -0.00756  0.209403  0.589781  -0.010118  4.127717  -0.008
C  C101  1  0.93631286  0.70597451  0.70098292  1  1.529003  -0.007578  0.209598  0.589771  -0.010159  4.127718  -0.008
C  C102  1  0.17600788  0.52234911  0.41556867  1  -0.052679  0.000628  -0.247389  -0.401531  0.000335  3.913971  0.0
C  C103  1  0.82397909  0.02235269  0.58443105  1  -0.052466  0.000625  -0.247319  -0.401208  0.000332  3.913474  0.0
C  C104  1  0.02211915  0.25791814  0.49931359  1  -0.053067  8.8e-05  -0.248427  -0.428345  -0.000199  3.879376  0.0
C  C105  1  0.97786428  0.75791261  0.50070796  1  -0.052799  9e-05  -0.248335  -0.428216  -0.000198  3.879314  0.0
C  C106  1  0.25897460  0.31034514  0.46651080  1  -0.094415  0.000598  -0.249496  -0.427889  0.00039  3.919678  0.0
C  C107  1  0.74099179  0.81032421  0.53348584  1  -0.093965  0.000596  -0.249698  -0.428219  0.000389  3.919373  0.0
C  C108  1  0.06927384  0.32141755  0.79937139  1  1.523366  -0.007787  0.21483  0.568959  -0.010387  4.089085  -0.008
C  C109  1  0.93079435  0.82143384  0.20062325  1  1.524617  -0.007827  0.21472  0.568804  -0.01044  4.089039  -0.008
C  C110  1  0.08342609  0.20781106  0.82934437  1  0.03059  0.010011  -0.010262  0.026552  0.005299  3.700038  0.008
C  C111  1  0.91658508  0.70779576  0.17065971  1  0.028183  0.010028  -0.01024  0.02643  0.005307  3.700343  0.008
C  C112  1  0.95107084  0.14728184  0.81076141  1  -0.05122  0.00224  -0.17529  -0.205994  0.001237  3.866665  0.002
C  C113  1  0.04891883  0.64724862  0.18921632  1  -0.051617  0.002249  -0.175258  -0.206025  0.001243  3.867634  0.002
C  C114  1  0.92722034  0.07602153  0.89914625  1  -0.007269  0.002145  -0.1709  -0.165502  0.0012  3.93932  0.002
C  C115  1  0.07279504  0.57602066  0.10082206  1  -0.00815  0.002149  -0.170938  -0.165495  0.001203  3.939459  0.002
C  C116  1  0.05511889  0.08394741  0.96045931  1  -0.004921  0.008523  -0.086329  -0.165678  0.004582  3.822728  0.007
C  C117  1  0.94488604  0.58392896  0.03953164  1  -0.004292  0.00852  -0.08645  -0.16571  0.004581  3.822512  0.007
C  C118  1  0.10706498  0.19658224  0.94328600  1  0.060486  -0.001396  -0.002003  0.202113  -0.001746  3.687826  -0.001
C  C119  1  0.89292909  0.69656936  0.05671879  1  0.059673  -0.001401  -0.001861  0.202592  -0.001752  3.687096  -0.001
C  C120  1  0.03546595  0.05715621  0.06719087  1  1.522808  -0.010955  0.215566  0.591312  -0.014789  4.117797  -0.01
C  C121  1  0.96461059  0.55714758  0.93280755  1  1.522612  -0.010961  0.215958  0.591542  -0.014817  4.11757  -0.01
C  C122  1  0.19893786  0.16040250  0.76928440  1  -0.089964  0.000429  -0.24607  -0.40577  0.000142  3.938844  0.0
C  C123  1  0.80107952  0.66038372  0.23072483  1  -0.088042  0.000426  -0.246003  -0.405664  0.00014  3.938534  0.0
C  C124  1  0.25368010  0.20881086  0.97477324  1  -0.06084  0.000611  -0.249124  -0.426458  0.000396  3.925801  0.0
C  C125  1  0.74632322  0.70880465  0.02521546  1  -0.059333  0.000608  -0.249123  -0.426786  0.000394  3.925869  0.0
C  C126  1  0.02049542  0.27528260  0.00000319  1  -0.067717  5.7e-05  -0.24645  -0.419573  -0.00022  3.868376  0.0
C  C127  1  0.97951606  0.77525932  0.00000557  1  -0.067537  5.8e-05  -0.246503  -0.419357  -0.000219  3.868886  0.0
C  C128  1  0.41107841  0.60047624  0.69495394  1  0.432247  0.001348  0.002183  -0.028089  0.000364  4.008645  0.002
C  C129  1  0.58890085  0.10043822  0.30506328  1  0.432118  0.001356  0.002224  -0.028331  0.000368  4.008242  0.002
C  C130  1  0.50260142  0.67656021  0.71683837  1  0.266444  0.003652  -0.003801  -0.121218  0.00182  3.913082  0.003
C  C131  1  0.49738584  0.17651170  0.28315690  1  0.266414  0.003662  -0.003378  -0.120519  0.001825  3.91362  0.003
C  C132  1  0.32940753  0.68324405  0.82017774  1  0.975204  0.000766  0.143048  0.086202  -0.000301  3.90899  0.001
C  C133  1  0.67055255  0.18324281  0.17981162  1  0.97496  0.000783  0.143001  0.08607  -0.00029  3.90907  0.001
C  C134  1  0.50788329  0.81735924  0.84548243  1  0.299055  0.000665  -0.037583  -0.107749  0.000394  3.915482  0.001
C  C135  1  0.49205051  0.31731462  0.15453462  1  0.299185  0.000666  -0.037881  -0.108282  0.000395  3.917074  0.001
C  C136  1  0.50911099  0.91628212  0.78634170  1  -0.02327  0.000287  -0.014106  0.079402  0.000155  3.99041  0.0
C  C137  1  0.49085365  0.41624135  0.21366805  1  -0.024207  0.000288  -0.013943  0.079731  0.000156  3.990091  0.0
C  C138  1  0.43548199  0.92921335  0.70035394  1  -0.042346  0.00011  -0.09169  -0.13699  5.2e-05  4.001111  0.0
C  C139  1  0.56447746  0.42916152  0.29966165  1  -0.04289  0.00011  -0.091663  -0.137032  5.2e-05  4.000637  0.0
C  C140  1  0.43928494  0.02294136  0.65008329  1  -0.036547  0.000133  -0.086263  -0.122721  5.7e-05  3.97618  0.0
C  C141  1  0.56069279  0.52289945  0.34992811  1  -0.035342  0.000134  -0.086314  -0.122395  5.8e-05  3.975493  0.0
C  C142  1  0.51604422  0.10576370  0.68466151  1  -0.025282  0.000229  -0.00982  0.085817  0.000112  3.974176  0.0
C  C143  1  0.48396053  0.60573054  0.31533382  1  -0.025488  0.000227  -0.009705  0.085615  0.000111  3.973996  0.0
C  C144  1  0.58910905  0.09291735  0.77083027  1  0.00648  0.0001  -0.088723  -0.127162  4.3e-05  3.990435  0.0
C  C145  1  0.41091808  0.59289294  0.22915560  1  0.006692  0.0001  -0.088717  -0.126799  4.4e-05  3.989908  0.0
C  C146  1  0.58601543  0.99913686  0.82078197  1  -0.122154  0.000129  -0.091734  -0.137239  6.2e-05  3.992808  0.0
C  C147  1  0.41398637  0.49910948  0.17920881  1  -0.121403  0.000129  -0.091694  -0.137594  6.2e-05  3.992741  0.0
C  C148  1  0.51973779  0.20503074  0.62622709  1  0.317775  0.00063  -0.038646  -0.109298  0.000368  3.900166  0.001
C  C149  1  0.48027757  0.70499990  0.37376676  1  0.313016  0.000628  -0.038829  -0.109776  0.000367  3.900624  0.001
C  C150  1  0.68836396  0.34279215  0.66357775  1  0.968297  0.000646  0.141685  0.089201  -0.000413  3.904275  0.001
C  C151  1  0.31166170  0.84278427  0.33642192  1  0.966268  0.000628  0.141627  0.088986  -0.000427  3.904273  0.001
C  C152  1  0.59248150  0.42086738  0.78610814  1  0.391152  0.001463  0.003116  -0.026594  0.000419  4.011928  0.002
C  C153  1  0.40753445  0.92083681  0.21390829  1  0.390956  0.001459  0.003001  -0.02699  0.000416  4.012475  0.002
C  C154  1  0.50558024  0.34398779  0.75785783  1  0.302442  0.003608  -0.004018  -0.124358  0.001812  3.914815  0.003
C  C155  1  0.49444455  0.84394766  0.24213159  1  0.301356  0.003597  -0.004067  -0.124537  0.001806  3.914628  0.003
N  N156  1  0.30463927  0.60506716  0.76024615  1  -1.204774  0.055544  -0.346629  -0.249681  0.030927  3.536486  0.043
N  N157  1  0.69533710  0.10507432  0.23976010  1  -1.204405  0.055609  -0.347058  -0.250136  0.03097  3.538006  0.043
N  N158  1  0.44903139  0.72871761  0.79659363  1  -1.234347  0.002645  -0.246247  0.036742  0.00111  3.802891  0.002
N  N159  1  0.55091835  0.22867819  0.20339789  1  -1.235784  0.002657  -0.246466  0.03703  0.001114  3.803668  0.002
N  N160  1  0.56828116  0.29470027  0.67971513  1  -1.238883  0.002586  -0.246439  0.035139  0.001085  3.79299  0.002
N  N161  1  0.43173782  0.79466420  0.32027504  1  -1.238422  0.002579  -0.246424  0.035472  0.001082  3.79264  0.002
N  N162  1  0.70506818  0.41970658  0.72648488  1  -1.185818  0.055059  -0.345937  -0.250184  0.030674  3.526343  0.043
N  N163  1  0.29494381  0.91969953  0.27352642  1  -1.184494  0.054975  -0.34562  -0.249774  0.030631  3.525243  0.043
O  O164  1  0.14771906  0.48680000  0.61632334  1  -1.13271  0.085582  -0.303026  -0.508002  0.044623  2.373613  0.075
O  O165  1  0.85232123  0.98680958  0.38365947  1  -1.133259  0.085578  -0.303073  -0.508182  0.044621  2.373759  0.075
O  O166  1  0.92415111  0.47261207  0.59600490  1  -1.139446  0.084311  -0.303513  -0.52869  0.043711  2.402527  0.076
O  O167  1  0.07589372  0.97259184  0.40401742  1  -1.140126  0.084419  -0.303541  -0.528638  0.04376  2.402036  0.076
O  O168  1  0.16735688  0.14726236  0.29176509  1  -1.137679  0.08677  -0.314244  -0.531163  0.045546  2.309777  0.074
O  O169  1  0.83272746  0.64724881  0.70828962  1  -1.139288  0.086856  -0.314289  -0.531165  0.045598  2.310843  0.074
O  O170  1  0.94349505  0.17559264  0.28618924  1  -1.144309  0.070325  -0.300642  -0.541866  0.035596  2.393016  0.067
O  O171  1  0.05654033  0.67556781  0.71382514  1  -1.143844  0.070478  -0.300726  -0.541706  0.035669  2.393619  0.067
O  O172  1  0.17330846  0.37979291  0.79990563  1  -1.135791  0.088016  -0.307967  -0.51651  0.045911  2.286569  0.076
O  O173  1  0.82678952  0.87983348  0.20010001  1  -1.136102  0.088055  -0.308016  -0.516479  0.045938  2.287336  0.076
O  O174  1  0.95285459  0.35224250  0.77457948  1  -1.148693  0.069093  -0.301857  -0.544557  0.03531  2.448043  0.066
O  O175  1  0.04721873  0.85225250  0.22539833  1  -1.14904  0.069271  -0.301553  -0.544215  0.035401  2.448773  0.066
O  O176  1  0.13842558  0.03006609  0.11636884  1  -1.131243  0.089649  -0.308461  -0.521775  0.046481  2.33656  0.079
O  O177  1  0.86169380  0.53001691  0.88360480  1  -1.132039  0.089653  -0.308736  -0.522086  0.046479  2.337006  0.079
O  O178  1  0.91688392  0.06408444  0.10365310  1  -1.141892  0.083667  -0.306139  -0.530748  0.043489  2.405142  0.075
O  O179  1  0.08320933  0.56407415  0.89637242  1  -1.141546  0.083777  -0.306251  -0.530666  0.043554  2.40518  0.075
