# generated using pymatgen
data_Cu3H44C24S2(IN)8
_symmetry_space_group_name_H-M   'P 1'
_cell_length_a   7.73892247
_cell_length_b   9.71720356
_cell_length_c   15.53189682
_cell_angle_alpha   75.84728608
_cell_angle_beta   84.17699189
_cell_angle_gamma   69.37369398
_symmetry_Int_Tables_number   1
_chemical_formula_structural   Cu3H44C24S2(IN)8
_chemical_formula_sum   'Cu3 H44 C24 S2 I8 N8'
_cell_volume   1059.80683560
_cell_formula_units_Z   1
loop_
 _symmetry_equiv_pos_site_id
 _symmetry_equiv_pos_as_xyz
  1  'x, y, z'
loop_
 _atom_site_type_symbol
 _atom_site_label
 _atom_site_symmetry_multiplicity
 _atom_site_fract_x
 _atom_site_fract_y
 _atom_site_fract_z
 _atom_site_occupancy
 _atom_site_hle17_ddec_charge
 _atom_site_hle17_ddec_spin_density
 _atom_site_hle17_ddec_sum_bond_order
 _atom_site_hle17_magmom
 _atom_site_hse06_10hf_ddec_charge
 _atom_site_hse06_10hf_ddec_spin_density
 _atom_site_hse06_10hf_ddec_sum_bond_order
 _atom_site_hse06_10hf_magmom
 _atom_site_hse06_ddec_charge
 _atom_site_hse06_ddec_spin_density
 _atom_site_hse06_ddec_sum_bond_order
 _atom_site_hse06_magmom
 _atom_site_pbe_cm5_charge
 _atom_site_pbe_ddec_charge
 _atom_site_pbe_ddec_spin_density
 _atom_site_pbe_ddec_sum_bond_order
 _atom_site_pbe_magmom
Cu  Cu0  1  0.49999866  0.00000234  0.00000037  1  0.580844  0.491348  2.08486  0.353  0.58095  0.634038  2.469362  0.477  0.66761  0.73777  2.404438  0.582  0.567936  0.532906  0.555455  2.514225  0.411
Cu  Cu1  1  0.86872333  0.04902635  0.06337008  1  0.239155  0.055094  2.280764  0.042  0.172031  0.023448  2.768277  0.019  0.17991  0.007111  2.719774  0.006  0.196675  0.172496  0.048137  2.797473  0.038
Cu  Cu2  1  0.13127662  0.95096850  0.93662812  1  0.239247  0.055075  2.280575  0.042  0.172165  0.023447  2.768042  0.019  0.180093  0.00711  2.719547  0.006  0.196698  0.172619  0.048129  2.797271  0.038
H  H3  1  0.39254306  0.88563717  0.39616670  1  0.083309  3e-05  0.93635  0.0  0.091569  0.000147  1.008366  0.0  0.093014  0.000144  1.007305  0.0  0.103393  0.090149  0.000137  1.009455  0.0
H  H4  1  0.60745363  0.11436558  0.60383368  1  0.083314  3.9e-05  0.936364  0.0  0.091602  0.000148  1.008321  0.0  0.093049  0.000143  1.007252  0.0  0.103388  0.090179  0.000137  1.009412  0.0
H  H5  1  0.24565217  0.85973497  0.32386746  1  0.076775  0.00057  0.940571  0.001  0.086052  0.000611  1.012206  0.001  0.087556  0.000473  1.011097  0.001  0.097957  0.084683  0.000673  1.013097  0.001
H  H6  1  0.75434620  0.14027003  0.67612992  1  0.076818  0.000582  0.940552  0.001  0.086082  0.00061  1.012181  0.001  0.087588  0.000473  1.011066  0.001  0.097967  0.084719  0.000673  1.013056  0.001
H  H7  1  0.15213242  0.12269311  0.26232215  1  0.074689  -3.1e-05  0.978284  0.0  0.082865  -3e-05  1.054103  0.0  0.08472  -3.1e-05  1.052791  0.0  0.089517  0.081127  -3.5e-05  1.055462  0.0
H  H8  1  0.84786547  0.87731301  0.73768023  1  0.0746  -2.4e-05  0.978344  0.0  0.082814  -3e-05  1.054169  0.0  0.084668  -3.1e-05  1.052858  0.0  0.089479  0.081071  -3.5e-05  1.055526  0.0
H  H9  1  0.32203350  0.13837096  0.32607306  1  0.071356  0.000163  0.972402  0.0  0.081482  0.000139  1.04472  0.0  0.082778  9.3e-05  1.043544  0.0  0.093073  0.080484  0.000169  1.045529  0.0
H  H10  1  0.67797323  0.86162951  0.67392395  1  0.071331  0.00016  0.972372  0.0  0.081479  0.000139  1.044722  0.0  0.082775  9.3e-05  1.043545  0.0  0.093097  0.080477  0.000169  1.045525  0.0
H  H11  1  0.34440862  0.52009179  0.04420950  1  0.064766  -2.5e-05  0.949851  0.0  0.078532  5.4e-05  1.018408  0.0  0.07958  4.1e-05  1.017782  0.0  0.091423  0.077132  9.7e-05  1.020137  0.0
H  H12  1  0.65560116  0.47990754  0.95579011  1  0.06477  -3.1e-05  0.949833  0.0  0.078529  5.4e-05  1.018404  0.0  0.079573  4.1e-05  1.017781  0.0  0.091428  0.077128  9.7e-05  1.020131  0.0
H  H13  1  0.11662781  0.51648339  0.04680647  1  0.066626  -6.1e-05  0.933905  0.0  0.080997  2.8e-05  0.999646  0.0  0.081889  6e-06  0.99914  0.0  0.094798  0.080079  6.9e-05  1.000544  0.0
H  H14  1  0.88337418  0.48351596  0.95319095  1  0.066639  -6.2e-05  0.933888  0.0  0.081004  2.8e-05  0.999626  0.0  0.081894  6e-06  0.999122  0.0  0.094807  0.080086  6.9e-05  1.000522  0.0
H  H15  1  0.20634634  0.34620832  0.95031057  1  0.067035  -0.000203  0.946652  0.0  0.084962  -0.000153  1.006835  0.0  0.085365  -0.000139  1.006637  0.0  0.091772  0.084091  -0.000123  1.007696  0.0
H  H16  1  0.79365871  0.65378989  0.04968751  1  0.067078  -0.000204  0.946649  0.0  0.084973  -0.000152  1.006829  0.0  0.085373  -0.000139  1.006634  0.0  0.091778  0.084104  -0.000123  1.007696  0.0
H  H17  1  0.43140127  0.35676289  0.94144606  1  0.05894  0.000146  0.961954  0.0  0.07091  0.000287  1.035472  0.001  0.071774  0.000214  1.034824  0.0  0.081816  0.069618  0.00031  1.036434  0.001
H  H18  1  0.56860907  0.64323192  0.05855420  1  0.058855  0.000147  0.962046  0.0  0.070852  0.000288  1.035507  0.001  0.071697  0.000214  1.034875  0.0  0.081797  0.069579  0.00031  1.036458  0.001
H  H19  1  0.55012278  0.63188602  0.24389971  1  0.065224  0.000351  0.922423  0.0  0.080533  0.000396  0.988743  0.001  0.081604  0.000309  0.988132  0.0  0.095997  0.078522  0.000455  0.991369  0.001
H  H20  1  0.44988134  0.36811445  0.75610064  1  0.065147  0.000347  0.922429  0.0  0.080507  0.000396  0.988765  0.001  0.081581  0.000309  0.988151  0.0  0.095985  0.078494  0.000455  0.991395  0.001
H  H21  1  0.75518131  0.65565208  0.26807665  1  0.077045  0.001  0.943989  0.0  0.09574  0.001094  1.002723  0.0  0.096114  0.000861  1.003546  0.0  0.106713  0.095388  0.001224  1.002268  0.0
H  H22  1  0.24482018  0.34434839  0.73192964  1  0.077015  0.000998  0.943897  0.0  0.095722  0.001094  1.002693  0.0  0.096099  0.000861  1.003513  0.0  0.106709  0.095371  0.001224  1.002234  0.0
H  H23  1  0.44926155  0.61927282  0.40488038  1  0.060444  5.8e-05  0.953901  0.0  0.0824  7.5e-05  1.010307  0.0  0.08239  4.6e-05  1.011859  0.0  0.090335  0.082188  9.8e-05  1.009436  0.0
H  H24  1  0.55073328  0.38073444  0.59511876  1  0.060432  5.9e-05  0.953682  0.0  0.082407  7.5e-05  1.010041  0.0  0.082367  4.6e-05  1.011628  0.0  0.09033  0.08219  9.8e-05  1.009181  0.0
H  H25  1  0.65976671  0.63509280  0.42814085  1  0.061039  -3.8e-05  0.966056  0.0  0.075213  -3e-05  1.035447  0.0  0.076584  -2.7e-05  1.034853  0.0  0.077773  0.073669  -2.6e-05  1.036482  0.0
H  H26  1  0.34022308  0.36490772  0.57186407  1  0.061111  -3.6e-05  0.966025  0.0  0.07526  -3e-05  1.035394  0.0  0.076629  -2.7e-05  1.034795  0.0  0.077787  0.073714  -2.6e-05  1.036428  0.0
H  H27  1  0.62032770  0.38100349  0.35287823  1  0.082828  2e-06  0.986707  0.0  0.099007  -4e-06  1.0597  0.0  0.100159  -7e-06  1.060316  0.0  0.070026  0.097721  8e-06  1.059967  0.0
H  H28  1  0.37966254  0.61899589  0.64713006  1  0.082774  5e-06  0.986728  0.0  0.098958  -4e-06  1.059759  0.0  0.100112  -7e-06  1.060372  0.0  0.070024  0.097668  8e-06  1.060026  0.0
H  H29  1  0.67678478  0.36298245  0.46371491  1  0.096591  -0.0  0.963675  0.0  0.117922  -1e-06  1.024115  0.0  0.119051  -3e-06  1.024482  0.0  0.08239  0.117057  -1e-06  1.023955  0.0
H  H30  1  0.32320399  0.63702369  0.53628985  1  0.096527  1e-06  0.963713  0.0  0.117913  -1e-06  1.024104  0.0  0.119044  -4e-06  1.024468  0.0  0.08238  0.117045  -1e-06  1.023946  0.0
H  H31  1  0.83331540  0.39242781  0.37657303  1  0.087864  -0.0  0.985341  0.0  0.107603  -5e-06  1.052053  0.0  0.10872  -7e-06  1.052742  0.0  0.074604  0.106682  -8e-06  1.051614  0.0
H  H32  1  0.16667439  0.60757270  0.62343254  1  0.087853  1e-06  0.985243  0.0  0.107571  -5e-06  1.052009  0.0  0.108689  -7e-06  1.052697  0.0  0.074586  0.10665  -7e-06  1.051567  0.0
H  H33  1  0.38503306  0.48255084  0.19302242  1  0.055517  -0.00016  0.947908  0.0  0.069841  -0.000109  1.021155  0.0  0.071131  -0.000136  1.019724  0.0  0.091125  0.067711  -4.2e-05  1.024579  0.0
H  H34  1  0.61496539  0.51745078  0.80697805  1  0.055486  -0.000164  0.947856  0.0  0.069808  -0.000109  1.021124  0.0  0.071112  -0.000136  1.019683  0.0  0.091099  0.067683  -4.2e-05  1.024543  0.0
H  H35  1  0.40719485  0.30732611  0.26527324  1  0.059594  -8e-06  0.968674  0.0  0.071735  2.8e-05  1.042225  0.0  0.07218  9e-06  1.041818  0.0  0.096929  0.071395  3e-05  1.042346  0.0
H  H36  1  0.59281095  0.69267662  0.73472477  1  0.059635  -8e-06  0.968643  0.0  0.071792  2.8e-05  1.042176  0.0  0.072236  9e-06  1.041778  0.0  0.096948  0.07145  3e-05  1.042294  0.0
H  H37  1  0.04005732  0.56154632  0.20697960  1  0.063444  0.00027  0.945712  0.0  0.080698  0.000343  1.011451  0.0  0.08228  0.000252  1.010657  0.0  0.080108  0.079328  0.000417  1.012513  0.0
H  H38  1  0.95994783  0.43844852  0.79301770  1  0.063462  0.000268  0.945755  0.0  0.08073  0.000343  1.011474  0.0  0.082318  0.000252  1.010673  0.0  0.080145  0.079361  0.000417  1.012536  0.0
H  H39  1  0.05920162  0.38911376  0.28306466  1  0.057444  -2.1e-05  0.960981  0.0  0.073356  -1.7e-05  1.029436  0.0  0.073854  -1.8e-05  1.030005  0.0  0.080763  0.073156  -2.3e-05  1.028608  0.0
H  H40  1  0.94079952  0.61088446  0.71693619  1  0.057465  -2.1e-05  0.96097  0.0  0.073371  -1.7e-05  1.029433  0.0  0.07387  -1.8e-05  1.030001  0.0  0.080763  0.073171  -2.3e-05  1.028605  0.0
H  H41  1  0.24126426  0.45724563  0.38556797  1  0.091063  -1.5e-05  0.961319  0.0  0.114998  -8e-06  1.019928  0.0  0.115836  -7e-06  1.020606  0.0  0.07574  0.114574  -5e-06  1.018943  0.0
H  H42  1  0.75873410  0.54275937  0.61443198  1  0.091034  -1.3e-05  0.961319  0.0  0.114989  -8e-06  1.019911  0.0  0.115828  -7e-06  1.020589  0.0  0.075763  0.114564  -5e-06  1.018924  0.0
H  H43  1  0.01713875  0.59237626  0.36575079  1  0.095001  1e-06  0.972818  0.0  0.114268  2.7e-05  1.039002  0.0  0.115408  2.2e-05  1.039566  0.0  0.078318  0.113452  4.4e-05  1.038618  0.0
H  H44  1  0.98285497  0.40762424  0.63424879  1  0.094951  8e-06  0.972933  0.0  0.114221  2.8e-05  1.039115  0.0  0.115371  2.2e-05  1.039673  0.0  0.078291  0.113406  4.4e-05  1.038729  0.0
H  H45  1  0.20869100  0.63228495  0.30756262  1  0.086908  6.1e-05  0.974817  0.0  0.107335  -2e-06  1.041973  0.0  0.108507  -1.1e-05  1.04258  0.0  0.073781  0.106621  3.1e-05  1.041139  0.0
H  H46  1  0.79130524  0.36771893  0.69243375  1  0.086906  5.9e-05  0.974786  0.0  0.107316  -3e-06  1.041961  0.0  0.10849  -1.1e-05  1.042564  0.0  0.073756  0.106595  3.1e-05  1.041135  0.0
C  C47  1  0.54135128  0.93723555  0.20130328  1  0.345568  -0.001742  3.7714  -0.005  0.29353  0.003635  4.078432  0.0  0.324186  0.00169  4.084258  -0.001  0.239534  0.27298  0.005713  4.074907  0.001
C  C48  1  0.45864282  0.06276721  0.79869208  1  0.345646  -0.001746  3.771665  -0.005  0.293835  0.003635  4.078492  0.0  0.324503  0.001689  4.084296  -0.001  0.239647  0.273282  0.005714  4.074981  0.001
C  C49  1  0.35477729  0.90666450  0.32671607  1  -0.009767  -8.6e-05  3.582509  0.0  -0.066668  0.000321  3.833302  0.0  -0.063309  6.4e-05  3.843839  0.0  -0.050167  -0.06861  0.000508  3.826635  0.0
C  C50  1  0.64521931  0.09334163  0.67328316  1  -0.009877  -0.000142  3.58238  0.0  -0.066695  0.000322  3.833225  0.0  -0.063323  6.5e-05  3.84374  0.0  -0.050192  -0.068644  0.000508  3.826561  0.0
C  C51  1  0.29707810  0.07484461  0.28218232  1  0.00107  -0.00042  3.567006  0.0  -0.059016  -0.000134  3.816276  0.0  -0.054659  -0.000196  3.825668  0.0  -0.060216  -0.062018  -6.2e-05  3.810865  0.0
C  C52  1  0.70292073  0.92515926  0.71781714  1  0.001271  -0.000416  3.566773  0.0  -0.058905  -0.000135  3.81613  0.0  -0.05455  -0.000197  3.82552  0.0  -0.060191  -0.061886  -6.2e-05  3.810689  0.0
C  C53  1  0.37429420  0.19865626  0.12898071  1  0.499837  -0.005131  3.819992  -0.003  0.439221  -0.001446  4.106458  -0.001  0.472753  -0.002658  4.110232  -0.001  0.343848  0.416271  -0.000426  4.105014  0.0
C  C54  1  0.62571253  0.80134421  0.87101630  1  0.499895  -0.005122  3.819919  -0.003  0.439296  -0.001448  4.106406  -0.001  0.47283  -0.002658  4.110182  -0.001  0.343879  0.416343  -0.000426  4.104966  0.0
C  C55  1  0.26278671  0.44487135  0.05292678  1  -0.008869  0.003137  3.605139  0.003  -0.065988  0.002371  3.855856  0.002  -0.061828  0.001892  3.865448  0.002  -0.062582  -0.068802  0.002495  3.849621  0.002
C  C56  1  0.73721918  0.55512799  0.94707237  1  -0.008954  0.003162  3.605147  0.003  -0.066083  0.002372  3.855859  0.002  -0.061919  0.001893  3.865443  0.002  -0.06265  -0.068892  0.002495  3.849632  0.002
C  C57  1  0.32255402  0.33693198  0.98895158  1  0.020991  0.001172  3.643397  0.001  -0.030359  0.0013  3.898408  0.001  -0.025219  0.000722  3.911181  0.0  -0.076343  -0.032486  0.001527  3.888749  0.001
C  C58  1  0.67745456  0.66306398  0.01104796  1  0.021042  0.001168  3.643443  0.001  -0.030248  0.001298  3.89836  0.001  -0.025092  0.000722  3.911138  0.0  -0.076326  -0.032379  0.001528  3.888656  0.001
C  C59  1  0.61008041  0.67543429  0.28856264  1  0.017611  0.000485  3.617982  0.0  -0.040106  0.000818  3.870169  0.0  -0.035808  0.000486  3.881527  0.0  -0.057298  -0.042485  0.001072  3.862496  0.0
C  C60  1  0.38992155  0.32456506  0.71144122  1  0.018001  0.000501  3.61734  0.0  -0.039885  0.000818  3.869807  0.0  -0.035584  0.000485  3.881149  0.0  -0.057221  -0.042261  0.001071  3.862136  0.0
C  C61  1  0.59540724  0.59367118  0.38454063  1  -0.087313  0.000141  3.708122  0.0  -0.120232  0.000194  3.959962  0.0  -0.121646  0.000119  3.974841  0.0  -0.16988  -0.118999  0.000231  3.949713  0.0
C  C62  1  0.40458432  0.40632820  0.61546309  1  -0.087577  0.000133  3.707966  0.0  -0.120334  0.000194  3.959706  0.0  -0.121739  0.000119  3.974603  0.0  -0.169916  -0.1191  0.000232  3.949453  0.0
C  C63  1  0.68604928  0.42380025  0.39488736  1  -0.28851  -5.3e-05  3.730646  0.0  -0.35999  -2.2e-05  3.971445  0.0  -0.36282  -3.6e-05  3.983275  0.0  -0.254876  -0.357877  3e-06  3.96376  0.0
C  C64  1  0.31394478  0.57620251  0.60511701  1  -0.288319  -6.6e-05  3.73058  0.0  -0.359884  -2.2e-05  3.971339  0.0  -0.362716  -3.5e-05  3.983163  0.0  -0.25484  -0.357766  3e-06  3.963652  0.0
C  C65  1  0.31463824  0.39889064  0.21676531  1  0.009707  0.000617  3.664657  0.001  -0.050845  0.000565  3.921468  0.001  -0.046235  0.000477  3.933828  0.001  -0.066918  -0.053764  0.000574  3.913618  0.001
C  C66  1  0.68536329  0.60110984  0.78323260  1  0.009735  0.000622  3.664604  0.001  -0.050825  0.000565  3.92143  0.001  -0.046233  0.000477  3.9338  0.001  -0.066873  -0.053744  0.000574  3.91358  0.001
C  C67  1  0.12836899  0.47305216  0.25880751  1  -0.094111  0.000169  3.715017  0.0  -0.129715  0.000241  3.974756  0.0  -0.130758  0.000144  3.988403  0.0  -0.177206  -0.128553  0.000379  3.964556  0.0
C  C68  1  0.87163309  0.52694381  0.74119234  1  -0.09425  0.000174  3.715107  0.0  -0.129872  0.000241  3.974919  0.0  -0.130918  0.000143  3.988571  0.0  -0.177272  -0.128711  0.000379  3.96472  0.0
C  C69  1  0.14989089  0.54208460  0.33357472  1  -0.284744  0.000237  3.708424  0.0  -0.353525  0.000181  3.944058  0.0  -0.356487  0.000124  3.955805  0.0  -0.254036  -0.351294  0.000242  3.935195  0.0
C  C70  1  0.85010544  0.45791590  0.66642409  1  -0.284639  0.000231  3.708449  0.0  -0.353427  0.000181  3.944104  0.0  -0.3564  0.000124  3.955845  0.0  -0.254012  -0.351187  0.000242  3.935243  0.0
S  S71  1  0.70642962  0.88910715  0.12235634  1  -0.270649  0.109241  2.601806  0.114  -0.284463  0.082429  3.062913  0.089  -0.308634  0.06455  3.041477  0.076  -0.163835  -0.274502  0.089137  3.081527  0.091
S  S72  1  0.29356260  0.11088434  0.87764661  1  -0.270711  0.109265  2.601793  0.114  -0.284603  0.082474  3.062867  0.089  -0.308794  0.064559  3.041438  0.076  -0.163911  -0.274643  0.089147  3.081505  0.091
I  I73  1  0.19995172  0.84509108  0.10631393  1  -0.383524  0.014663  1.556433  0.011  -0.358525  0.000698  1.988267  0.001  -0.378341  -0.001638  1.95307  0.0  -0.192476  -0.343631  0.003232  2.013007  0.003
I  I74  1  0.80005129  0.15490263  0.89368494  1  -0.383508  0.014675  1.55646  0.011  -0.358504  0.000699  1.988291  0.001  -0.37832  -0.001638  1.953099  0.0  -0.192473  -0.343607  0.003235  2.013025  0.003
I  I75  1  0.81933581  0.26023825  0.14856040  1  -0.209028  0.001605  1.381988  0.001  -0.176376  0.000101  1.773845  0.0  -0.193454  -0.000351  1.751169  0.0  -0.100678  -0.163396  0.000826  1.787747  0.001
I  I76  1  0.18067977  0.73975656  0.85143060  1  -0.209005  0.001603  1.381941  0.001  -0.176379  0.0001  1.7738  0.0  -0.193468  -0.000351  1.751141  0.0  -0.100659  -0.163396  0.000825  1.787717  0.001
I  I77  1  0.81295372  0.04851357  0.32664860  1  -0.046659  0.002215  1.518184  0.002  -0.030376  0.001984  1.914614  0.001  -0.020426  0.001311  1.89646  0.001  0.01046  -0.035684  0.00251  1.925926  0.002
I  I78  1  0.18702710  0.95149938  0.67334780  1  -0.046691  0.002219  1.518224  0.002  -0.030385  0.001985  1.914624  0.001  -0.020432  0.001311  1.896471  0.001  0.01046  -0.035693  0.002511  1.925935  0.002
I  I79  1  0.81251625  0.83968580  0.49212249  1  -0.219858  0.002432  1.064078  0.002  -0.208429  0.001111  1.376047  0.001  -0.214408  0.000501  1.360441  0.001  -0.095512  -0.20304  0.001471  1.386096  0.001
I  I80  1  0.18749653  0.16031577  0.50787148  1  -0.219881  0.002432  1.064048  0.002  -0.208466  0.001111  1.376026  0.001  -0.214443  0.000501  1.360417  0.001  -0.095541  -0.203077  0.001471  1.386077  0.001
N  N81  1  0.41797647  0.07868472  0.20196193  1  -0.25612  0.002595  3.447342  0.004  -0.174602  0.002259  3.69209  0.004  -0.197299  0.001306  3.706689  0.003  -0.252393  -0.159331  0.002805  3.681975  0.004
N  N82  1  0.58202495  0.92130336  0.79804173  1  -0.256245  0.002599  3.447439  0.004  -0.17481  0.002258  3.692233  0.004  -0.197519  0.001304  3.706842  0.003  -0.252358  -0.159542  0.002804  3.682118  0.004
N  N83  1  0.51604131  0.83842752  0.27357600  1  -0.149749  0.011836  3.417021  0.014  -0.057779  0.012049  3.645728  0.015  -0.076044  0.010192  3.667661  0.013  -0.259565  -0.045959  0.012418  3.630421  0.014
N  N84  1  0.48395579  0.16155832  0.72643530  1  -0.14975  0.011847  3.417196  0.014  -0.057992  0.012046  3.646137  0.015  -0.076265  0.01019  3.668067  0.013  -0.259599  -0.046172  0.012416  3.630834  0.014
N  N85  1  0.29850727  0.34179538  0.14060249  1  -0.226001  -0.001083  3.37842  0.0  -0.136666  -6e-06  3.613284  0.001  -0.156454  -0.000783  3.632417  0.0  -0.28074  -0.122466  0.000571  3.5995  0.001
N  N86  1  0.70149871  0.65820058  0.85939588  1  -0.225865  -0.001103  3.378199  0.0  -0.136504  -4e-06  3.613025  0.001  -0.156291  -0.000782  3.632165  0.0  -0.280706  -0.122305  0.000572  3.599243  0.001
N  N87  1  0.39111395  0.18386391  0.04637519  1  -0.493005  0.055108  3.217984  0.069  -0.43965  0.047991  3.527774  0.061  -0.477362  0.044002  3.543462  0.059  -0.41814  -0.420174  0.045404  3.522756  0.056
N  N88  1  0.60888812  0.81613206  0.95362531  1  -0.493146  0.055107  3.21771  0.069  -0.439834  0.047998  3.527497  0.061  -0.477549  0.044006  3.54318  0.059  -0.418194  -0.420354  0.045408  3.522493  0.056
