# generated using pymatgen
data_Zn2H22C42S(N4O5)2
_symmetry_space_group_name_H-M   'P 1'
_cell_length_a   7.69425250
_cell_length_b   16.17729460
_cell_length_c   17.95957726
_cell_angle_alpha   108.79873713
_cell_angle_beta   101.36293455
_cell_angle_gamma   97.16562553
_symmetry_Int_Tables_number   1
_chemical_formula_structural   Zn2H22C42S(N4O5)2
_chemical_formula_sum   'Zn4 H44 C84 S2 N16 O20'
_cell_volume   2031.62273186
_cell_formula_units_Z   2
loop_
 _symmetry_equiv_pos_site_id
 _symmetry_equiv_pos_as_xyz
  1  'x, y, z'
loop_
 _atom_site_type_symbol
 _atom_site_label
 _atom_site_symmetry_multiplicity
 _atom_site_fract_x
 _atom_site_fract_y
 _atom_site_fract_z
 _atom_site_occupancy
 _atom_site_pbe_bader_charge
 _atom_site_pbe_bader_spin_density
 _atom_site_pbe_cm5_charge
 _atom_site_pbe_ddec_charge
 _atom_site_pbe_ddec_spin_density
 _atom_site_pbe_ddec_sum_bond_order
 _atom_site_pbe_magmom
Zn  Zn0  1  0.57049667  0.54083664  0.41477524  1  1.316624  0  0.701764  0.845039  0  2.354903  0
Zn  Zn1  1  0.42950015  0.45916292  0.58522404  1  1.31666  0  0.701779  0.845049  0  2.354936  0
Zn  Zn2  1  0.82493719  0.19164289  0.85636801  1  1.252953  0  0.698756  0.777104  0  2.375279  0
Zn  Zn3  1  0.17506232  0.80836001  0.14363188  1  1.253022  0  0.698789  0.777126  0  2.375346  0
H  H4  1  0.67807189  0.86718013  0.22210207  1  0.565285  0  0.317853  0.308049  0  0.967203  0
H  H5  1  0.32192551  0.13282078  0.77789931  1  0.565252  0  0.31784  0.308038  0  0.967195  0
H  H6  1  0.00206537  0.37876607  0.56354681  1  0.571984  0  0.310097  0.298239  0  0.989697  0
H  H7  1  0.99793350  0.62123212  0.43644836  1  0.571968  0  0.310088  0.298242  0  0.989645  0
H  H8  1  0.27339267  0.26641088  0.29968790  1  0.067576  0  0.108489  0.114482  0  0.995551  0
H  H9  1  0.72660468  0.73358671  0.70031253  1  0.067661  0  0.108524  0.114528  0  0.995503  0
H  H10  1  0.03276290  0.12995972  0.21575429  1  0.097729  0  0.108709  0.110255  0  1.018854  0
H  H11  1  0.96723551  0.87003720  0.78424605  1  0.097773  0  0.10871  0.110297  0  1.018817  0
H  H12  1  0.62458235  0.27802113  0.28371767  1  0.121242  0  0.111164  0.117735  0  1.007451  0
H  H13  1  0.37541400  0.72197715  0.71628566  1  0.121306  0  0.111205  0.117735  0  1.007505  0
H  H14  1  0.73639078  0.13376180  0.05683427  1  0.093638  0  0.11208  0.120591  0  0.987927  0
H  H15  1  0.26360222  0.86623175  0.94316132  1  0.093544  0  0.112072  0.120599  0  0.98793  0
H  H16  1  0.08706278  0.13956191  0.04323245  1  0.097322  0  0.106593  0.111861  0  1.007573  0
H  H17  1  0.91293707  0.86044170  0.95677157  1  0.097298  0  0.106581  0.111847  0  1.007553  0
H  H18  1  0.27479950  0.10097084  0.15455115  1  0.085876  0  0.104712  0.107751  0  1.023441  0
H  H19  1  0.72519791  0.89903009  0.84545079  1  0.08524  0  0.104713  0.107737  0  1.023432  0
H  H20  1  0.44571008  0.66431039  0.56255082  1  0.128945  0  0.114877  0.092669  0  1.021056  0
H  H21  1  0.55429581  0.33569185  0.43745109  1  0.12895  0  0.114868  0.092684  0  1.021024  0
H  H22  1  0.42134953  0.82514686  0.61409115  1  0.091628  0  0.104046  0.117445  0  1.031683  0
H  H23  1  0.57865449  0.17485405  0.38591023  1  0.091607  0  0.104055  0.11744  0  1.031674  0
H  H24  1  0.48108123  0.92038503  0.53194149  1  0.178182  0  0.109067  0.114365  0  1.043539  0
H  H25  1  0.51892441  0.07961657  0.46806132  1  0.178138  0  0.109053  0.114376  0  1.043545  0
H  H26  1  0.65339649  0.47460268  0.24076860  1  0.107082  0  0.121889  0.093308  0  0.977395  0
H  H27  1  0.34658786  0.52539555  0.75922928  1  0.107052  0  0.121935  0.093369  0  0.977351  0
H  H28  1  0.69478434  0.54313463  0.13658562  1  0.095724  0  0.115378  0.123239  0  0.975942  0
H  H29  1  0.30520454  0.45686494  0.86341357  1  0.095724  0  0.115389  0.123256  0  0.975982  0
H  H30  1  0.68274094  0.70516451  0.16738856  1  0.160581  0  0.114566  0.134895  0  1.017486  0
H  H31  1  0.31725059  0.29483506  0.83261141  1  0.160532  0  0.114558  0.134898  0  1.0175  0
H  H32  1  0.63702772  0.01603730  0.31712264  1  0.145236  0  0.129316  0.096739  0  1.041881  0
H  H33  1  0.36297659  0.98396430  0.68288006  1  0.145218  0  0.129291  0.096669  0  1.041923  0
H  H34  1  0.78361899  0.39045010  0.89514701  1  0.114739  0  0.126082  0.104108  0  0.973902  0
H  H35  1  0.21637170  0.60955076  0.10484879  1  0.114916  0  0.126058  0.104092  0  0.97393  0
H  H36  1  0.81808151  0.49976832  0.82230117  1  0.111142  0  0.117548  0.126444  0  0.972125  0
H  H37  1  0.18191098  0.50023052  0.17769198  1  0.111088  0  0.117535  0.12643  0  0.972067  0
H  H38  1  0.88788508  0.44838764  0.68673974  1  0.151303  0  0.11276  0.128837  0  1.018759  0
H  H39  1  0.11211274  0.55161122  0.31325552  1  0.151343  0  0.11277  0.128885  0  1.018704  0
H  H40  1  0.91975801  0.99815674  0.53122989  1  0.119486  0  0.110862  0.11028  0  1.036706  0
H  H41  1  0.08025849  0.00184551  0.46877289  1  0.119834  0  0.110903  0.110333  0  1.036708  0
H  H42  1  0.87531234  0.91272991  0.61939317  1  0.127373  0  0.106677  0.110475  0  1.024657  0
H  H43  1  0.12470550  0.08727236  0.38061084  1  0.127399  0  0.106674  0.110533  0  1.024579  0
H  H44  1  0.81674654  0.99097730  0.75631545  1  0.123389  0  0.121965  0.094499  0  0.978856  0
H  H45  1  0.18326598  0.00902495  0.24368700  1  0.123363  0  0.121966  0.094512  0  0.978844  0
H  H46  1  0.04587085  0.25478704  0.44140281  1  0.122612  0  0.125171  0.085308  0  1.023801  0
H  H47  1  0.95412563  0.74520851  0.55859308  1  0.12262  0  0.12512  0.085188  0  1.023694  0
C  C48  1  0.84414000  0.43748341  0.37409724  1  1.611909  0  0.211408  0.579619  0  4.215818  0
C  C49  1  0.15585921  0.56251550  0.62590262  1  1.611817  0  0.211409  0.579624  0  4.215853  0
C  C50  1  0.89892019  0.35115134  0.33342170  1  0.04509  0  -0.010363  -0.053167  0  3.930035  0
C  C51  1  0.10108114  0.64884624  0.66657851  1  0.045024  0  -0.010443  -0.05327  0  3.930118  0
C  C52  1  0.08237456  0.34718422  0.33900401  1  -0.043485  0  0.005562  -0.013289  0  3.908988  0
C  C53  1  0.91762729  0.65281468  0.66099550  1  -0.043545  0  0.005588  -0.013244  0  3.908966  0
C  C54  1  0.13077041  0.26827371  0.29582741  1  0.017056  0  -0.082932  -0.106653  0  3.958726  0
C  C55  1  0.86922827  0.73172388  0.70417314  1  0.017321  0  -0.082956  -0.106704  0  3.958774  0
C  C56  1  0.99828861  0.19233376  0.24901032  1  -0.012518  0  -0.076781  -0.07801  0  3.990248  0
C  C57  1  0.00170715  0.80766315  0.75098980  1  -0.012986  0  -0.076803  -0.078088  0  3.990316  0
C  C58  1  0.81685163  0.19601613  0.24615736  1  -0.214189  0  -0.026748  -0.098972  0  4.021711  0
C  C59  1  0.18314443  0.80398148  0.75384465  1  -0.214413  0  -0.026748  -0.098999  0  4.021731  0
C  C60  1  0.76632095  0.27466998  0.28702757  1  -0.06518  0  -0.07321  -0.09675  0  3.96438  0
C  C61  1  0.23367776  0.72532763  0.71297465  1  -0.06484  0  -0.073192  -0.096635  0  3.964446  0
C  C62  1  0.23423441  0.42271107  0.39524757  1  1.631426  0  0.222795  0.615339  0  4.217057  0
C  C63  1  0.76576849  0.57728716  0.60475128  1  1.631551  0  0.22279  0.615328  0  4.217116  0
C  C64  1  0.51509609  0.11683710  0.11211747  1  -0.186101  0  -0.019165  -0.068905  0  4.005502  0
C  C65  1  0.48489989  0.88316045  0.88787950  1  -0.186342  0  -0.019151  -0.068947  0  4.00564  0
C  C66  1  0.59439481  0.13601609  0.05461762  1  -0.043156  0  -0.075156  -0.117022  0  3.9351  0
C  C67  1  0.40559825  0.86398079  0.94537948  1  -0.042953  0  -0.075133  -0.117013  0  3.935039  0
C  C68  1  0.49138254  0.15975736  0.99415905  1  0.010061  0  0.010028  0.005216  0  3.893234  0
C  C69  1  0.50861403  0.84024155  0.00584115  1  0.010101  0  0.01  0.005174  0  3.893103  0
C  C70  1  0.30773557  0.16130378  0.99084443  1  0.041552  0  -0.000871  -0.0326  0  3.893787  0
C  C71  1  0.69226314  0.83869713  0.00915650  1  0.041931  0  -0.00087  -0.032592  0  3.89373  0
C  C72  1  0.23006425  0.13881686  0.04789611  1  -0.008149  0  -0.078457  -0.07709  0  3.958809  0
C  C73  1  0.76993104  0.86118539  0.95210548  1  -0.008149  0  -0.078472  -0.077084  0  3.958776  0
C  C74  1  0.33264480  0.11736589  0.10925330  1  -0.027508  0  -0.085145  -0.097728  0  4.001206  0
C  C75  1  0.66735260  0.88263503  0.89074864  1  -0.027131  0  -0.085169  -0.09773  0  4.001286  0
C  C76  1  0.18810096  0.18335074  0.92576205  1  1.593135  0  0.213611  0.589115  0  4.196312  0
C  C77  1  0.81189593  0.81665218  0.07423986  1  1.593149  0  0.213641  0.589151  0  4.19631  0
C  C78  1  0.59156402  0.18606201  0.93871791  1  1.586762  0  0.193862  0.570173  0  4.239216  0
C  C79  1  0.40842910  0.81393822  0.06128126  1  1.586734  0  0.193783  0.569976  0  4.239344  0
C  C80  1  0.47409819  0.70795304  0.52909693  1  0.456327  0  0.047434  0.097289  0  3.936791  0
C  C81  1  0.52590611  0.29204854  0.47090521  1  0.45628  0  0.047487  0.097322  0  3.936666  0
C  C82  1  0.45933526  0.79775764  0.55714156  1  -0.006874  0  -0.084997  -0.125596  0  3.954785  0
C  C83  1  0.54066906  0.20224396  0.44286170  1  -0.006378  0  -0.08504  -0.125643  0  3.954885  0
C  C84  1  0.49366140  0.85044869  0.51210459  1  -0.020044  0  -0.058523  -0.049037  0  3.876168  0
C  C85  1  0.50634345  0.14955423  0.48789798  1  -0.020626  0  -0.058523  -0.049051  0  3.876298  0
C  C86  1  0.54312897  0.81217077  0.43888052  1  -0.038197  0  0.004184  -0.004376  0  3.992482  0
C  C87  1  0.45687372  0.18783014  0.56112074  1  -0.037873  0  0.004162  -0.004384  0  3.992448  0
C  C88  1  0.55446974  0.72077595  0.41451281  1  0.523061  0  0.109492  0.105104  0  4.001195  0
C  C89  1  0.44552898  0.27922497  0.58548813  1  0.523065  0  0.109487  0.105122  0  4.001199  0
C  C90  1  0.59972101  0.67618728  0.33875058  1  0.512399  0  0.114992  0.115932  0  3.989406  0
C  C91  1  0.40027239  0.32381363  0.66124936  1  0.512424  0  0.114926  0.115782  0  3.98939  0
C  C92  1  0.64531169  0.54411037  0.25109403  1  0.494237  0  0.054617  0.101423  0  3.954175  0
C  C93  1  0.35467614  0.45588987  0.74890526  1  0.494222  0  0.054564  0.10133  0  3.95411  0
C  C94  1  0.66851874  0.58306827  0.19335877  1  -0.024251  0  -0.083879  -0.134146  0  3.995105  0
C  C95  1  0.33146910  0.41693197  0.80664108  1  -0.024666  0  -0.08392  -0.134192  0  3.995087  0
C  C96  1  0.66160012  0.67221599  0.21015289  1  -0.024087  0  -0.063066  -0.064001  0  3.891664  0
C  C97  1  0.33839567  0.32778426  0.78984817  1  -0.024131  0  -0.063048  -0.063965  0  3.891551  0
C  C98  1  0.62803392  0.72155413  0.28470545  1  -0.032121  0  0.00307  -0.006922  0  4.008913  0
C  C99  1  0.37195893  0.27844544  0.71529351  1  -0.031671  0  0.003092  -0.006876  0  4.008934  0
C  C100  1  0.61953233  0.81357590  0.31185948  1  0.437544  0  0.08767  0.070572  0  4.021963  0
C  C101  1  0.38046612  0.18642435  0.68814180  1  0.43726  0  0.087637  0.070505  0  4.022104  0
C  C102  1  0.58148295  0.85827384  0.38628561  1  0.441398  0  0.084975  0.083014  0  4.075142  0
C  C103  1  0.41851683  0.14172642  0.61371634  1  0.441639  0  0.085035  0.083113  0  4.075186  0
C  C104  1  0.62554985  0.95521685  0.33050345  1  1.017132  0  0.150666  0.182991  0  3.930896  0
C  C105  1  0.37445313  0.04478474  0.66949914  1  1.017144  0  0.150704  0.183084  0  3.931026  0
C  C106  1  0.81519977  0.37167088  0.83605893  1  0.503617  0  0.057879  0.097368  0  3.949323  0
C  C107  1  0.18479784  0.62833066  0.16393819  1  0.503248  0  0.057882  0.097344  0  3.949566  0
C  C108  1  0.83480608  0.43154534  0.79506419  1  -0.021466  0  -0.081713  -0.128497  0  3.978207  0
C  C109  1  0.16519095  0.56845485  0.20493084  1  -0.02132  0  -0.081782  -0.128497  0  3.97815  0
C  C110  1  0.87365479  0.40300127  0.71979908  1  -0.092624  0  -0.060664  -0.05453  0  3.884684  0
C  C111  1  0.12634569  0.59699760  0.28019752  1  -0.093574  0  -0.060601  -0.054577  0  3.884558  0
C  C112  1  0.89120063  0.31372344  0.68531996  1  0.060336  0  0.001389  -0.013899  0  4.014182  0
C  C113  1  0.10880413  0.68627612  0.31467886  1  0.061183  0  0.001339  -0.013948  0  4.014092  0
C  C114  1  0.86490345  0.25646719  0.72961508  1  0.471269  0  0.116694  0.115295  0  3.979397  0
C  C115  1  0.13510319  0.74353370  0.27038427  1  0.471488  0  0.116718  0.115385  0  3.979302  0
C  C116  1  0.87100877  0.16257483  0.69660787  1  0.514137  0  0.116706  0.11563  0  3.975341  0
C  C117  1  0.12900239  0.83742740  0.30339224  1  0.513698  0  0.116697  0.115633  0  3.975255  0
C  C118  1  0.90297262  0.12410196  0.61877080  1  0.024725  0  0.010454  0.005313  0  3.962392  0
C  C119  1  0.09704121  0.87590028  0.38123120  1  0.024919  0  0.010429  0.005289  0  3.962615  0
C  C120  1  0.90110257  0.03191908  0.59108748  1  -0.036892  0  -0.04969  -0.034408  0  3.876527  0
C  C121  1  0.09891073  0.96808184  0.40891466  1  -0.037013  0  -0.049757  -0.034598  0  3.876789  0
C  C122  1  0.87345260  0.98352955  0.64017545  1  0.059629  0  -0.076221  -0.118925  0  3.971361  0
C  C123  1  0.12656127  0.01647271  0.35982879  1  0.059672  0  -0.076216  -0.118934  0  3.971276  0
C  C124  1  0.84309636  0.02664268  0.71625709  1  0.450028  0  0.064266  0.120287  0  3.916088  0
C  C125  1  0.15691750  0.97335958  0.28374604  1  0.45006  0  0.064356  0.120391  0  3.915967  0
C  C126  1  0.93286817  0.27415220  0.60934952  1  0.350198  0  0.090245  0.076042  0  4.014353  0
C  C127  1  0.06713873  0.72584936  0.39065004  1  0.350336  0  0.090264  0.076077  0  4.014516  0
C  C128  1  0.93744869  0.18310547  0.57605953  1  0.505747  0  0.087483  0.082881  0  4.068807  0
C  C129  1  0.06256326  0.81689544  0.42394138  1  0.50572  0  0.087454  0.082845  0  4.068971  0
C  C130  1  0.00539569  0.24301891  0.49232324  1  0.996152  0  0.143002  0.166873  0  3.970022  0
C  C131  1  0.99460691  0.75697863  0.50767372  1  0.996255  0  0.143082  0.167035  0  3.969855  0
S  S132  1  0.64926669  0.09637888  0.19420303  1  2.474038  0  0.477731  0.970773  0  5.72763  0
S  S133  1  0.35073093  0.90361937  0.80579706  1  2.473799  0  0.477799  0.970958  0  5.727455  0
N  N134  1  0.52088298  0.67100161  0.45995838  1  -1.250612  0  -0.326528  -0.274677  0  3.572505  0
N  N135  1  0.47911517  0.32899796  0.54004158  1  -1.250631  0  -0.326522  -0.274687  0  3.572479  0
N  N136  1  0.61225458  0.58962074  0.32143538  1  -1.266435  0  -0.322557  -0.276705  0  3.573421  0
N  N137  1  0.38773723  0.41037951  0.67856479  1  -1.266407  0  -0.322514  -0.276586  0  3.573265  0
N  N138  1  0.58610421  0.94675735  0.39688624  1  -1.19302  0  -0.334669  -0.350688  0  3.23778  0
N  N139  1  0.41390304  0.05324492  0.60311745  1  -1.193163  0  -0.334655  -0.350714  0  3.237898  0
N  N140  1  0.64577993  0.87707848  0.27728580  1  -1.289359  0  -0.370391  -0.255375  0  3.602676  0
N  N141  1  0.35422013  0.12292245  0.72271636  1  -1.289154  0  -0.37041  -0.255405  0  3.602869  0
N  N142  1  0.83051422  0.28699105  0.80393457  1  -1.265928  0  -0.326143  -0.264791  0  3.605075  0
N  N143  1  0.16948445  0.71300983  0.19606357  1  -1.26602  0  -0.326158  -0.264837  0  3.605242  0
N  N144  1  0.84188143  0.11340411  0.74307301  1  -1.258895  0  -0.325674  -0.258603  0  3.594417  0
N  N145  1  0.15812471  0.88659879  0.25692799  1  -1.258693  0  -0.325759  -0.258727  0  3.594372  0
N  N146  1  0.97633400  0.31079683  0.55445258  1  -1.32081  0  -0.372583  -0.259931  0  3.614252  0
N  N147  1  0.02366489  0.68920137  0.44554371  1  -1.321037  0  -0.372546  -0.259928  0  3.614247  0
N  N148  1  0.98249836  0.16490452  0.50266236  1  -1.151409  0  -0.335453  -0.355785  0  3.240332  0
N  N149  1  0.01750824  0.83509305  0.49733660  1  -1.151239  0  -0.335414  -0.355734  0  3.240325  0
O  O150  1  0.96202644  0.50816647  0.39958489  1  -1.185828  0  -0.302631  -0.534918  0  2.228258  0
O  O151  1  0.03797138  0.49183239  0.60041093  1  -1.18593  0  -0.302596  -0.534903  0  2.228252  0
O  O152  1  0.67710414  0.43076805  0.37594935  1  -1.178364  0  -0.324216  -0.557069  0  2.347554  0
O  O153  1  0.32289372  0.56923084  0.62404871  1  -1.178314  0  -0.324234  -0.557073  0  2.347541  0
O  O154  1  0.27056453  0.42880547  0.46863079  1  -1.194106  0  -0.313781  -0.564836  0  2.398098  0
O  O155  1  0.72944022  0.57119408  0.53136748  1  -1.194115  0  -0.313823  -0.564893  0  2.398113  0
O  O156  1  0.32083450  0.46700730  0.36236808  1  -1.170097  0  -0.315056  -0.538606  0  2.356751  0
O  O157  1  0.67916282  0.53299026  0.63763012  1  -1.170066  0  -0.315024  -0.538605  0  2.356808  0
O  O158  1  0.53400550  0.09140141  0.24868881  1  -1.300869  0  -0.310587  -0.532208  0  2.221227  0
O  O159  1  0.46599234  0.90859416  0.75130942  1  -1.300717  0  -0.310622  -0.532244  0  2.221141  0
O  O160  1  0.74389805  0.02523992  0.16507921  1  -1.287591  0  -0.306719  -0.506397  0  2.171448  0
O  O161  1  0.25609955  0.97475832  0.83491976  1  -1.287554  0  -0.306704  -0.506427  0  2.171433  0
O  O162  1  0.03800112  0.20235487  0.94166302  1  -1.167025  0  -0.335998  -0.552533  0  2.329722  0
O  O163  1  0.96199713  0.79765138  0.05833939  1  -1.167039  0  -0.33608  -0.552625  0  2.329747  0
O  O164  1  0.23497722  0.18151701  0.86237071  1  -1.189466  0  -0.308665  -0.552408  0  2.245687  0
O  O165  1  0.76501913  0.81848458  0.13763077  1  -1.18944  0  -0.308613  -0.55232  0  2.245668  0
O  O166  1  0.63980035  0.26670073  0.94845798  1  -1.160198  0  -0.338636  -0.562375  0  2.076394  0
O  O167  1  0.36019573  0.73330019  0.05154386  1  -1.160188  0  -0.338635  -0.562319  0  2.076453  0
O  O168  1  0.63928237  0.12165880  0.88778965  1  -1.14997  0  -0.332751  -0.537506  0  2.25303  0
O  O169  1  0.36071100  0.87834209  0.11220861  1  -1.15003  0  -0.332681  -0.537366  0  2.25302  0
