# generated using pymatgen
data_CdH22C27(NO2)4
_symmetry_space_group_name_H-M   'P 1'
_cell_length_a   10.37579752
_cell_length_b   10.53482583
_cell_length_c   12.42692541
_cell_angle_alpha   92.18564140
_cell_angle_beta   103.30081400
_cell_angle_gamma   100.61886835
_symmetry_Int_Tables_number   1
_chemical_formula_structural   CdH22C27(NO2)4
_chemical_formula_sum   'Cd2 H44 C54 N8 O16'
_cell_volume   1294.66426120
_cell_formula_units_Z   2
loop_
 _symmetry_equiv_pos_site_id
 _symmetry_equiv_pos_as_xyz
  1  'x, y, z'
loop_
 _atom_site_type_symbol
 _atom_site_label
 _atom_site_symmetry_multiplicity
 _atom_site_fract_x
 _atom_site_fract_y
 _atom_site_fract_z
 _atom_site_occupancy
 _atom_site_pbe_bader_spin_density
 _atom_site_pbe_cm5_charge
 _atom_site_pbe_ddec_charge
 _atom_site_pbe_ddec_spin_density
 _atom_site_pbe_ddec_sum_bond_order
 _atom_site_pbe_magmom
Cd  Cd0  1  0.60257310  0.77933880  0.45165116  1  0  0.763761  0.885494  0  2.113002  0
Cd  Cd1  1  0.39742501  0.22066295  0.54835102  1  0  0.763757  0.885514  0  2.11307  0
H  H2  1  0.25370195  0.93872210  0.11050292  1  0  0.322042  0.275735  0  0.94473  0
H  H3  1  0.74630011  0.06127962  0.88949923  1  0  0.322045  0.275739  0  0.944718  0
H  H4  1  0.77664405  0.67515905  0.71821868  1  0  0.308415  0.2783  0  0.989105  0
H  H5  1  0.22335466  0.32484066  0.28177713  1  0  0.308406  0.278296  0  0.98913  0
H  H6  1  0.66550324  0.05086021  0.55931009  1  0  0.287947  0.393823  0  0.945083  0
H  H7  1  0.33449725  0.94914347  0.44069259  1  0  0.287953  0.393776  0  0.945125  0
H  H8  1  0.79692628  0.99640444  0.58730528  1  0  0.289647  0.372822  0  0.973947  0
H  H9  1  0.20307380  0.00359729  0.41269648  1  0  0.289704  0.372913  0  0.973847  0
H  H10  1  0.38159304  0.86454076  0.25816934  1  0  0.12031  0.101965  0  0.995949  0
H  H11  1  0.61841021  0.13546195  0.74183467  1  0  0.120304  0.101955  0  0.995939  0
H  H12  1  0.04084458  0.12896429  0.62273822  1  0  0.299148  0.36285  0  0.98761  0
H  H13  1  0.95915910  0.87104028  0.37726109  1  0  0.299172  0.362898  0  0.987533  0
H  H14  1  0.78688009  0.02715752  0.37881476  1  0  0.113459  0.084705  0  1.013646  0
H  H15  1  0.21312434  0.97284122  0.62118377  1  0  0.113467  0.084734  0  1.013629  0
H  H16  1  0.77640198  0.19285134  0.23990541  1  0  0.105843  0.109361  0  1.017795  0
H  H17  1  0.22359948  0.80714742  0.76009334  1  0  0.105854  0.109376  0  1.017791  0
H  H18  1  0.55497782  0.19322719  0.10442830  1  0  0.111998  0.127752  0  1.017457  0
H  H19  1  0.44502346  0.80677552  0.89557452  1  0  0.111978  0.127719  0  1.017503  0
H  H20  1  0.18525683  0.15808181  0.81207892  1  0  0.111529  0.127161  0  1.023995  0
H  H21  1  0.81474940  0.84192082  0.18792165  1  0  0.111534  0.127146  0  1.024014  0
H  H22  1  0.83371396  0.85558018  0.69832461  1  0  0.11088  0.126967  0  1.05116  0
H  H23  1  0.16629286  0.14442044  0.30167121  1  0  0.110908  0.126977  0  1.051096  0
H  H24  1  0.09932584  0.84189770  0.01489363  1  0  0.105903  0.104502  0  1.028791  0
H  H25  1  0.90067268  0.15810595  0.98510625  1  0  0.10591  0.104467  0  1.028854  0
H  H26  1  0.61524118  0.49805190  0.62554620  1  0  0.122298  0.114318  0  1.004417  0
H  H27  1  0.38475991  0.50194978  0.37445334  1  0  0.122301  0.114347  0  1.004433  0
H  H28  1  0.70051029  0.56648431  0.98201542  1  0  0.111761  0.126801  0  1.039916  0
H  H29  1  0.29949297  0.43351835  0.01798538  1  0  0.11175  0.126752  0  1.039883  0
H  H30  1  0.51116120  0.37596099  0.97823489  1  0  0.106302  0.115105  0  1.02625  0
H  H31  1  0.48883753  0.62404363  0.02176505  1  0  0.106301  0.115113  0  1.026261  0
H  H32  1  0.38511124  0.25769930  0.79834550  1  0  0.109571  0.077652  0  1.053371  0
H  H33  1  0.61488906  0.74230337  0.20165471  1  0  0.109607  0.077679  0  1.053448  0
H  H34  1  0.10974194  0.76606692  0.43998384  1  0  0.105427  0.105631  0  1.049279  0
H  H35  1  0.89024818  0.23392515  0.56001496  1  0  0.105388  0.10557  0  1.049348  0
H  H36  1  0.33210365  0.54959385  0.67343458  1  0  0.103413  0.113029  0  1.019266  0
H  H37  1  0.66789545  0.45040786  0.32656538  1  0  0.103408  0.113033  0  1.019208  0
H  H38  1  0.04141067  0.44227658  0.81000176  1  0  0.09354  0.139589  0  0.984708  0
H  H39  1  0.95859016  0.55771931  0.18999922  1  0  0.093537  0.139559  0  0.984724  0
H  H40  1  0.21881920  0.49906929  0.84911680  1  0  0.09178  0.131393  0  1.003269  0
H  H41  1  0.78118185  0.50092755  0.15088263  1  0  0.091784  0.131363  0  1.003222  0
H  H42  1  0.15006987  0.36228351  0.75260572  1  0  0.090213  0.133049  0  1.024362  0
H  H43  1  0.84993075  0.63771144  0.24739681  1  0  0.090193  0.132999  0  1.024393  0
H  H44  1  0.91860416  0.55826995  0.67236144  1  0  0.101049  0.100708  0  1.037747  0
H  H45  1  0.08139186  0.44171724  0.32763842  1  0  0.101045  0.100712  0  1.037744  0
C  C46  1  0.46675136  0.93938877  0.25112849  1  0  0.043765  -0.009134  0  3.926273  0
C  C47  1  0.53324872  0.06061297  0.74887407  1  0  0.043766  -0.009132  0  3.926367  0
C  C48  1  0.69314316  0.03010097  0.31853491  1  0  0.035957  0.067649  0  3.968294  0
C  C49  1  0.30685871  0.96989974  0.68146476  1  0  0.036013  0.067692  0  3.968228  0
C  C50  1  0.68602442  0.12216201  0.24122916  1  0  -0.081148  -0.099193  0  4.007801  0
C  C51  1  0.31397704  0.87783679  0.75877201  1  0  -0.081176  -0.099231  0  4.007795  0
C  C52  1  0.56418822  0.12299579  0.16602609  1  0  -0.074437  -0.128117  0  3.887401  0
C  C53  1  0.43581186  0.87700594  0.83397567  1  0  -0.074429  -0.12808  0  3.887368  0
C  C54  1  0.45118813  0.02823765  0.17008242  1  0  0.107651  0.219318  0  4.009967  0
C  C55  1  0.54881413  0.97176505  0.82992059  1  0  0.107631  0.219316  0  4.009972  0
C  C56  1  0.28993452  0.07050175  0.99966478  1  0  0.243095  0.476198  0  4.112302  0
C  C57  1  0.71007014  0.92950283  0.00033553  1  0  0.243152  0.476251  0  4.11203  0
C  C58  1  0.15778485  0.00876843  0.92265596  1  0  -0.016797  -0.01793  0  4.037277  0
C  C59  1  0.84221664  0.99123522  0.07734531  1  0  -0.016809  -0.018  0  4.037225  0
C  C60  1  0.12135518  0.06824424  0.82413953  1  0  -0.089399  -0.217154  0  3.931775  0
C  C61  1  0.87864850  0.93176035  0.17586058  1  0  -0.089394  -0.217105  0  3.931826  0
C  C62  1  0.00706215  0.01015542  0.74215257  1  0  0.081948  0.328144  0  4.076197  0
C  C63  1  0.99294211  0.98984722  0.25784761  1  0  0.081951  0.328111  0  4.076382  0
C  C64  1  0.92497874  0.89620229  0.76158232  1  0  -0.098241  -0.227859  0  3.929173  0
C  C65  1  0.07502709  0.10379836  0.23841491  1  0  -0.098306  -0.227837  0  3.929252  0
C  C66  1  0.96001353  0.83753848  0.85976756  1  0  -0.020777  -0.015408  0  4.039989  0
C  C67  1  0.03998933  0.16246220  0.14023070  1  0  -0.020705  -0.015436  0  4.03996  0
C  C68  1  0.07743825  0.89331106  0.94037408  1  0  -0.091856  -0.158737  0  3.979365  0
C  C69  1  0.92256226  0.10669254  0.05962378  1  0  -0.091871  -0.158652  0  3.979299  0
C  C70  1  0.87444529  0.71721150  0.88530277  1  0  0.24059  0.475305  0  4.094997  0
C  C71  1  0.12555503  0.28279108  0.11469100  1  0  0.240575  0.475323  0  4.094995  0
C  C72  1  0.59619615  0.47363872  0.70571675  1  0  0.046987  0.004312  0  3.88204  0
C  C73  1  0.40380493  0.52636296  0.29428279  1  0  0.046977  0.004181  0  3.8821  0
C  C74  1  0.67310286  0.54665018  0.80438149  1  0  0.104627  0.212542  0  4.001939  0
C  C75  1  0.32689844  0.45335246  0.19561730  1  0  0.104621  0.21256  0  4.002017  0
C  C76  1  0.64256832  0.51162521  0.90493454  1  0  -0.075053  -0.139689  0  3.931938  0
C  C77  1  0.35743396  0.48837746  0.09506606  1  0  -0.075049  -0.139624  0  3.931825  0
C  C78  1  0.53813163  0.40702178  0.90248028  1  0  -0.08995  -0.1184  0  4.015449  0
C  C79  1  0.46186809  0.59298282  0.09751905  1  0  -0.089871  -0.118375  0  4.015375  0
C  C80  1  0.46637180  0.34033398  0.80166263  1  0  0.028038  0.05404  0  4.0007  0
C  C81  1  0.53362870  0.65966968  0.19833845  1  0  0.027963  0.054011  0  4.000829  0
C  C82  1  0.86983807  0.71383074  0.50722198  1  0  0.210198  0.577995  0  4.164064  0
C  C83  1  0.13015662  0.28616425  0.49278019  1  0  0.210179  0.577934  0  4.164031  0
C  C84  1  0.11239453  0.70475507  0.50853536  1  0  -0.083118  -0.117845  0  3.942879  0
C  C85  1  0.88759856  0.29523696  0.49146241  1  0  -0.083082  -0.117739  0  3.942966  0
C  C86  1  0.23228985  0.66285033  0.55375376  1  0  -0.019963  -0.034789  0  4.004791  0
C  C87  1  0.76770267  0.33714361  0.44624233  1  0  -0.019967  -0.034965  0  4.004747  0
C  C88  1  0.23761446  0.58134153  0.64031102  1  0  -0.076005  -0.135895  0  3.895269  0
C  C89  1  0.76238361  0.41865534  0.35968863  1  0  -0.076012  -0.135765  0  3.895399  0
C  C90  1  0.12561317  0.54331349  0.68495619  1  0  -0.009129  0.164238  0  3.983747  0
C  C91  1  0.87438429  0.45668046  0.31504328  1  0  -0.009172  0.164047  0  3.984009  0
C  C92  1  0.13341720  0.45742386  0.77909428  1  0  -0.239383  -0.408059  0  3.935937  0
C  C93  1  0.86658363  0.54257204  0.22090670  1  0  -0.23935  -0.40787  0  3.935838  0
C  C94  1  0.00736931  0.58794911  0.63977314  1  0  -0.082113  -0.149641  0  3.925239  0
C  C95  1  0.99262634  0.41204096  0.36022509  1  0  -0.082114  -0.149673  0  3.925368  0
C  C96  1  0.35756111  0.71044082  0.51463814  1  0  0.196065  0.563951  0  4.215748  0
C  C97  1  0.64243144  0.28955799  0.48535886  1  0  0.196098  0.564082  0  4.215636  0
C  C98  1  0.99907459  0.66845939  0.55190389  1  0  -0.021963  -0.042785  0  3.998942  0
C  C99  1  0.00091788  0.33152974  0.44809451  1  0  -0.021945  -0.042649  0  3.99897  0
N  N100  1  0.58462585  0.94031718  0.32286899  1  0  -0.328888  -0.230176  0  3.562671  0
N  N101  1  0.41537820  0.05968453  0.67713354  1  0  -0.328915  -0.23022  0  3.562809  0
N  N102  1  0.32449009  0.01237309  0.09653465  1  0  -0.39309  -0.365314  0  3.591765  0
N  N103  1  0.67550978  0.98762770  0.90346865  1  0  -0.393086  -0.365309  0  3.59188  0
N  N104  1  0.77381095  0.65199673  0.79738299  1  0  -0.395091  -0.374107  0  3.556609  0
N  N105  1  0.22619014  0.34800492  0.20261413  1  0  -0.395123  -0.374131  0  3.556726  0
N  N106  1  0.49565378  0.37313114  0.70509752  1  0  -0.329324  -0.241376  0  3.554844  0
N  N107  1  0.50434652  0.62687154  0.29490269  1  0  -0.329344  -0.241344  0  3.554829  0
O  O108  1  0.85500495  0.77903843  0.42188174  1  0  -0.319355  -0.567748  0  2.237059  0
O  O109  1  0.14499393  0.22096239  0.57812379  1  0  -0.319315  -0.567715  0  2.237122  0
O  O110  1  0.77418998  0.68589401  0.55696199  1  0  -0.318168  -0.546185  0  2.249606  0
O  O111  1  0.22580570  0.31410096  0.44303957  1  0  -0.318196  -0.5462  0  2.249558  0
O  O112  1  0.46279573  0.66516047  0.55406238  1  0  -0.325406  -0.535395  0  2.19393  0
O  O113  1  0.53719782  0.33483830  0.44593320  1  0  -0.325388  -0.535425  0  2.193954  0
O  O114  1  0.35619311  0.79512386  0.44329510  1  0  -0.334671  -0.590721  0  2.234596  0
O  O115  1  0.64379746  0.20487499  0.55670393  1  0  -0.334701  -0.590801  0  2.234643  0
O  O116  1  0.36507711  0.16484523  0.97527102  1  0  -0.276605  -0.466816  0  2.163918  0
O  O117  1  0.63492470  0.83515070  0.02473257  1  0  -0.276653  -0.466886  0  2.163592  0
O  O118  1  0.89389041  0.68197354  0.98062660  1  0  -0.286695  -0.466333  0  2.118044  0
O  O119  1  0.10611010  0.31803008  0.01937206  1  0  -0.286685  -0.466328  0  2.118044  0
O  O120  1  0.69788336  0.96819486  0.57402805  1  0  -0.598232  -0.76853  0  2.085266  0
O  O121  1  0.30211594  0.03180785  0.42597357  1  0  -0.598282  -0.768573  0  2.085239  0
O  O122  1  0.96978668  0.05743388  0.64204597  1  0  -0.350293  -0.479065  0  2.394257  0
O  O123  1  0.03021738  0.94256780  0.35795415  1  0  -0.350302  -0.479086  0  2.394303  0
