# generated using pymatgen
data_CuH8C10N2O3
_symmetry_space_group_name_H-M   'P 1'
_cell_length_a   4.34907898
_cell_length_b   13.38714102
_cell_length_c   15.58891551
_cell_angle_alpha   89.99973596
_cell_angle_beta   89.99875713
_cell_angle_gamma   89.99965054
_symmetry_Int_Tables_number   1
_chemical_formula_structural   CuH8C10N2O3
_chemical_formula_sum   'Cu4 H32 C40 N8 O12'
_cell_volume   907.61368639
_cell_formula_units_Z   4
loop_
 _symmetry_equiv_pos_site_id
 _symmetry_equiv_pos_as_xyz
  1  'x, y, z'
loop_
 _atom_site_type_symbol
 _atom_site_label
 _atom_site_symmetry_multiplicity
 _atom_site_fract_x
 _atom_site_fract_y
 _atom_site_fract_z
 _atom_site_occupancy
 _atom_site_pbe_cm5_charge
 _atom_site_pbe_ddec_charge
 _atom_site_pbe_ddec_spin_density
 _atom_site_pbe_ddec_sum_bond_order
 _atom_site_pbe_magmom
Cu  Cu0  1  0.06278293  0.16261523  0.44914234  1  0.72818  0.819855  -0.571723  2.2309  -0.445
Cu  Cu1  1  0.43721587  0.83738343  0.94914258  1  0.728195  0.819872  0.571732  2.230943  0.445
Cu  Cu2  1  0.93721324  0.66261764  0.05085762  1  0.728095  0.819618  -0.571711  2.230954  -0.445
Cu  Cu3  1  0.56277747  0.33738068  0.55085698  1  0.728115  0.819676  0.571708  2.23102  0.445
H  H4  1  0.66157943  0.15534171  0.55037079  1  0.272337  0.349659  -0.000291  1.02399  0.0
H  H5  1  0.83840672  0.84465660  0.05037003  1  0.272295  0.349571  0.000291  1.024121  0.0
H  H6  1  0.33842883  0.65534839  0.94962820  1  0.272319  0.349623  -0.00029  1.024051  0.0
H  H7  1  0.16157913  0.34465251  0.44963049  1  0.272337  0.349674  0.00029  1.023985  0.0
H  H8  1  0.74465035  0.16662360  0.17875647  1  0.10682  0.12729  -0.00072  1.00521  -0.001
H  H9  1  0.75535348  0.83337925  0.67876104  1  0.106828  0.127295  0.00072  1.005076  0.001
H  H10  1  0.25534345  0.66661695  0.32124668  1  0.106866  0.127361  -0.00072  1.005191  -0.001
H  H11  1  0.24464454  0.33337643  0.82123789  1  0.106831  0.127306  0.00072  1.005185  0.001
H  H12  1  0.55271641  0.99842662  0.13063660  1  0.108258  0.111903  -9.6e-05  1.015056  0.0
H  H13  1  0.94728884  0.00157799  0.63064008  1  0.108268  0.111901  9.6e-05  1.015094  0.0
H  H14  1  0.44728726  0.49842089  0.36936459  1  0.10827  0.111864  -9.6e-05  1.015181  0.0
H  H15  1  0.05271081  0.50157446  0.86935952  1  0.108264  0.111981  9.6e-05  1.014975  0.0
H  H16  1  0.18493474  0.90570343  0.22180846  1  0.109875  0.132646  -0.000471  1.018868  -0.001
H  H17  1  0.31507703  0.09429869  0.72180917  1  0.109895  0.132704  0.000471  1.018943  0.001
H  H18  1  0.81507527  0.40570045  0.27819310  1  0.109868  0.132658  -0.000471  1.018782  -0.001
H  H19  1  0.68492778  0.59429664  0.77818878  1  0.109883  0.132663  0.000471  1.018872  0.001
H  H20  1  0.93048744  0.83022106  0.31405008  1  0.106513  0.121744  -0.000562  1.013872  -0.001
H  H21  1  0.56951054  0.16978182  0.81405135  1  0.106509  0.121785  0.000562  1.013911  0.001
H  H22  1  0.06950789  0.33021930  0.18594408  1  0.106513  0.121821  -0.000562  1.01385  -0.001
H  H23  1  0.43048826  0.66977778  0.68594758  1  0.106539  0.121811  0.000562  1.013838  0.001
H  H24  1  0.56142875  0.76050274  0.42259193  1  0.099621  0.089782  4.4e-05  1.026912  0.0
H  H25  1  0.93856084  0.23950031  0.92259324  1  0.099597  0.089738  -4.4e-05  1.026949  0.0
H  H26  1  0.43856558  0.26050307  0.07740251  1  0.09959  0.08972  4.4e-05  1.026987  0.0
H  H27  1  0.06144584  0.73949908  0.57740670  1  0.099609  0.089698  -4.4e-05  1.026985  0.0
H  H28  1  0.35652470  0.87265428  0.53761958  1  0.101823  0.120144  -0.000759  1.023647  -0.001
H  H29  1  0.14346221  0.12734808  0.03761899  1  0.101818  0.120114  0.000759  1.023617  0.001
H  H30  1  0.64348408  0.37265663  0.96237791  1  0.101805  0.12009  -0.000759  1.023643  -0.001
H  H31  1  0.85653692  0.62734694  0.46238111  1  0.101826  0.120142  0.000759  1.023687  0.001
H  H32  1  0.47002934  0.27180412  0.38198548  1  0.285974  0.355878  3.8e-05  1.000405  0.0
H  H33  1  0.02998154  0.72819416  0.88198542  1  0.28602  0.355893  -3.7e-05  1.000346  0.0
H  H34  1  0.52997168  0.77180473  0.11801854  1  0.286008  0.355923  3.8e-05  1.000317  0.0
H  H35  1  0.97002305  0.22819248  0.61801393  1  0.285998  0.355852  -3.8e-05  1.000437  0.0
C  C36  1  0.61522605  0.00093702  0.49582030  1  0.19731  0.475481  -0.001181  4.165949  0.0
C  C37  1  0.88476708  0.99906563  0.99582022  1  0.197333  0.475508  0.001181  4.166138  0.0
C  C38  1  0.38478695  0.50094152  0.00417773  1  0.197221  0.475275  -0.001181  4.166183  0.0
C  C39  1  0.11521863  0.49906103  0.50418255  1  0.197167  0.47524  0.001181  4.166163  0.0
C  C40  1  0.46950260  0.16529767  0.29376980  1  0.207467  0.474034  -0.001071  4.105483  0.0
C  C41  1  0.03050820  0.83470108  0.79377188  1  0.207427  0.473934  0.001071  4.105609  0.0
C  C42  1  0.53050041  0.66529706  0.20623464  1  0.207425  0.473993  -0.001071  4.105624  0.0
C  C43  1  0.96949439  0.33469893  0.70622768  1  0.207356  0.473786  0.001071  4.105827  0.0
C  C44  1  0.94451425  0.97429794  0.37598222  1  0.108045  0.184894  -0.00102  4.036438  0.0
C  C45  1  0.55548814  0.02570162  0.87598350  1  0.108002  0.184827  0.001021  4.036518  0.0
C  C46  1  0.05549216  0.47430178  0.12401650  1  0.108056  0.184849  -0.001019  4.03649  0.0
C  C47  1  0.44450186  0.52570012  0.62401664  1  0.108025  0.18489  0.001019  4.036566  0.0
C  C48  1  0.16406825  0.02239809  0.31731595  1  0.109059  0.176455  -0.000932  4.025158  0.0
C  C49  1  0.33593614  0.97760202  0.81731753  1  0.109153  0.176663  0.000932  4.025146  0.0
C  C50  1  0.83593285  0.52239401  0.18268649  1  0.109139  0.176694  -0.000932  4.024976  0.0
C  C51  1  0.66405918  0.47759986  0.68268339  1  0.109117  0.17645  0.000931  4.025036  0.0
C  C52  1  0.57625964  0.12450490  0.21569485  1  -0.102221  -0.25278  -0.002269  3.940581  -0.002
C  C53  1  0.92374593  0.87549851  0.71569822  1  -0.102141  -0.252628  0.002269  3.940531  0.002
C  C54  1  0.42374184  0.62450632  0.28430718  1  -0.102258  -0.252832  -0.002269  3.940596  -0.002
C  C55  1  0.07625360  0.37549472  0.78430182  1  -0.10214  -0.252631  0.002269  3.940565  0.002
C  C56  1  0.47197505  0.03167270  0.19009768  1  -0.067739  0.011227  0.0013  3.974067  0.001
C  C57  1  0.02803457  0.96832810  0.69009860  1  -0.06771  0.011237  -0.0013  3.974178  -0.001
C  C58  1  0.52802817  0.53166706  0.30990536  1  -0.067726  0.011223  0.0013  3.974033  0.001
C  C59  1  0.97196552  0.46832613  0.80989979  1  -0.067705  0.011153  -0.0013  3.974086  -0.001
C  C60  1  0.26510888  0.97890115  0.24163818  1  -0.090347  -0.172913  -0.001422  3.939699  -0.001
C  C61  1  0.23490135  0.02110161  0.74163903  1  -0.090403  -0.173099  0.001423  3.939785  0.001
C  C62  1  0.73489055  0.47889919  0.25836116  1  -0.090346  -0.172962  -0.001422  3.939789  -0.001
C  C63  1  0.76510713  0.52109876  0.75835985  1  -0.090421  -0.173026  0.001422  3.939784  0.001
C  C64  1  0.84612229  0.87599478  0.36663056  1  -0.103434  -0.197753  -0.001449  3.968865  -0.002
C  C65  1  0.65387163  0.12400782  0.86662829  1  -0.103411  -0.197811  0.001449  3.968776  0.002
C  C66  1  0.15387678  0.37599090  0.13336919  1  -0.103464  -0.197906  -0.00145  3.968666  -0.002
C  C67  1  0.34612113  0.62400498  0.63337019  1  -0.103447  -0.197892  0.001449  3.968873  0.002
C  C68  1  0.63880515  0.83780519  0.42713836  1  -0.08155  -0.01769  0.001335  4.039918  0.001
C  C69  1  0.86119329  0.16219709  0.92713981  1  -0.081591  -0.017742  -0.001335  4.04005  -0.001
C  C70  1  0.36120383  0.33780869  0.07285513  1  -0.081473  -0.017599  0.001335  4.040284  0.001
C  C71  1  0.13881025  0.66219573  0.57285980  1  -0.081533  -0.017498  -0.001335  4.039893  -0.001
C  C72  1  0.52532980  0.89862468  0.49115138  1  -0.107543  -0.247496  -0.002183  3.93499  -0.002
C  C73  1  0.97465219  0.10137874  0.99114788  1  -0.107494  -0.2474  0.002183  3.935331  0.002
C  C74  1  0.47466883  0.39862457  0.00884957  1  -0.107543  -0.247405  -0.002184  3.935379  -0.002
C  C75  1  0.02533409  0.60137571  0.50885004  1  -0.107547  -0.24755  0.002183  3.935184  0.002
N  N76  1  0.84073538  0.03371019  0.44067524  1  -0.374262  -0.420274  -0.050428  3.526569  -0.065
N  N77  1  0.65925970  0.96629127  0.94067473  1  -0.374267  -0.420281  0.05043  3.526656  0.065
N  N78  1  0.15926780  0.53370961  0.05932651  1  -0.374214  -0.420098  -0.050434  3.526684  -0.065
N  N79  1  0.34072892  0.46628891  0.55932752  1  -0.374218  -0.42013  0.050426  3.526603  0.065
N  N80  1  0.26062251  0.11521760  0.34184636  1  -0.3715  -0.415095  -0.045803  3.554279  -0.059
N  N81  1  0.23938918  0.88478388  0.84184697  1  -0.371685  -0.415277  0.045808  3.554459  0.059
N  N82  1  0.73938145  0.61521683  0.15815699  1  -0.371625  -0.415238  -0.045809  3.554073  -0.059
N  N83  1  0.76061247  0.38477941  0.65815432  1  -0.371554  -0.41497  0.045805  3.554176  0.059
O  O84  1  0.48883344  0.06185890  0.54904236  1  -0.328816  -0.551319  0.002641  2.244357  0.003
O  O85  1  0.01115718  0.93814266  0.04904065  1  -0.32878  -0.551282  -0.002641  2.244507  -0.003
O  O86  1  0.51117658  0.56186224  0.95096021  1  -0.328718  -0.551154  0.002641  2.244652  0.003
O  O87  1  0.98882462  0.43813916  0.45096335  1  -0.328678  -0.551135  -0.002641  2.244515  -0.003
O  O88  1  0.57801798  0.25185369  0.32068522  1  -0.336527  -0.492379  0.002119  2.313141  0.002
O  O89  1  0.92199558  0.74814617  0.82068590  1  -0.336535  -0.492339  -0.00212  2.313179  -0.002
O  O90  1  0.42198801  0.75185418  0.17931887  1  -0.336512  -0.492371  0.00212  2.313109  0.002
O  O91  1  0.07801094  0.24814219  0.67931208  1  -0.336495  -0.492271  -0.00212  2.313318  -0.002
O  O92  1  0.81414477  0.21543059  0.54348391  1  -0.577351  -0.783245  -0.000608  2.345242  -0.001
O  O93  1  0.68584192  0.78457001  0.04348367  1  -0.577298  -0.783127  0.000607  2.345145  0.001
O  O94  1  0.18586926  0.71543903  0.95651164  1  -0.577328  -0.783228  -0.000613  2.345241  -0.001
O  O95  1  0.31413816  0.28456258  0.45651452  1  -0.577315  -0.783246  0.000612  2.345152  0.001
