# generated using pymatgen
data_Ag2H4C6N2O5
_symmetry_space_group_name_H-M   'P 1'
_cell_length_a   7.38595158
_cell_length_b   7.49626936
_cell_length_c   16.14183715
_cell_angle_alpha   90.00104536
_cell_angle_beta   89.99939943
_cell_angle_gamma   114.76534899
_symmetry_Int_Tables_number   1
_chemical_formula_structural   Ag2H4C6N2O5
_chemical_formula_sum   'Ag8 H16 C24 N8 O20'
_cell_volume   811.53129097
_cell_formula_units_Z   4
loop_
 _symmetry_equiv_pos_site_id
 _symmetry_equiv_pos_as_xyz
  1  'x, y, z'
loop_
 _atom_site_type_symbol
 _atom_site_label
 _atom_site_symmetry_multiplicity
 _atom_site_fract_x
 _atom_site_fract_y
 _atom_site_fract_z
 _atom_site_occupancy
 _atom_site_pbe_bader_charge
 _atom_site_pbe_bader_spin_density
 _atom_site_pbe_cm5_charge
 _atom_site_pbe_ddec_charge
 _atom_site_pbe_ddec_spin_density
 _atom_site_pbe_ddec_sum_bond_order
 _atom_site_pbe_magmom
Ag  Ag0  1  0.03192515  0.45675744  0.10960723  1  0.647027  0  0.429957  0.467626  0  1.85095  0
Ag  Ag1  1  0.96806690  0.04323085  0.60960635  1  0.647011  0  0.429969  0.467628  0  1.850922  0
Ag  Ag2  1  0.96806888  0.54323312  0.89039331  1  0.64701  0  0.429986  0.467651  0  1.850961  0
Ag  Ag3  1  0.03193012  0.95676760  0.39039109  1  0.64701  0  0.429978  0.467655  0  1.850963  0
Ag  Ag4  1  0.26012515  0.86385263  0.60301635  1  0.613558  0  0.447871  0.417645  0  1.860485  0
Ag  Ag5  1  0.73987672  0.63614366  0.10301624  1  0.613538  0  0.447857  0.417629  0  1.860431  0
Ag  Ag6  1  0.73986740  0.13614797  0.39698047  1  0.6136  0  0.447876  0.417649  0  1.860458  0
Ag  Ag7  1  0.26012776  0.36385787  0.89698553  1  0.613496  0  0.447847  0.417614  0  1.860498  0
H  H8  1  0.45251204  0.83528818  0.10482273  1  0.153494  0  0.120493  0.105719  0  1.042791  0
H  H9  1  0.54749577  0.66471195  0.60482345  1  0.153515  0  0.120504  0.105732  0  1.04282  0
H  H10  1  0.54749244  0.16471069  0.89517594  1  0.153568  0  0.120501  0.105731  0  1.042813  0
H  H11  1  0.45250423  0.33528907  0.39517894  1  0.153516  0  0.120526  0.105727  0  1.042775  0
H  H12  1  0.70426447  0.06297441  0.20714857  1  0.153886  0  0.126605  0.121703  0  0.999274  0
H  H13  1  0.29573654  0.43702660  0.70714998  1  0.153845  0  0.126605  0.121659  0  0.999316  0
H  H14  1  0.29573404  0.93702466  0.79284948  1  0.153911  0  0.126602  0.121668  0  0.999277  0
H  H15  1  0.70426943  0.56297821  0.29285179  1  0.153882  0  0.126629  0.121687  0  0.999315  0
H  H16  1  0.84435835  0.14698587  0.99430696  1  0.650265  0  0.310314  0.414134  0  0.887866  0
H  H17  1  0.15565471  0.35302172  0.49432027  1  0.650341  0  0.310295  0.414159  0  0.887765  0
H  H18  1  0.15564016  0.85301319  0.00569171  1  0.650248  0  0.310318  0.414123  0  0.887849  0
H  H19  1  0.84434082  0.64697745  0.50567840  1  0.650312  0  0.310274  0.41409  0  0.887855  0
H  H20  1  0.67369941  0.20854375  0.02436547  1  0.656518  0  0.291444  0.391404  0  0.950585  0
H  H21  1  0.32630736  0.29144989  0.52436627  1  0.656478  0  0.29147  0.391483  0  0.950457  0
H  H22  1  0.32629761  0.79145070  0.97563506  1  0.656524  0  0.291465  0.391429  0  0.950561  0
H  H23  1  0.67368668  0.70854733  0.47563241  1  0.656388  0  0.291537  0.391606  0  0.950272  0
C  C24  1  0.35047493  0.74951028  0.43013055  1  1.664016  0  0.202782  0.546572  0  4.287738  0
C  C25  1  0.64951303  0.75049751  0.93012931  1  1.664301  0  0.202756  0.546551  0  4.287772  0
C  C26  1  0.64952507  0.25049340  0.56986688  1  1.664141  0  0.202736  0.546462  0  4.287941  0
C  C27  1  0.35049145  0.24949869  0.06986937  1  1.664318  0  0.202812  0.546572  0  4.287621  0
C  C28  1  0.37160482  0.76586652  0.33680665  1  0.480935  0  0.12828  0.066989  0  3.900428  0
C  C29  1  0.62839499  0.73414391  0.83680655  1  0.48062  0  0.128254  0.067113  0  3.900146  0
C  C30  1  0.62839369  0.23413655  0.66319017  1  0.481164  0  0.128271  0.067055  0  3.90023  0
C  C31  1  0.37161843  0.26586531  0.16319274  1  0.480991  0  0.128252  0.067054  0  3.900218  0
C  C32  1  0.42934501  0.81455796  0.17141980  1  0.530564  0  0.045325  0.028153  0  3.92363  0
C  C33  1  0.57065582  0.68543689  0.67142064  1  0.530496  0  0.045323  0.028094  0  3.923703  0
C  C34  1  0.57065350  0.18543844  0.82857888  1  0.530491  0  0.045297  0.028048  0  3.923596  0
C  C35  1  0.42934716  0.31457070  0.32858051  1  0.530611  0  0.045354  0.028166  0  3.9236  0
C  C36  1  0.23170765  0.63864490  0.28034179  1  0.578055  0  0.117803  0.048434  0  3.902942  0
C  C37  1  0.76828407  0.86135415  0.78034251  1  0.578342  0  0.117805  0.0485  0  3.90283  0
C  C38  1  0.76828936  0.36135488  0.71965689  1  0.577789  0  0.117793  0.048403  0  3.902839  0
C  C39  1  0.23171743  0.13864481  0.21965741  1  0.578091  0  0.117809  0.048561  0  3.902643  0
C  C40  1  0.56863129  0.93983179  0.22723540  1  0.476327  0  0.05825  0.073673  0  3.877531  0
C  C41  1  0.43136869  0.56015872  0.72723483  1  0.4764  0  0.058273  0.073797  0  3.877512  0
C  C42  1  0.43136722  0.06016461  0.77276203  1  0.476396  0  0.05828  0.073767  0  3.877481  0
C  C43  1  0.56863578  0.43984281  0.27276694  1  0.476312  0  0.058253  0.073774  0  3.877416  0
C  C44  1  0.04705605  0.46407400  0.30944384  1  1.612573  0  0.190976  0.528367  0  4.260732  0
C  C45  1  0.95293894  0.03593100  0.80944853  1  1.613116  0  0.190775  0.527978  0  4.260917  0
C  C46  1  0.95294246  0.53592640  0.69055421  1  1.612628  0  0.190918  0.528209  0  4.260754  0
C  C47  1  0.04707150  0.96407300  0.19055325  1  1.612819  0  0.190982  0.528207  0  4.260674  0
N  N48  1  0.26161758  0.66691110  0.19832457  1  -1.194826  0  -0.308073  -0.173161  0  3.541165  0
N  N49  1  0.73838433  0.83308885  0.69832511  1  -1.195082  0  -0.308075  -0.17315  0  3.541155  0
N  N50  1  0.73838391  0.33308653  0.80167410  1  -1.194792  0  -0.308019  -0.173044  0  3.541003  0
N  N51  1  0.26161865  0.16691874  0.30167729  1  -1.194978  0  -0.308161  -0.173332  0  3.541065  0
N  N52  1  0.53824432  0.91670992  0.30922787  1  -1.179841  0  -0.31984  -0.19704  0  3.576939  0
N  N53  1  0.46175442  0.58328339  0.80922680  1  -1.179709  0  -0.31987  -0.19718  0  3.576632  0
N  N54  1  0.46175568  0.08328976  0.69077019  1  -1.179819  0  -0.319929  -0.197158  0  3.576846  0
N  N55  1  0.53825005  0.41671680  0.19077249  1  -1.179807  0  -0.319861  -0.19708  0  3.576731  0
O  O56  1  0.43092680  0.65448145  0.46788387  1  -1.175769  0  -0.307209  -0.537881  0  2.248285  0
O  O57  1  0.56905313  0.84551460  0.96788474  1  -1.175975  0  -0.307141  -0.53775  0  2.248378  0
O  O58  1  0.56906872  0.34551772  0.53211295  1  -1.175941  0  -0.307167  -0.537786  0  2.248348  0
O  O59  1  0.43093942  0.15447401  0.03211455  1  -1.176116  0  -0.307192  -0.537817  0  2.24838  0
O  O60  1  0.26389583  0.84752447  0.46249816  1  -1.131544  0  -0.319881  -0.494941  0  2.456576  0
O  O61  1  0.73610208  0.65248554  0.96249720  1  -1.131487  0  -0.319874  -0.495011  0  2.456337  0
O  O62  1  0.73610566  0.15248117  0.53749928  1  -1.131658  0  -0.319852  -0.494867  0  2.456433  0
O  O63  1  0.26391134  0.34751835  0.03750333  1  -1.13137  0  -0.319898  -0.494963  0  2.456338  0
O  O64  1  0.02324152  0.44421044  0.38754704  1  -1.144243  0  -0.313209  -0.505855  0  2.252332  0
O  O65  1  0.97674483  0.05579288  0.88755432  1  -1.144282  0  -0.313104  -0.505701  0  2.252212  0
O  O66  1  0.97675103  0.55579017  0.61245040  1  -1.144318  0  -0.313153  -0.505774  0  2.252296  0
O  O67  1  0.02325815  0.94421070  0.11244870  1  -1.144231  0  -0.313143  -0.505734  0  2.252144  0
O  O68  1  0.93313625  0.34976433  0.25557046  1  -1.155925  0  -0.320318  -0.55564  0  2.348176  0
O  O69  1  0.06685359  0.15023324  0.75557643  1  -1.156408  0  -0.320219  -0.555466  0  2.348364  0
O  O70  1  0.06686077  0.65023679  0.74442759  1  -1.155929  0  -0.320316  -0.555581  0  2.348153  0
O  O71  1  0.93315387  0.84976152  0.24442597  1  -1.156349  0  -0.32035  -0.555637  0  2.348318  0
O  O72  1  0.81963732  0.25901431  0.01315356  1  -1.235011  0  -0.581595  -0.745982  0  2.241374  0
O  O73  1  0.18036962  0.24098579  0.51315632  1  -1.235023  0  -0.581572  -0.746054  0  2.241224  0
O  O74  1  0.18036119  0.74098609  0.98684326  1  -1.235013  0  -0.581633  -0.745994  0  2.241285  0
O  O75  1  0.81962740  0.75901399  0.48684235  1  -1.234985  0  -0.58163  -0.746072  0  2.241003  0
