# generated using pymatgen
data_Al2H18C29(NO3)4
_symmetry_space_group_name_H-M   'P 1'
_cell_length_a   6.67074301
_cell_length_b   22.35501291
_cell_length_c   25.59061019
_cell_angle_alpha   90.55256065
_cell_angle_beta   90.00829379
_cell_angle_gamma   89.91093716
_symmetry_Int_Tables_number   1
_chemical_formula_structural   Al2H18C29(NO3)4
_chemical_formula_sum   'Al4 H36 C58 N8 O24'
_cell_volume   3816.00602056
_cell_formula_units_Z   2
loop_
 _symmetry_equiv_pos_site_id
 _symmetry_equiv_pos_as_xyz
  1  'x, y, z'
loop_
 _atom_site_type_symbol
 _atom_site_label
 _atom_site_symmetry_multiplicity
 _atom_site_fract_x
 _atom_site_fract_y
 _atom_site_fract_z
 _atom_site_occupancy
 _atom_site_pbe_bader_charge
 _atom_site_pbe_bader_spin_density
 _atom_site_pbe_cm5_charge
 _atom_site_pbe_ddec_charge
 _atom_site_pbe_ddec_spin_density
 _atom_site_pbe_ddec_sum_bond_order
 _atom_site_pbe_magmom
Al  Al0  1  0.28282334  0.25476442  0.74820985  1  2.503173  0  0.399532  1.651187  0  2.573428  0
Al  Al1  1  0.71718101  0.74523449  0.25178987  1  2.503379  0  0.399499  1.651196  0  2.57352  0
Al  Al2  1  0.78126178  0.25247705  0.74833384  1  2.502918  0  0.400229  1.650434  0  2.578447  0
Al  Al3  1  0.21873958  0.74752097  0.25166979  1  2.502985  0  0.400228  1.650433  0  2.578499  0
H  H4  1  0.72153793  0.12522572  0.86358493  1  0.082084  0  0.107474  0.109931  0  1.008755  0
H  H5  1  0.27850702  0.87475352  0.13642403  1  0.081462  0  0.107497  0.109868  0  1.009012  0
H  H6  1  0.63818263  0.85801086  0.13213975  1  0.105361  0  0.110186  0.114263  0  1.004239  0
H  H7  1  0.36184253  0.14201176  0.86787072  1  0.104505  0  0.110195  0.114224  0  1.004217  0
H  H8  1  0.76977794  0.99667882  0.00169314  1  0.01102  0  0.098495  0.09303  0  1.01272  0
H  H9  1  0.23036285  0.00331743  0.99830855  1  0.010074  0  0.098529  0.09296  0  1.012124  0
H  H10  1  0.37725567  0.06932095  0.94122580  1  0.084844  0  0.097046  0.092631  0  1.02156  0
H  H11  1  0.62283399  0.93069810  0.05877684  1  0.085001  0  0.097125  0.092609  0  1.021541  0
H  H12  1  0.26698062  0.94779489  0.06419633  1  0.047011  0  0.097203  0.091938  0  1.028046  0
H  H13  1  0.73312433  0.05218078  0.93580635  1  0.047863  0  0.097259  0.092057  0  1.028185  0
H  H14  1  0.76466239  0.09972485  0.65062812  1  0.111393  0  0.116138  0.119731  0  0.980621  0
H  H15  1  0.23530751  0.90026959  0.34937821  1  0.111781  0  0.116077  0.11957  0  0.980387  0
H  H16  1  0.77185491  0.02445292  0.57735167  1  0.096461  0  0.112841  0.115394  0  1.002942  0
H  H17  1  0.22809701  0.97553480  0.42266633  1  0.097027  0  0.112767  0.115348  0  1.003393  0
H  H18  1  0.67957561  0.89726923  0.47863419  1  0.098701  0  0.123264  0.138409  0  0.977137  0
H  H19  1  0.32046058  0.10266976  0.52139359  1  0.099068  0  0.123468  0.138802  0  0.976694  0
H  H20  1  0.78115441  0.62313321  0.13069393  1  0.067123  0  0.109126  0.113392  0  1.004395  0
H  H21  1  0.21884692  0.37687062  0.86930388  1  0.06713  0  0.109164  0.113487  0  1.004299  0
H  H22  1  0.76826445  0.54916538  0.05570014  1  0.110018  0  0.103762  0.102382  0  1.036831  0
H  H23  1  0.23173239  0.45083711  0.94429922  1  0.110013  0  0.103724  0.102321  0  1.036869  0
H  H24  1  0.87386659  0.43682143  0.94665077  1  0.121841  0  0.106835  0.109185  0  1.011664  0
H  H25  1  0.12613176  0.56317748  0.05335169  1  0.121855  0  0.106825  0.10919  0  1.011654  0
H  H26  1  0.86062453  0.36327859  0.87091943  1  0.108579  0  0.110875  0.116235  0  1.002857  0
H  H27  1  0.13937232  0.63672077  0.12908381  1  0.108545  0  0.11089  0.1162  0  1.002856  0
H  H28  1  0.78086382  0.62235526  0.37082812  1  0.10448  0  0.106741  0.107876  0  1.005196  0
H  H29  1  0.21913309  0.37763828  0.62916922  1  0.104437  0  0.106749  0.107861  0  1.005163  0
H  H30  1  0.76859125  0.54946969  0.44508424  1  0.074865  0  0.104116  0.102499  0  1.036681  0
H  H31  1  0.23140564  0.45052564  0.55491350  1  0.074855  0  0.104146  0.102549  0  1.03664  0
H  H32  1  0.87331115  0.43562788  0.55150191  1  0.055588  0  0.107419  0.110392  0  1.009547  0
H  H33  1  0.12669163  0.56437909  0.44850492  1  0.055612  0  0.107438  0.11042  0  1.00955  0
H  H34  1  0.86089380  0.36310541  0.62638498  1  0.09407  0  0.1086  0.11157  0  1.005927  0
H  H35  1  0.13910448  0.63690245  0.37362303  1  0.094465  0  0.108646  0.111563  0  1.006023  0
H  H36  1  0.52728738  0.17436084  0.74086797  1  0.611262  0  0.35714  0.435995  0  0.843017  0
H  H37  1  0.47271252  0.82564476  0.25909234  1  0.610772  0  0.357233  0.436297  0  0.842605  0
H  H38  1  0.02693754  0.32910990  0.73289620  1  0.629376  0  0.356867  0.434436  0  0.848006  0
H  H39  1  0.97305783  0.67088767  0.26710156  1  0.62923  0  0.356869  0.43451  0  0.847955  0
C  C40  1  0.53307935  0.32367367  0.82082663  1  1.556431  0  0.268972  0.639026  0  4.100214  0
C  C41  1  0.46692498  0.67632971  0.17917235  1  1.557824  0  0.268918  0.638806  0  4.100351  0
C  C42  1  0.53420241  0.32564132  0.67773424  1  1.557207  0  0.270341  0.646978  0  4.085684  0
C  C43  1  0.46579147  0.67435580  0.32226547  1  1.557388  0  0.270334  0.646927  0  4.085529  0
C  C44  1  0.03389789  0.18367446  0.67453325  1  1.601093  0  0.268339  0.642749  0  4.117136  0
C  C45  1  0.96610954  0.81631283  0.32547185  1  1.601348  0  0.268301  0.642634  0  4.116733  0
C  C46  1  0.03400053  0.18077148  0.81739953  1  1.560859  0  0.26713  0.641046  0  4.105195  0
C  C47  1  0.96601127  0.81923326  0.18260806  1  1.561438  0  0.267057  0.641283  0  4.105533  0
C  C48  1  0.04099370  0.13775981  0.86133157  1  -0.002033  0  -0.016343  -0.050497  0  3.977789  0
C  C49  1  0.95904961  0.86223912  0.13867520  1  -0.002028  0  -0.016388  -0.050829  0  3.978402  0
C  C50  1  0.86414191  0.11244542  0.88103131  1  -0.076672  0  -0.079283  -0.084027  0  3.986128  0
C  C51  1  0.13592396  0.88754366  0.11897499  1  -0.075733  0  -0.079491  -0.084037  0  3.986316  0
C  C52  1  0.87207786  0.07182589  0.92159399  1  0.032832  0  -0.08872  -0.128875  0  3.960476  0
C  C53  1  0.12801504  0.92815872  0.07840877  1  0.033214  0  -0.08832  -0.128224  0  3.960179  0
C  C54  1  0.05716191  0.05538813  0.94421104  1  -0.055477  0  -0.00587  0.118978  0  4.037769  0
C  C55  1  0.94293991  0.94460678  0.05579180  1  -0.051499  0  -0.006156  0.11836  0  4.038104  0
C  C56  1  0.23313920  0.08135856  0.92402210  1  -0.097192  0  -0.08989  -0.136398  0  3.977163  0
C  C57  1  0.76694154  0.91864842  0.07598044  1  -0.09664  0  -0.08978  -0.136039  0  3.976976  0
C  C58  1  0.22584771  0.12183986  0.88327945  1  -0.003601  0  -0.079697  -0.081905  0  3.983188  0
C  C59  1  0.77420451  0.87817159  0.11672781  1  -0.005182  0  -0.07978  -0.082024  0  3.983341  0
C  C60  1  0.07584244  0.01332645  0.98697433  1  0.039656  0  -0.088102  -0.124769  0  3.991785  0
C  C61  1  0.92429238  0.98666622  0.01302771  1  -0.067342  0  -0.087988  -0.124937  0  3.992754  0
C  C62  1  0.96431700  0.85681570  0.37248293  1  0.051623  0  0.007218  -0.062084  0  3.899396  0
C  C63  1  0.03567247  0.14316487  0.62752837  1  0.052558  0  0.007386  -0.061711  0  3.899399  0
C  C64  1  0.11451569  0.90036901  0.37798619  1  0.009651  0  -0.065518  -0.048276  0  3.946655  0
C  C65  1  0.88546778  0.09961201  0.62202316  1  0.009602  0  -0.065771  -0.04899  0  3.947422  0
C  C66  1  0.11072813  0.94202547  0.41848227  1  0.029389  0  -0.0716  -0.129363  0  3.913776  0
C  C67  1  0.88924339  0.05794794  0.58153209  1  0.030153  0  -0.07155  -0.128919  0  3.913329  0
C  C68  1  0.95236644  0.94117142  0.45480815  1  0.322975  0  0.093938  0.185692  0  4.033986  0
C  C69  1  0.04763215  0.05878635  0.54521899  1  0.321048  0  0.093698  0.185194  0  4.034274  0
C  C70  1  0.80100139  0.89801278  0.45018041  1  0.050323  0  -0.067399  -0.188452  0  3.91513  0
C  C71  1  0.19902273  0.10194007  0.54984239  1  0.050178  0  -0.067461  -0.188713  0  3.915217  0
C  C72  1  0.81063592  0.85623426  0.40982159  1  0.179653  0  0.089245  0.06936  0  3.933201  0
C  C73  1  0.18938213  0.14373156  0.59018959  1  0.179233  0  0.08896  0.068953  0  3.933248  0
C  C74  1  0.53923102  0.36617469  0.86607136  1  0.005477  0  -0.009842  -0.038334  0  3.954799  0
C  C75  1  0.46077033  0.63382512  0.13392837  1  0.005697  0  -0.009841  -0.038388  0  3.954843  0
C  C76  1  0.36099328  0.39045507  0.88672892  1  0.003237  0  -0.076749  -0.077579  0  3.964321  0
C  C77  1  0.63900806  0.60954697  0.11326887  1  0.002566  0  -0.076699  -0.077409  0  3.964289  0
C  C78  1  0.36763146  0.43105554  0.92799024  1  -0.021733  0  -0.081968  -0.140388  0  3.942439  0
C  C79  1  0.63236688  0.56894650  0.07200912  1  -0.02127  0  -0.082011  -0.140514  0  3.942476  0
C  C80  1  0.55436378  0.44769574  0.94940268  1  0.322352  0  0.091348  0.175961  0  4.032927  0
C  C81  1  0.44563307  0.55230496  0.05059862  1  0.322589  0  0.091348  0.176037  0  4.032853  0
C  C82  1  0.73211581  0.42309649  0.92906876  1  -0.054168  0  -0.077334  -0.137491  0  3.95005  0
C  C83  1  0.26788254  0.57690286  0.07093253  1  -0.054385  0  -0.077337  -0.137597  0  3.950123  0
C  C84  1  0.72467200  0.38267022  0.88753984  1  -0.076874  0  -0.077463  -0.080904  0  3.96745  0
C  C85  1  0.27532935  0.61732958  0.11246184  1  -0.076841  0  -0.07745  -0.080711  0  3.967472  0
C  C86  1  0.53967363  0.36732704  0.63271691  1  -0.047622  0  -0.009646  -0.040318  0  3.955263  0
C  C87  1  0.46032323  0.63267053  0.36728397  1  -0.04732  0  -0.009616  -0.040314  0  3.955154  0
C  C88  1  0.36147217  0.39132381  0.61221217  1  -0.045051  0  -0.074548  -0.065899  0  3.960195  0
C  C89  1  0.63852471  0.60867286  0.38778675  1  -0.045034  0  -0.07454  -0.065923  0  3.960207  0
C  C90  1  0.36761860  0.43123930  0.57113377  1  0.041217  0  -0.080895  -0.139531  0  3.937048  0
C  C91  1  0.63237828  0.56875692  0.42886515  1  0.041186  0  -0.080855  -0.139429  0  3.93712  0
C  C92  1  0.55405417  0.44752961  0.54963854  1  0.382941  0  0.091023  0.177  0  4.030058  0
C  C93  1  0.44594566  0.55247199  0.45036434  1  0.382805  0  0.091055  0.177061  0  4.030208  0
C  C94  1  0.73175773  0.42271105  0.56940155  1  -0.059332  0  -0.076671  -0.13716  0  3.946734  0
C  C95  1  0.26824509  0.57729234  0.43060290  1  -0.059036  0  -0.076754  -0.13725  0  3.946989  0
C  C96  1  0.72461868  0.38296285  0.61074058  1  0.00104  0  -0.076999  -0.076494  0  3.96447  0
C  C97  1  0.27538113  0.61704188  0.38926427  1  0.000329  0  -0.077062  -0.076527  0  3.964733  0
N  N98  1  0.92979774  0.98112135  0.49754568  1  -0.441654  0  -0.145257  -0.133543  0  3.270447  0
N  N99  1  0.07020090  0.01882881  0.50248218  1  -0.494754  0  -0.144744  -0.132579  0  3.269819  0
N  N100  1  0.58052060  0.48869671  0.99120033  1  -0.503435  0  -0.1487  -0.136839  0  3.278858  0
N  N101  1  0.41947475  0.51130310  0.00880135  1  -0.455719  0  -0.148741  -0.136928  0  3.278817  0
N  N102  1  0.58015224  0.48797667  0.50810076  1  -0.459859  0  -0.147126  -0.136204  0  3.274621  0
N  N103  1  0.41984610  0.51202448  0.49190133  1  -0.501183  0  -0.146976  -0.135973  0  3.274552  0
N  N104  1  0.65688732  0.80871750  0.41004343  1  0.415689  0  0.064376  0.522348  0  4.218761  0
N  N105  1  0.34313525  0.19124787  0.58996189  1  0.41691  0  0.064107  0.522482  0  4.218245  0
O  O106  1  0.70283770  0.30785880  0.69531881  1  -1.262485  0  -0.237263  -0.60384  0  2.357356  0
O  O107  1  0.29716215  0.69214056  0.30468287  1  -1.262517  0  -0.237241  -0.603782  0  2.357426  0
O  O108  1  0.36160491  0.30837451  0.80332844  1  -1.253855  0  -0.234266  -0.588132  0  2.336698  0
O  O109  1  0.63840990  0.69163156  0.19666587  1  -1.254265  0  -0.234253  -0.58804  0  2.336625  0
O  O110  1  0.20165300  0.19846905  0.79950286  1  -1.261673  0  -0.235615  -0.593924  0  2.363653  0
O  O111  1  0.79834677  0.80153926  0.20050514  1  -1.261751  0  -0.23564  -0.594083  0  2.363601  0
O  O112  1  0.36319216  0.31142435  0.69622601  1  -1.253493  0  -0.237252  -0.602502  0  2.345076  0
O  O113  1  0.63680026  0.68856785  0.30376741  1  -1.2538  0  -0.237238  -0.602444  0  2.345022  0
O  O114  1  0.20420112  0.19943159  0.69215252  1  -1.24291  0  -0.235961  -0.5945  0  2.357824  0
O  O115  1  0.79579431  0.80055659  0.30785337  1  -1.243151  0  -0.236067  -0.594592  0  2.357855  0
O  O116  1  0.70131542  0.30642576  0.80257492  1  -1.258831  0  -0.233646  -0.590756  0  2.359606  0
O  O117  1  0.29869493  0.69357271  0.19742832  1  -1.2599  0  -0.23362  -0.590637  0  2.359635  0
O  O118  1  0.53075546  0.21709022  0.74701258  1  -1.413554  0  -0.448053  -0.996028  0  2.215947  0
O  O119  1  0.46924590  0.78290780  0.25299105  1  -1.413118  0  -0.44811  -0.996372  0  2.215605  0
O  O120  1  0.86324958  0.19632881  0.69363196  1  -1.237942  0  -0.22877  -0.578314  0  2.33751  0
O  O121  1  0.13675930  0.80366518  0.30637163  1  -1.238127  0  -0.228604  -0.578056  0  2.337404  0
O  O122  1  0.86223962  0.19640539  0.80040205  1  -1.258966  0  -0.236519  -0.593128  0  2.340652  0
O  O123  1  0.13776320  0.80359621  0.19960473  1  -1.259615  0  -0.236401  -0.593081  0  2.340918  0
O  O124  1  0.03073777  0.28941798  0.74773268  1  -1.43217  0  -0.446698  -0.991473  0  2.199865  0
O  O125  1  0.96926210  0.71058048  0.25226587  1  -1.432001  0  -0.446707  -0.991612  0  2.199928  0
O  O126  1  0.47932034  0.82497452  0.41040467  1  -0.454417  0  -0.1249  -0.326403  0  1.907722  0
O  O127  1  0.71721906  0.75655692  0.41227519  1  -0.433689  0  -0.111498  -0.305928  0  1.908367  0
O  O128  1  0.52070380  0.17498234  0.58959277  1  -0.455098  0  -0.12483  -0.32652  0  1.907875  0
O  O129  1  0.28280650  0.24340710  0.58773559  1  -0.433941  0  -0.111228  -0.305811  0  1.908007  0
