# generated using pymatgen
data_H12PbC14N2(ClO5)2
_symmetry_space_group_name_H-M   'P 1'
_cell_length_a   8.22059490
_cell_length_b   9.35880258
_cell_length_c   12.55767884
_cell_angle_alpha   73.77930465
_cell_angle_beta   78.16979646
_cell_angle_gamma   85.12717663
_symmetry_Int_Tables_number   1
_chemical_formula_structural   H12PbC14N2(ClO5)2
_chemical_formula_sum   'H24 Pb2 C28 N4 Cl4 O20'
_cell_volume   907.56749656
_cell_formula_units_Z   2
loop_
 _symmetry_equiv_pos_site_id
 _symmetry_equiv_pos_as_xyz
  1  'x, y, z'
loop_
 _atom_site_type_symbol
 _atom_site_label
 _atom_site_symmetry_multiplicity
 _atom_site_fract_x
 _atom_site_fract_y
 _atom_site_fract_z
 _atom_site_occupancy
 _atom_site_pbe_bader_spin_density
 _atom_site_pbe_cm5_charge
 _atom_site_pbe_ddec_charge
 _atom_site_pbe_ddec_spin_density
 _atom_site_pbe_ddec_sum_bond_order
 _atom_site_pbe_magmom
H  H0  1  0.31970481  0.52412706  0.01671249  1  0  0.321134  0.372444  0  0.907766  0
H  H1  1  0.68029394  0.47587319  0.98329047  1  0  0.32112  0.372386  0  0.907814  0
H  H2  1  0.87652754  0.99439084  0.10735195  1  0  0.315049  0.371586  0  0.919104  0
H  H3  1  0.12348088  0.00561101  0.89263819  1  0  0.315004  0.37156  0  0.919263  0
H  H4  1  0.21582547  0.58602911  0.18426893  1  0  0.10306  0.078795  0  1.011599  0
H  H5  1  0.78417431  0.41397343  0.81573183  1  0  0.103058  0.078832  0  1.011621  0
H  H6  1  0.43657840  0.58827776  0.16325043  1  0  0.105004  0.092687  0  1.015063  0
H  H7  1  0.56342322  0.41171812  0.83675542  1  0  0.105023  0.092665  0  1.015103  0
H  H8  1  0.41746472  0.53677428  0.36876847  1  0  0.109195  0.128795  0  1.016649  0
H  H9  1  0.58253609  0.46321601  0.63123623  1  0  0.109202  0.128742  0  1.016552  0
H  H10  1  0.41138800  0.33118520  0.54933475  1  0  0.113647  0.127829  0  0.992006  0
H  H11  1  0.58860550  0.66880366  0.45067366  1  0  0.113648  0.127833  0  0.992087  0
H  H12  1  0.26233526  0.81924550  0.66012949  1  0  0.106201  0.124078  0  1.003282  0
H  H13  1  0.73768265  0.18074776  0.33986664  1  0  0.106242  0.124126  0  1.003226  0
H  H14  1  0.36588696  0.06408195  0.65129781  1  0  0.10016  0.110579  0  1.048494  0
H  H15  1  0.63411133  0.93592280  0.34869792  1  0  0.100171  0.110608  0  1.048494  0
H  H16  1  0.02401416  0.64005274  0.40257925  1  0  0.10935  0.124073  0  0.992161  0
H  H17  1  0.97598517  0.35994083  0.59742658  1  0  0.109348  0.124022  0  0.992245  0
H  H18  1  0.14253441  0.65884595  0.56738059  1  0  0.107246  0.117036  0  1.019926  0
H  H19  1  0.85750259  0.34114141  0.43261010  1  0  0.107268  0.117081  0  1.019871  0
H  H20  1  0.88140665  0.80049119  0.24730995  1  0  0.107327  0.091484  0  1.015363  0
H  H21  1  0.11856486  0.19952354  0.75270024  1  0  0.107248  0.091414  0  1.015525  0
H  H22  1  0.08147723  0.78666589  0.16632093  1  0  0.104053  0.090363  0  0.993161  0
H  H23  1  0.91848881  0.21332409  0.83369188  1  0  0.104032  0.090345  0  0.993057  0
Pb  Pb24  1  0.20614478  0.19986827  0.11867240  1  0  0.670349  1.109134  0  1.783119  0
Pb  Pb25  1  0.79385248  0.80013419  0.88132633  1  0  0.670337  1.109073  0  1.783196  0
C  C26  1  0.33102361  0.51693191  0.17668355  1  0  -0.067362  5.8e-05  0  3.903969  0
C  C27  1  0.66897513  0.48306835  0.82331862  1  0  -0.067357  0.0  0  3.904236  0
C  C28  1  0.32761613  0.39571888  0.28463874  1  0  0.13664  0.254687  0  3.926242  0
C  C29  1  0.67238411  0.60427916  0.71536925  1  0  0.136545  0.254462  0  3.926387  0
C  C30  1  0.37621453  0.42569010  0.37772834  1  0  -0.081697  -0.172285  0  3.936454  0
C  C31  1  0.62378395  0.57431348  0.62227477  1  0  -0.081679  -0.1721  0  3.93608  0
C  C32  1  0.37382324  0.31296210  0.47588980  1  0  -0.061437  -0.062164  0  3.912845  0
C  C33  1  0.62616595  0.68703225  0.52410854  1  0  -0.061444  -0.062175  0  3.912839  0
C  C34  1  0.32191938  0.16984743  0.48245236  1  0  -0.002479  0.037097  0  4.025113  0
C  C35  1  0.67807197  0.83015144  0.51754874  1  0  -0.002535  0.03696  0  4.025222  0
C  C36  1  0.26945987  0.15067804  0.38654457  1  0  0.120686  0.129034  0  3.984216  0
C  C37  1  0.73053270  0.84932090  0.61345395  1  0  0.120772  0.129227  0  3.984107  0
C  C38  1  0.20526869  0.00963686  0.39238922  1  0  0.119854  0.125597  0  3.988181  0
C  C39  1  0.79472541  0.99035878  0.60761135  1  0  0.119846  0.125571  0  3.987998  0
C  C40  1  0.20494964  0.89038826  0.49139536  1  0  -0.000481  0.047218  0  3.987867  0
C  C41  1  0.79505265  0.10961330  0.50860047  1  0  -0.000455  0.047275  0  3.988201  0
C  C42  1  0.26489203  0.91197856  0.58468810  1  0  -0.082899  -0.109061  0  3.948425  0
C  C43  1  0.73511564  0.08801872  0.41531183  1  0  -0.082921  -0.109153  0  3.948537  0
C  C44  1  0.32015139  0.04733825  0.58048953  1  0  -0.087982  -0.116243  0  3.972577  0
C  C45  1  0.67984626  0.95265976  0.41951086  1  0  -0.088029  -0.116277  0  3.97264  0
C  C46  1  0.07645014  0.86849287  0.30916341  1  0  0.13396  0.244562  0  3.967001  0
C  C47  1  0.92354402  0.13150273  0.69084114  1  0  0.133916  0.244327  0  3.967225  0
C  C48  1  0.07752629  0.74261908  0.40280549  1  0  -0.08327  -0.173186  0  3.950451  0
C  C49  1  0.92247392  0.25737791  0.59719395  1  0  -0.083243  -0.173008  0  3.950368  0
C  C50  1  0.14175432  0.75336665  0.49319283  1  0  -0.061005  -0.055351  0  3.905273  0
C  C51  1  0.85825881  0.24662418  0.50680447  1  0  -0.061079  -0.055479  0  3.905503  0
C  C52  1  0.99980852  0.85774730  0.21313759  1  0  -0.070915  -0.017805  0  3.945453  0
C  C53  1  0.00017570  0.14224792  0.78686684  1  0  -0.070773  -0.017577  0  3.945428  0
N  N54  1  0.27538079  0.26268365  0.29003815  1  0  -0.291596  -0.307416  0  3.413193  0
N  N55  1  0.72461548  0.73731544  0.70995902  1  0  -0.291566  -0.307343  0  3.41311  0
N  N56  1  0.14177822  0.99588149  0.30401558  1  0  -0.297109  -0.324899  0  3.443958  0
N  N57  1  0.85821688  0.00411750  0.69598735  1  0  -0.297124  -0.324866  0  3.444118  0
Cl  Cl58  1  0.47547637  0.09867518  0.84067249  1  0  0.734855  1.29154  0  6.75506  0
Cl  Cl59  1  0.52453167  0.90133218  0.15932214  1  0  0.734931  1.291689  0  6.755051  0
Cl  Cl60  1  0.86143754  0.49271617  0.17358205  1  0  0.739291  1.305746  0  6.764768  0
Cl  Cl61  1  0.13857016  0.50729562  0.82641412  1  0  0.73904  1.305166  0  6.765351  0
O  O62  1  0.34375668  0.45165575  0.08530523  1  0  -0.376528  -0.476022  0  2.403861  0
O  O63  1  0.65624578  0.54834465  0.91469718  1  0  -0.376455  -0.475831  0  2.403894  0
O  O64  1  0.97497309  0.00056363  0.13883120  1  0  -0.386768  -0.480997  0  2.32402  0
O  O65  1  0.02502425  0.99943879  0.86117232  1  0  -0.38672  -0.481001  0  2.324168  0
O  O66  1  0.59359191  0.12610577  0.90380069  1  0  -0.295529  -0.49469  0  2.132047  0
O  O67  1  0.40641004  0.87390023  0.09619667  1  0  -0.295577  -0.494724  0  2.131914  0
O  O68  1  0.30440144  0.11716212  0.90052949  1  0  -0.301919  -0.542238  0  2.193712  0
O  O69  1  0.69560445  0.88285525  0.09945783  1  0  -0.301971  -0.542268  0  2.193697  0
O  O70  1  0.49922573  0.20228074  0.72856231  1  0  -0.299692  -0.48789  0  2.125508  0
O  O71  1  0.50079424  0.79771710  0.27142862  1  0  -0.299639  -0.487937  0  2.125702  0
O  O72  1  0.49796065  0.94466493  0.83049256  1  0  -0.301337  -0.509892  0  2.098389  0
O  O73  1  0.50203902  0.05533874  0.16950640  1  0  -0.301372  -0.509931  0  2.098367  0
O  O74  1  0.93997620  0.34187652  0.19892834  1  0  -0.30509  -0.538783  0  2.17738  0
O  O75  1  0.06003627  0.65813770  0.80106587  1  0  -0.304943  -0.5385  0  2.177384  0
O  O76  1  0.97410598  0.59579236  0.08677738  1  0  -0.300535  -0.516999  0  2.129114  0
O  O77  1  0.02589898  0.40422267  0.91321931  1  0  -0.300466  -0.516924  0  2.129394  0
O  O78  1  0.70842789  0.48478435  0.13388173  1  0  -0.297314  -0.498143  0  2.136261  0
O  O79  1  0.29158012  0.51522409  0.86611667  1  0  -0.297309  -0.498004  0  2.136412  0
O  O80  1  0.82333199  0.53907605  0.27754565  1  0  -0.304115  -0.490365  0  2.093359  0
O  O81  1  0.17667742  0.46093022  0.72245220  1  0  -0.304093  -0.490259  0  2.093344  0
