# generated using pymatgen
data_CuH28Pd2C16N4(Cl3O2)2
_symmetry_space_group_name_H-M   'P 1'
_cell_length_a   10.36041491
_cell_length_b   10.72445210
_cell_length_c   13.14246024
_cell_angle_alpha   89.99979624
_cell_angle_beta   89.99979502
_cell_angle_gamma   115.30013935
_symmetry_Int_Tables_number   1
_chemical_formula_structural   CuH28Pd2C16N4(Cl3O2)2
_chemical_formula_sum   'Cu2 H56 Pd4 C32 N8 Cl12 O8'
_cell_volume   1320.19025170
_cell_formula_units_Z   2
loop_
 _symmetry_equiv_pos_site_id
 _symmetry_equiv_pos_as_xyz
  1  'x, y, z'
loop_
 _atom_site_type_symbol
 _atom_site_label
 _atom_site_symmetry_multiplicity
 _atom_site_fract_x
 _atom_site_fract_y
 _atom_site_fract_z
 _atom_site_occupancy
 _atom_site_hle17_ddec_charge
 _atom_site_hle17_ddec_spin_density
 _atom_site_hle17_ddec_sum_bond_order
 _atom_site_hle17_magmom
 _atom_site_hse06_10hf_ddec_charge
 _atom_site_hse06_10hf_ddec_spin_density
 _atom_site_hse06_10hf_ddec_sum_bond_order
 _atom_site_hse06_10hf_magmom
 _atom_site_hse06_ddec_charge
 _atom_site_hse06_ddec_spin_density
 _atom_site_hse06_ddec_sum_bond_order
 _atom_site_hse06_magmom
 _atom_site_pbe_cm5_charge
 _atom_site_pbe_ddec_charge
 _atom_site_pbe_ddec_spin_density
 _atom_site_pbe_ddec_sum_bond_order
 _atom_site_pbe_magmom
Cu  Cu0  1  0.99999946  0.50000250  0.49999940  1  0.976394  -0.72564  1.677337  -0.519  0.991603  -0.829326  2.048909  -0.659  1.081243  -0.905158  1.99434  -0.756  0.668419  0.914923  -0.769365  2.120336  -0.592
Cu  Cu1  1  0.50000145  0.50000205  0.99999704  1  0.976391  0.725641  1.67739  0.519  0.991611  0.829321  2.048915  0.659  1.08125  0.905158  1.994363  0.756  0.668429  0.914969  0.769424  2.120332  0.592
H  H2  1  0.85425682  0.22078841  0.59740414  1  0.312507  -0.000543  0.909367  0.0  0.296244  -0.00035  0.968097  0.0  0.304144  -0.000186  0.962484  0.0  0.309497  0.29086  -0.000506  0.971625  0.0
H  H3  1  0.64574730  0.77921924  0.09740212  1  0.312467  0.000543  0.909385  0.0  0.296218  0.00035  0.968098  0.0  0.304119  0.000186  0.962484  0.0  0.309472  0.290834  0.000507  0.971627  0.0
H  H4  1  0.14574244  0.77921544  0.40258997  1  0.312473  -0.000543  0.909484  0.0  0.296267  -0.00035  0.968136  0.0  0.304169  -0.000186  0.962517  0.0  0.309486  0.290882  -0.000506  0.971665  0.0
H  H5  1  0.35425628  0.22078564  0.90259427  1  0.312522  0.000543  0.9094  0.0  0.296263  0.00035  0.968113  0.0  0.304164  0.000186  0.9625  0.0  0.309505  0.290882  0.000507  0.971645  0.0
H  H6  1  0.69018863  0.48700301  0.45577677  1  0.292926  0.000147  0.927342  0.0  0.268582  -2.8e-05  1.005283  0.0  0.276229  -1.5e-05  0.999543  0.0  0.289222  0.263138  -4.6e-05  1.00943  0.0
H  H7  1  0.80980644  0.51299880  0.95577504  1  0.292926  -0.000142  0.927371  0.0  0.268573  2.8e-05  1.005312  0.0  0.276218  1.4e-05  0.999575  0.0  0.289219  0.263126  4.6e-05  1.009459  0.0
H  H8  1  0.30980829  0.51299775  0.54422342  1  0.292933  0.00015  0.927344  0.0  0.268607  -2.8e-05  1.005286  0.0  0.276253  -1.4e-05  0.999547  0.0  0.289242  0.263162  -4.6e-05  1.009426  0.0
H  H9  1  0.19019232  0.48700609  0.04422363  1  0.292906  -0.000146  0.927368  0.0  0.268583  2.8e-05  1.005311  0.0  0.27623  1.5e-05  0.999571  0.0  0.289219  0.263135  4.6e-05  1.009473  0.0
H  H10  1  0.08916041  0.39488112  0.83675208  1  0.119819  0.000474  0.938051  0.001  0.132905  0.000167  0.997864  0.0  0.135504  0.000129  0.99728  0.0  0.094199  0.130799  0.000184  0.998882  0.0
H  H11  1  0.41084416  0.60511941  0.33674982  1  0.119794  -0.000469  0.938043  -0.001  0.132875  -0.000167  0.997856  0.0  0.135475  -0.000129  0.997273  0.0  0.094183  0.130774  -0.000184  0.998867  0.0
H  H12  1  0.91083274  0.60511553  0.16325040  1  0.119839  0.00047  0.937989  0.001  0.132906  0.000167  0.997806  0.0  0.135504  0.000129  0.997224  0.0  0.094201  0.130802  0.000184  0.998819  0.0
H  H13  1  0.58916006  0.39487823  0.66324810  1  0.119827  -0.000484  0.937916  -0.001  0.13291  -0.000167  0.997757  0.0  0.135513  -0.000129  0.997176  0.0  0.094181  0.130809  -0.000184  0.998762  0.0
H  H14  1  0.21989073  0.38357272  0.75549848  1  0.117854  0.000385  0.930109  0.001  0.130855  9.2e-05  0.989562  0.0  0.1333  6.7e-05  0.989006  0.0  0.096939  0.129014  0.000107  0.990114  0.0
H  H15  1  0.28011260  0.61642638  0.25549883  1  0.117812  -0.000387  0.930182  -0.001  0.13084  -9.2e-05  0.989585  0.0  0.133286  -6.7e-05  0.989031  0.0  0.096949  0.128998  -0.000107  0.990145  0.0
H  H16  1  0.78010523  0.61642805  0.24450628  1  0.11791  0.000387  0.930028  0.001  0.13088  9.2e-05  0.989488  0.0  0.133328  6.7e-05  0.988927  0.0  0.096951  0.12904  0.000107  0.990032  0.0
H  H17  1  0.71989257  0.38357126  0.74450060  1  0.117808  -0.000388  0.930157  -0.001  0.130835  -9.2e-05  0.989594  0.0  0.133283  -6.6e-05  0.989043  0.0  0.096923  0.128995  -0.000106  0.990143  0.0
H  H18  1  0.11830724  0.14029376  0.76578472  1  0.071425  -9.9e-05  0.960418  0.0  0.085925  -6.1e-05  1.026339  0.0  0.086293  -3.3e-05  1.027711  0.0  0.0836  0.085232  -8e-05  1.02618  0.0
H  H19  1  0.38169450  0.85970836  0.26578485  1  0.071399  8.9e-05  0.960395  0.0  0.085912  6.1e-05  1.0263  0.0  0.086274  3.3e-05  1.027677  0.0  0.083601  0.085219  8e-05  1.026139  0.0
H  H20  1  0.88169253  0.85970906  0.23421091  1  0.071366  -9.1e-05  0.960456  0.0  0.085915  -6.1e-05  1.026337  0.0  0.086281  -3.3e-05  1.027715  0.0  0.08361  0.085223  -8e-05  1.026176  0.0
H  H21  1  0.61830683  0.14028929  0.73421535  1  0.071333  9.7e-05  0.960474  0.0  0.085876  6.1e-05  1.026367  0.0  0.086241  3.3e-05  1.027739  0.0  0.083593  0.085183  8.1e-05  1.026205  0.0
H  H22  1  0.01934709  0.15561717  0.87236381  1  0.07438  -0.00048  0.947987  -0.001  0.09106  -0.000249  1.008253  0.0  0.091589  -0.00013  1.009256  0.0  0.087387  0.09052  -0.000373  1.007828  0.0
H  H23  1  0.48065338  0.84438104  0.37236371  1  0.074372  0.000476  0.947922  0.001  0.091051  0.000249  1.008198  0.0  0.091577  0.00013  1.009204  0.0  0.0874  0.090516  0.000373  1.007766  0.0
H  H24  1  0.98064946  0.84437843  0.12763410  1  0.074309  -0.000481  0.947925  -0.001  0.091008  -0.000249  1.008198  0.0  0.091534  -0.00013  1.009205  0.0  0.08737  0.090472  -0.000373  1.007768  0.0
H  H25  1  0.51934941  0.15561557  0.62763724  1  0.0743  0.000479  0.947889  0.001  0.090984  0.000249  1.008184  0.0  0.091508  0.00013  1.009187  0.0  0.087337  0.090451  0.000373  1.007748  0.0
H  H26  1  0.89753815  0.02738612  0.68288302  1  0.053879  7.8e-05  0.961986  0.0  0.058019  4.7e-05  1.047654  0.0  0.0597  3.6e-05  1.043999  0.0  0.080979  0.056608  5e-05  1.050508  0.0
H  H27  1  0.60246629  0.97261881  0.18288514  1  0.053826  -7.9e-05  0.962006  0.0  0.058009  -4.7e-05  1.047671  0.0  0.059687  -3.6e-05  1.044014  0.0  0.080974  0.056604  -5e-05  1.050519  0.0
H  H28  1  0.10246115  0.97261568  0.31711185  1  0.053873  7.6e-05  0.961958  0.0  0.058035  4.7e-05  1.047638  0.0  0.05971  3.6e-05  1.043983  0.0  0.080994  0.05664  5e-05  1.050474  0.0
H  H29  1  0.39753976  0.02738296  0.81711810  1  0.053884  -7.5e-05  0.962026  0.0  0.058022  -4.6e-05  1.047746  0.0  0.059703  -3.6e-05  1.044094  0.0  0.08098  0.056631  -5e-05  1.050587  0.0
H  H30  1  0.80894425  0.08763272  0.77411560  1  0.055494  -3e-06  0.968085  0.0  0.066218  -9e-06  1.039678  0.0  0.066373  4e-06  1.040436  0.0  0.085255  0.065765  -3.3e-05  1.039903  0.0
H  H31  1  0.69105621  0.91236635  0.27411611  1  0.05545  7e-06  0.9681  0.0  0.066199  9e-06  1.039713  0.0  0.066352  -4e-06  1.040471  0.0  0.08524  0.065749  3.3e-05  1.039933  0.0
H  H32  1  0.19105175  0.91236599  0.22588079  1  0.055436  -1.1e-05  0.968104  0.0  0.066197  -9e-06  1.039682  0.0  0.06635  4e-06  1.040435  0.0  0.085235  0.065744  -3.3e-05  1.039909  0.0
H  H33  1  0.30894566  0.08762820  0.72588636  1  0.055457  6e-06  0.96799  0.0  0.066235  9e-06  1.03957  0.0  0.066392  -4e-06  1.04033  0.0  0.085244  0.065783  3.3e-05  1.039798  0.0
H  H34  1  0.60436135  0.07851413  0.43729236  1  0.10192  0.000405  0.933319  0.0  0.118288  0.000109  0.990969  0.0  0.120218  7.1e-05  0.990637  0.0  0.099036  0.116769  0.000114  0.991448  0.0
H  H35  1  0.89563051  0.92148680  0.93728160  1  0.101922  -0.000407  0.933346  -0.001  0.118277  -0.000109  0.991044  0.0  0.120205  -7.1e-05  0.990717  0.0  0.099031  0.116775  -0.000113  0.991508  0.0
H  H36  1  0.39563754  0.92148456  0.56271012  1  0.101907  0.000401  0.933349  0.0  0.118267  0.000109  0.991022  0.0  0.120194  7.1e-05  0.990694  0.0  0.099019  0.116748  0.000114  0.991501  0.0
H  H37  1  0.10437261  0.07851704  0.06271555  1  0.10193  -0.000405  0.933346  0.0  0.11826  -0.000109  0.99104  0.0  0.120188  -7.1e-05  0.990711  0.0  0.099048  0.116759  -0.000113  0.991501  0.0
H  H38  1  0.68807694  0.16507217  0.32467089  1  0.118988  0.000309  0.902809  0.0  0.140223  -2e-06  0.949814  0.0  0.141756  -2e-05  0.950262  0.0  0.108644  0.138847  -1e-06  0.94984  0.0
H  H39  1  0.81192412  0.83492444  0.82465909  1  0.118932  -0.000313  0.902752  0.0  0.140211  2e-06  0.949758  0.0  0.141746  2e-05  0.950202  0.0  0.108619  0.138839  1e-06  0.949783  0.0
H  H40  1  0.31192099  0.83492653  0.67533235  1  0.118932  0.000308  0.902802  0.0  0.140224  -2e-06  0.949769  0.0  0.141759  -2e-05  0.950215  0.0  0.108621  0.138849  -1e-06  0.949799  0.0
H  H41  1  0.18808230  0.16508249  0.17533501  1  0.118972  -0.000311  0.902773  0.0  0.14025  2e-06  0.94973  0.0  0.141784  2e-05  0.950175  0.0  0.108647  0.138873  1e-06  0.949764  0.0
H  H42  1  0.39807052  0.12654633  0.40976120  1  0.068235  1.2e-05  0.947095  0.0  0.076592  2.3e-05  1.022747  0.0  0.078508  1.9e-05  1.020899  0.0  0.079088  0.075203  1e-05  1.024072  0.0
H  H43  1  0.10192530  0.87345264  0.90976282  1  0.06824  -9e-06  0.947102  0.0  0.076647  -2.3e-05  1.022683  0.0  0.078565  -1.9e-05  1.020835  0.0  0.079113  0.075261  -1e-05  1.024011  0.0
H  H44  1  0.60192603  0.87344927  0.59024204  1  0.068197  1.2e-05  0.947174  0.0  0.07661  2.3e-05  1.022803  0.0  0.078525  1.9e-05  1.020954  0.0  0.079091  0.075224  1e-05  1.024129  0.0
H  H45  1  0.89807736  0.12655017  0.09023889  1  0.068208  -8e-06  0.947144  0.0  0.076629  -2.3e-05  1.022755  0.0  0.078545  -1.9e-05  1.020907  0.0  0.0791  0.075243  -1e-05  1.024074  0.0
H  H46  1  0.44992466  0.13729033  0.27945903  1  0.081421  -0.000404  0.957638  -0.001  0.096002  -0.000284  1.02016  0.0  0.096676  -0.000162  1.0213  0.0  0.084717  0.095424  -0.000378  1.019598  0.0
H  H47  1  0.05008229  0.86271064  0.77945854  1  0.081389  0.000414  0.957739  0.001  0.095991  0.000284  1.020226  0.0  0.096666  0.000162  1.021365  0.0  0.084732  0.095414  0.000378  1.019666  0.0
H  H48  1  0.55007143  0.86270424  0.72054497  1  0.081401  -0.000409  0.957631  -0.001  0.095998  -0.000284  1.02018  0.0  0.096672  -0.000162  1.02132  0.0  0.084723  0.095418  -0.000378  1.019617  0.0
H  H49  1  0.94992427  0.13729009  0.22054318  1  0.081409  0.000417  0.957626  0.001  0.096022  0.000284  1.020159  0.0  0.096697  0.000162  1.021298  0.0  0.084721  0.095445  0.000378  1.019594  0.0
H  H50  1  0.43981567  0.35979322  0.38709762  1  0.07193  -0.000627  0.956713  -0.001  0.07968  -0.000275  1.031025  0.0  0.0808  -0.000133  1.029504  0.0  0.088893  0.078205  -0.000389  1.033307  -0.001
H  H51  1  0.06018226  0.64020591  0.88709851  1  0.071958  0.000623  0.956661  0.001  0.079678  0.000275  1.030981  0.0  0.080797  0.000133  1.029464  0.0  0.088909  0.078206  0.000389  1.033262  0.001
H  H52  1  0.56017992  0.64020239  0.61290409  1  0.071937  -0.00063  0.95671  -0.001  0.079662  -0.000275  1.031001  0.0  0.080781  -0.000133  1.029481  0.0  0.088914  0.07819  -0.000389  1.033283  -0.001
H  H53  1  0.93981994  0.35979587  0.11290321  1  0.071947  0.000625  0.956703  0.001  0.079681  0.000275  1.030993  0.0  0.0808  0.000133  1.029472  0.0  0.088921  0.07821  0.000389  1.033271  0.001
H  H54  1  0.56115310  0.38422370  0.28386408  1  0.072279  -0.000573  0.942215  -0.001  0.087809  -0.000261  1.003094  0.0  0.088023  -0.000142  1.003365  0.0  0.091684  0.087733  -0.000365  1.002707  -0.001
H  H55  1  0.93884774  0.61577632  0.78386322  1  0.072335  0.000568  0.942167  0.001  0.087828  0.000261  1.003067  0.0  0.088041  0.000141  1.003342  0.0  0.091699  0.087754  0.000365  1.002682  0.001
H  H56  1  0.43884156  0.61576984  0.71613763  1  0.072352  -0.000575  0.942143  -0.001  0.087855  -0.000261  1.003006  0.0  0.088071  -0.000141  1.003272  0.0  0.09171  0.087779  -0.000365  1.002619  -0.001
H  H57  1  0.06115492  0.38422649  0.21613698  1  0.072323  0.000573  0.942199  0.001  0.087815  0.000261  1.003083  0.0  0.08803  0.000141  1.003354  0.0  0.091716  0.087739  0.000365  1.002698  0.001
Pd  Pd58  1  0.87733954  0.83156984  0.50565633  1  0.38444  -0.00093  2.732131  0.0  0.354401  0.000195  3.322983  0.0  0.387262  0.000218  3.280199  0.0  0.501957  0.333455  7.6e-05  3.352962  0.0
Pd  Pd59  1  0.62265829  0.16842925  0.00565612  1  0.384406  0.000927  2.732185  0.0  0.35439  -0.000194  3.322999  0.0  0.387249  -0.000213  3.280221  0.0  0.501952  0.333453  -7.7e-05  3.35296  0.0
Pd  Pd60  1  0.12265985  0.16842782  0.49434615  1  0.384457  -0.000922  2.732152  0.0  0.354407  0.000194  3.323024  0.0  0.387277  0.000216  3.28022  0.0  0.501967  0.333467  7.6e-05  3.352982  0.0
Pd  Pd61  1  0.37733914  0.83157048  0.99434559  1  0.384466  0.000923  2.732106  0.0  0.354443  -0.000196  3.322963  0.0  0.387306  -0.000212  3.280171  0.0  0.501998  0.333498  -7.7e-05  3.352942  0.0
C  C62  1  0.02414153  0.35065426  0.68192430  1  0.608511  0.00209  3.748555  0.005  0.567518  -0.001035  4.046819  0.001  0.601946  -0.000635  4.043831  0.001  0.245077  0.54392  -0.001524  4.046998  0.001
C  C63  1  0.47586235  0.64934747  0.18191944  1  0.608647  -0.002106  3.748399  -0.005  0.567559  0.001035  4.046773  -0.001  0.601986  0.000634  4.043784  -0.001  0.245099  0.543964  0.001524  4.046958  -0.001
C  C64  1  0.97585640  0.64934443  0.31807894  1  0.608321  0.002092  3.748695  0.005  0.56734  -0.001034  4.046903  0.001  0.601766  -0.000634  4.043918  0.001  0.245028  0.543743  -0.001524  4.04709  0.001
C  C65  1  0.52414132  0.35065327  0.81807999  1  0.608345  -0.002108  3.748735  -0.005  0.567368  0.001034  4.046966  -0.001  0.601799  0.000634  4.043984  -0.001  0.245055  0.543776  0.001525  4.047151  -0.001
C  C66  1  0.10541541  0.33704353  0.77291249  1  -0.253019  -0.00981  3.638012  -0.01  -0.289198  -0.005337  3.880342  -0.006  -0.296535  -0.003382  3.889265  -0.004  -0.163738  -0.283967  -0.006896  3.87442  -0.007
C  C67  1  0.39458673  0.66295958  0.27291315  1  -0.253038  0.009803  3.637899  0.01  -0.289194  0.005339  3.880231  0.006  -0.296516  0.003383  3.889117  0.004  -0.163749  -0.283968  0.006898  3.874315  0.007
C  C68  1  0.89457995  0.66296241  0.22708542  1  -0.253141  -0.009798  3.637933  -0.01  -0.289247  -0.005338  3.880187  -0.006  -0.296557  -0.003384  3.889055  -0.004  -0.163751  -0.284021  -0.006897  3.874281  -0.007
C  C69  1  0.60541611  0.33703497  0.72708628  1  -0.253025  0.009839  3.637889  0.01  -0.289239  0.005339  3.880258  0.006  -0.296573  0.003382  3.889157  0.004  -0.163725  -0.284024  0.006898  3.874352  0.007
C  C70  1  0.04301628  0.18067639  0.79173120  1  -0.111552  -0.001935  3.625805  -0.002  -0.150765  -0.00125  3.880315  -0.001  -0.152379  -0.000753  3.895125  -0.001  -0.165269  -0.149259  -0.0017  3.870007  -0.002
C  C71  1  0.45698433  0.81932348  0.29173048  1  -0.111465  0.001973  3.625614  0.002  -0.150661  0.00125  3.880156  0.001  -0.152272  0.000753  3.894966  0.001  -0.165274  -0.149159  0.001699  3.869847  0.002
C  C72  1  0.95697876  0.81932232  0.20826671  1  -0.111299  -0.001957  3.625508  -0.002  -0.150596  -0.001249  3.880072  -0.001  -0.152217  -0.000752  3.894877  -0.001  -0.165245  -0.149096  -0.001698  3.86976  -0.002
C  C73  1  0.54302084  0.18067416  0.70826896  1  -0.111226  0.00194  3.625373  0.002  -0.150457  0.00125  3.879971  0.001  -0.152055  0.000754  3.894784  0.001  -0.165164  -0.148954  0.001699  3.869658  0.002
C  C74  1  0.90528807  0.11726019  0.72707628  1  0.048832  -6.7e-05  3.622525  0.0  -0.009007  -3.7e-05  3.888693  0.0  -0.004502  2.1e-05  3.901205  0.0  -0.070136  -0.011858  -0.000133  3.880207  0.0
C  C75  1  0.59471602  0.88274439  0.22707487  1  0.048948  5.8e-05  3.622428  0.0  -0.009033  3.7e-05  3.888779  0.0  -0.004514  -2.2e-05  3.901274  0.0  -0.070135  -0.011897  0.000133  3.880298  0.0
C  C76  1  0.09471124  0.88274160  0.27292087  1  0.048937  -4.3e-05  3.622321  0.0  -0.008997  -3.8e-05  3.888619  0.0  -0.004477  2.1e-05  3.901116  0.0  -0.070101  -0.011859  -0.000133  3.880121  0.0
C  C77  1  0.40528718  0.11725532  0.77292837  1  0.048858  4.8e-05  3.622324  0.0  -0.009128  3.6e-05  3.888718  0.0  -0.004631  -2.1e-05  3.901237  0.0  -0.070151  -0.011985  0.000133  3.88021  0.0
C  C78  1  0.70548260  0.30122313  0.44542660  1  0.609699  0.004366  3.735401  0.007  0.572331  -0.000498  4.019379  0.001  0.605442  -0.000373  4.017255  0.001  0.252779  0.549412  -0.001059  4.019174  0.001
C  C79  1  0.79450924  0.69877567  0.94542361  1  0.609815  -0.004376  3.73501  -0.007  0.572298  0.000498  4.019296  -0.001  0.605425  0.000373  4.017145  -0.001  0.252756  0.549369  0.001059  4.019108  -0.001
C  C80  1  0.29451340  0.69877557  0.55457284  1  0.609753  0.004379  3.735209  0.007  0.57233  -0.000498  4.019397  0.001  0.605441  -0.000375  4.017275  0.001  0.252807  0.549407  -0.001059  4.0192  0.001
C  C81  1  0.20548860  0.30122716  0.05457354  1  0.609722  -0.004362  3.735482  -0.007  0.572407  0.000497  4.019469  -0.001  0.605519  0.00037  4.017343  -0.001  0.252835  0.549495  0.001059  4.019266  -0.001
C  C82  1  0.62153604  0.16789483  0.38924488  1  -0.24173  -0.00705  3.641376  -0.008  -0.280437  -0.00421  3.886078  -0.005  -0.286739  -0.002673  3.896042  -0.003  -0.153323  -0.275818  -0.005402  3.879206  -0.006
C  C83  1  0.87846203  0.83210438  0.88923672  1  -0.24161  0.007087  3.641073  0.008  -0.280403  0.004211  3.885972  0.005  -0.28671  0.00267  3.895932  0.003  -0.153275  -0.275797  0.005403  3.879101  0.006
C  C84  1  0.37846382  0.83210386  0.61075912  1  -0.241609  -0.007045  3.641206  -0.008  -0.280346  -0.00421  3.886062  -0.005  -0.286648  -0.002671  3.896027  -0.003  -0.153237  -0.275732  -0.005403  3.879196  -0.006
C  C85  1  0.12154489  0.16790151  0.11075967  1  -0.241737  0.007066  3.641385  0.008  -0.280438  0.00421  3.886154  0.005  -0.286739  0.002672  3.896116  0.003  -0.153368  -0.275836  0.005402  3.879278  0.006
C  C86  1  0.48522056  0.17989038  0.35557252  1  -0.11616  -0.0009  3.638904  -0.001  -0.152519  -0.000628  3.894222  -0.001  -0.154363  -0.000335  3.908608  0.0  -0.163256  -0.151176  -0.000887  3.884077  -0.001
C  C87  1  0.01478092  0.82011209  0.85557073  1  -0.116225  0.000861  3.639055  0.001  -0.152579  0.000628  3.894332  0.001  -0.154421  0.000336  3.908715  0.0  -0.163306  -0.151236  0.000887  3.884189  0.001
C  C88  1  0.51477695  0.82010522  0.64442920  1  -0.116056  -0.000898  3.639003  -0.001  -0.152547  -0.000628  3.894419  -0.001  -0.154394  -0.000336  3.908814  0.0  -0.163243  -0.151204  -0.000887  3.884273  -0.001
C  C89  1  0.98522454  0.17989484  0.14442794  1  -0.116101  0.000859  3.638892  0.001  -0.152599  0.000628  3.894299  0.001  -0.154445  0.000336  3.908687  0.0  -0.16325  -0.151259  0.000887  3.884147  0.001
C  C90  1  0.52617556  0.33589626  0.35881897  1  0.04426  0.000475  3.598699  0.001  -0.013146  -1.9e-05  3.85817  0.0  -0.008292  5.6e-05  3.869779  0.0  -0.066051  -0.016183  -0.000173  3.850372  0.0
C  C91  1  0.97382275  0.66410320  0.85881786  1  0.044254  -0.000446  3.598683  -0.001  -0.01309  1.9e-05  3.858071  0.0  -0.008237  -5.6e-05  3.869685  0.0  -0.066037  -0.016128  0.000173  3.850271  0.0
C  C92  1  0.47382049  0.66410038  0.64118275  1  0.044077  0.000489  3.598739  0.001  -0.013127  -1.9e-05  3.858063  0.0  -0.008274  5.5e-05  3.869678  0.0  -0.066128  -0.016162  -0.000173  3.850264  0.0
C  C93  1  0.02617848  0.33589859  0.14118309  1  0.044132  -0.000463  3.598745  -0.001  -0.013118  1.9e-05  3.858155  0.0  -0.008263  -5.6e-05  3.869764  0.0  -0.066126  -0.016152  0.000173  3.850356  0.0
N  N94  1  0.91874119  0.22925386  0.65869697  1  -0.414269  -0.001139  3.298889  -0.002  -0.357148  -0.000615  3.549717  -0.001  -0.378866  -3.8e-05  3.555699  0.0  -0.418607  -0.342231  -0.001178  3.545194  -0.002
N  N95  1  0.58126052  0.77075333  0.15869592  1  -0.414368  0.001143  3.298877  0.002  -0.357196  0.000615  3.549768  0.001  -0.378918  3.9e-05  3.555742  0.0  -0.418625  -0.342276  0.001179  3.545246  0.002
N  N96  1  0.08126326  0.77075514  0.34130246  1  -0.414348  -0.001142  3.298993  -0.002  -0.357244  -0.000616  3.549768  -0.001  -0.378968  -4e-05  3.555746  0.0  -0.418659  -0.342326  -0.001179  3.545256  -0.002
N  N97  1  0.41874127  0.22924536  0.84130351  1  -0.414386  0.001151  3.299144  0.002  -0.357195  0.000616  3.549947  0.001  -0.37891  4e-05  3.555928  0.0  -0.418664  -0.342284  0.00118  3.545447  0.002
N  N98  1  0.64653665  0.38733268  0.42974000  1  -0.386096  -0.013544  3.309066  -0.016  -0.326259  -0.006328  3.549375  -0.008  -0.348853  -0.00377  3.559485  -0.005  -0.40067  -0.310532  -0.008357  3.541993  -0.01
N  N99  1  0.85346009  0.61266829  0.92973785  1  -0.386208  0.013527  3.309069  0.016  -0.32628  0.006329  3.549368  0.008  -0.348884  0.003772  3.559475  0.005  -0.400672  -0.310539  0.008358  3.541976  0.01
N  N100  1  0.35346036  0.61266395  0.57026096  1  -0.386086  -0.013565  3.308939  -0.016  -0.326347  -0.00633  3.549345  -0.008  -0.348945  -0.00377  3.559456  -0.005  -0.400707  -0.310614  -0.008361  3.541949  -0.01
N  N101  1  0.14654059  0.38733660  0.07026158  1  -0.385993  0.01354  3.309018  0.016  -0.326286  0.00633  3.549392  0.008  -0.348882  0.003774  3.559499  0.005  -0.400652  -0.310555  0.008359  3.542012  0.01
Cl  Cl102  1  0.85645846  0.64198864  0.59577294  1  -0.41939  0.000294  1.189294  -0.001  -0.405584  0.001152  1.512595  0.0  -0.419551  0.001334  1.487671  0.0  -0.277653  -0.393319  0.00046  1.532105  -0.001
Cl  Cl103  1  0.64353580  0.35800770  0.09577213  1  -0.41941  -0.000293  1.189352  0.001  -0.405608  -0.001151  1.512644  0.0  -0.419571  -0.001337  1.487722  0.0  -0.277669  -0.393349  -0.000462  1.532154  0.001
Cl  Cl104  1  0.14354043  0.35801006  0.40422954  1  -0.419396  0.000294  1.189331  -0.001  -0.405578  0.001151  1.512616  0.0  -0.419544  0.001334  1.487692  0.0  -0.277654  -0.393306  0.000459  1.5321  -0.001
Cl  Cl105  1  0.35645635  0.64199102  0.90422578  1  -0.419409  -0.000293  1.189307  0.001  -0.405605  -0.001151  1.512592  0.0  -0.419567  -0.001336  1.487667  0.0  -0.277669  -0.393341  -0.000462  1.5321  0.001
Cl  Cl106  1  0.66990462  0.70342513  0.42210700  1  -0.38804  2.1e-05  1.159349  0.0  -0.349684  -1.9e-05  1.465767  0.0  -0.365757  -2.3e-05  1.448192  0.0  -0.264512  -0.338965  -4.9e-05  1.479739  0.0
Cl  Cl107  1  0.83009457  0.29657693  0.92210506  1  -0.388005  -2e-05  1.159327  0.0  -0.349662  2.1e-05  1.465753  0.0  -0.365733  2e-05  1.44818  0.0  -0.264485  -0.338944  5e-05  1.479722  0.0
Cl  Cl108  1  0.33009478  0.29657253  0.57789700  1  -0.388046  1.9e-05  1.159358  0.0  -0.349682  -1.9e-05  1.465762  0.0  -0.365759  -2.2e-05  1.448185  0.0  -0.26449  -0.338969  -4.9e-05  1.479725  0.0
Cl  Cl109  1  0.16990189  0.70342280  0.07789513  1  -0.388004  -2.1e-05  1.159281  0.0  -0.349669  2.1e-05  1.465727  0.0  -0.365744  2e-05  1.448151  0.0  -0.264496  -0.33895  5e-05  1.479706  0.0
Cl  Cl110  1  0.90022469  0.03235757  0.42104695  1  -0.290968  -3.9e-05  1.502862  0.0  -0.25578  5.3e-05  1.875735  0.0  -0.270383  3.6e-05  1.849588  0.0  -0.240395  -0.246771  8e-05  1.895035  0.0
Cl  Cl111  1  0.59977602  0.96764139  0.92104755  1  -0.290964  4.1e-05  1.502879  0.0  -0.255782  -5.2e-05  1.875743  0.0  -0.270382  -3.6e-05  1.849594  0.0  -0.240394  -0.246764  -8e-05  1.895028  0.0
Cl  Cl112  1  0.09977567  0.96764009  0.57895476  1  -0.290958  -4e-05  1.502871  0.0  -0.25578  5.2e-05  1.875764  0.0  -0.270374  3.5e-05  1.849594  0.0  -0.240406  -0.246764  8e-05  1.895044  0.0
Cl  Cl113  1  0.40022388  0.03235523  0.07895721  1  -0.290944  4e-05  1.502888  0.0  -0.255772  -5.2e-05  1.875775  0.0  -0.270376  -3.7e-05  1.849632  0.0  -0.240393  -0.246748  -8e-05  1.895052  0.0
O  O114  1  0.05550321  0.46358767  0.63563595  1  -0.571223  -0.082869  2.112298  -0.108  -0.552045  -0.050034  2.399781  -0.072  -0.59349  -0.036277  2.393086  -0.055  -0.313745  -0.520419  -0.059207  2.404026  -0.081
O  O115  1  0.44450044  0.53641959  0.13563303  1  -0.57126  0.082858  2.112522  0.108  -0.551994  0.050028  2.399972  0.072  -0.593461  0.036274  2.393328  0.055  -0.313681  -0.520379  0.059185  2.404233  0.081
O  O116  1  0.94449651  0.53641721  0.36436424  1  -0.57104  -0.082843  2.112538  -0.108  -0.551828  -0.050017  2.399948  -0.072  -0.593291  -0.036266  2.393302  -0.055  -0.313657  -0.520209  -0.059181  2.404207  -0.081
O  O117  1  0.55550373  0.46358012  0.86436412  1  -0.571053  0.082848  2.112546  0.108  -0.551839  0.050022  2.399957  0.072  -0.593292  0.036271  2.393293  0.055  -0.313649  -0.520224  0.059175  2.404213  0.081
O  O118  1  0.81694063  0.32421343  0.49738928  1  -0.604567  -0.060921  2.126411  -0.079  -0.576918  -0.041609  2.405578  -0.059  -0.614726  -0.030671  2.396151  -0.047  -0.315847  -0.547935  -0.048093  2.412116  -0.065
O  O119  1  0.68305695  0.67579011  0.99738287  1  -0.60459  0.060913  2.126352  0.079  -0.57691  0.041606  2.40562  0.059  -0.614712  0.03067  2.396172  0.047  -0.315874  -0.547924  0.048073  2.412153  0.065
O  O120  1  0.18306153  0.67579041  0.50261091  1  -0.60462  -0.060918  2.12651  -0.079  -0.576965  -0.041605  2.405755  -0.059  -0.614758  -0.030668  2.396293  -0.047  -0.315898  -0.547969  -0.048088  2.412262  -0.065
O  O121  1  0.31694181  0.32421478  0.00261048  1  -0.604599  0.060915  2.126451  0.079  -0.576999  0.041608  2.405653  0.059  -0.614791  0.03067  2.396203  0.047  -0.315881  -0.548015  0.048077  2.412178  0.065
