# generated using pymatgen
data_CdH20C22(N5O4)2
_symmetry_space_group_name_H-M   'P 1'
_cell_length_a   9.67358357
_cell_length_b   10.16736759
_cell_length_c   12.91008608
_cell_angle_alpha   90.00013095
_cell_angle_beta   95.61291202
_cell_angle_gamma   89.99991512
_symmetry_Int_Tables_number   1
_chemical_formula_structural   CdH20C22(N5O4)2
_chemical_formula_sum   'Cd2 H40 C44 N20 O16'
_cell_volume   1263.68190769
_cell_formula_units_Z   2
loop_
 _symmetry_equiv_pos_site_id
 _symmetry_equiv_pos_as_xyz
  1  'x, y, z'
loop_
 _atom_site_type_symbol
 _atom_site_label
 _atom_site_symmetry_multiplicity
 _atom_site_fract_x
 _atom_site_fract_y
 _atom_site_fract_z
 _atom_site_occupancy
 _atom_site_hle17_bader_spin_density
 _atom_site_hle17_ddec_charge
 _atom_site_hle17_ddec_spin_density
 _atom_site_hle17_ddec_sum_bond_order
 _atom_site_hle17_magmom
 _atom_site_hse06_10hf_bader_spin_density
 _atom_site_hse06_10hf_ddec_charge
 _atom_site_hse06_10hf_ddec_spin_density
 _atom_site_hse06_10hf_ddec_sum_bond_order
 _atom_site_hse06_10hf_magmom
 _atom_site_hse06_bader_spin_density
 _atom_site_hse06_ddec_charge
 _atom_site_hse06_ddec_spin_density
 _atom_site_hse06_ddec_sum_bond_order
 _atom_site_hse06_magmom
 _atom_site_pbe_bader_spin_density
 _atom_site_pbe_cm5_charge
 _atom_site_pbe_ddec_charge
 _atom_site_pbe_ddec_spin_density
 _atom_site_pbe_ddec_sum_bond_order
 _atom_site_pbe_magmom
Cd  Cd0  1  0.50000000  0.99999936  0.99999905  1  0  1.020242  0  1.773464  0  0  0.80673  0  2.22223  0  0  0.860104  0  2.180734  0  0  0.79071  0.768599  0  2.250741  0
Cd  Cd1  1  0.00000172  0.50000035  0.50000073  1  0  1.020248  0  1.773453  0  0  0.806734  0  2.222238  0  0  0.860108  0  2.180741  0  0  0.790719  0.768602  0  2.25075  0
H  H2  1  0.48828357  0.26269135  0.88843174  1  0  0.098758  0  0.974964  0  0  0.101043  0  1.045925  0  0  0.104793  0  1.042051  0  0  0.114267  0.098279  0  1.04881  0
H  H3  1  0.01171639  0.76268993  0.61156903  1  0  0.098787  0  0.974921  0  0  0.101084  0  1.04587  0  0  0.104835  0  1.041998  0  0  0.114282  0.098321  0  1.048754  0
H  H4  1  0.51171612  0.73730864  0.11156898  1  0  0.098774  0  0.974931  0  0  0.101072  0  1.045883  0  0  0.104824  0  1.042007  0  0  0.114273  0.098308  0  1.048771  0
H  H5  1  0.98828433  0.23730908  0.38843176  1  0  0.098751  0  0.974978  0  0  0.101044  0  1.045933  0  0  0.104794  0  1.042061  0  0  0.114271  0.09828  0  1.048818  0
H  H6  1  0.79508811  0.53421839  0.02817340  1  0  0.116942  0  0.927693  0  0  0.129961  0  0.982568  0  0  0.133027  0  0.980601  0  0  0.114469  0.127885  0  0.983751  0
H  H7  1  0.70491054  0.03421750  0.47182684  1  0  0.116969  0  0.927688  0  0  0.129987  0  0.982564  0  0  0.133052  0  0.980597  0  0  0.114467  0.127909  0  0.983748  0
H  H8  1  0.20491054  0.46578062  0.97182724  1  0  0.116908  0  0.927694  0  0  0.12996  0  0.982545  0  0  0.133027  0  0.980576  0  0  0.114467  0.127882  0  0.983728  0
H  H9  1  0.29508706  0.96578151  0.52817218  1  0  0.116908  0  0.927729  0  0  0.129901  0  0.982627  0  0  0.132966  0  0.980662  0  0  0.114453  0.127824  0  0.98381  0
H  H10  1  0.82238211  0.38733298  0.18323269  1  0  0.108455  0  0.965918  0  0  0.116017  0  1.028554  0  0  0.118718  0  1.028016  0  0  0.106948  0.113965  0  1.029407  0
H  H11  1  0.67761814  0.88733290  0.31676753  1  0  0.10845  0  0.965928  0  0  0.11601  0  1.028573  0  0  0.11871  0  1.028036  0  0  0.10695  0.113961  0  1.029424  0
H  H12  1  0.17761758  0.61266799  0.81676803  1  0  0.108452  0  0.965925  0  0  0.116014  0  1.02856  0  0  0.118713  0  1.028025  0  0  0.106943  0.113965  0  1.029412  0
H  H13  1  0.32238258  0.11266709  0.68323249  1  0  0.108401  0  0.966007  0  0  0.116007  0  1.028602  0  0  0.118707  0  1.028067  0  0  0.106954  0.113958  0  1.029452  0
H  H14  1  0.68458220  0.17816684  0.18187623  1  0  0.092639  0  0.951496  0  0  0.099766  0  1.017872  0  0  0.103028  0  1.014176  0  0  0.115002  0.09731  0  1.0206  0
H  H15  1  0.81541729  0.67816657  0.31812279  1  0  0.092609  0  0.951492  0  0  0.099741  0  1.01787  0  0  0.103002  0  1.014176  0  0  0.115003  0.097285  0  1.0206  0
H  H16  1  0.31541644  0.82183315  0.81812287  1  0  0.09265  0  0.95148  0  0  0.099775  0  1.017861  0  0  0.103035  0  1.014168  0  0  0.115013  0.097319  0  1.020592  0
H  H17  1  0.18458240  0.32183342  0.68187871  1  0  0.092648  0  0.951487  0  0  0.099775  0  1.01786  0  0  0.103037  0  1.014165  0  0  0.115002  0.097318  0  1.02059  0
H  H18  1  0.70419256  0.55468413  0.85219791  1  0  0.293521  0  0.91708  0  0  0.270269  0  0.993836  0  0  0.278294  0  0.986823  0  0  0.312388  0.2647  0  0.998486  0
H  H19  1  0.79581017  0.05468415  0.64780376  1  0  0.293532  0  0.917075  0  0  0.2703  0  0.99383  0  0  0.278327  0  0.986819  0  0  0.312397  0.264733  0  0.998479  0
H  H20  1  0.29580817  0.44531488  0.14780289  1  0  0.293548  0  0.917064  0  0  0.270288  0  0.993829  0  0  0.278314  0  0.986813  0  0  0.312388  0.264718  0  0.998479  0
H  H21  1  0.20418848  0.94531781  0.35219611  1  0  0.293539  0  0.917093  0  0  0.27031  0  0.993842  0  0  0.278335  0  0.986827  0  0  0.312439  0.264741  0  0.998492  0
H  H22  1  0.63452659  0.62217735  0.70610072  1  0  0.303757  0  0.927327  0  0  0.287669  0  0.9902  0  0  0.295529  0  0.98329  0  0  0.310636  0.281954  0  0.995412  0
H  H23  1  0.86547604  0.12217670  0.79389796  1  0  0.303798  0  0.927285  0  0  0.28771  0  0.990152  0  0  0.29557  0  0.983245  0  0  0.310659  0.281997  0  0.995366  0
H  H24  1  0.36547414  0.37782264  0.29389930  1  0  0.30378  0  0.927302  0  0  0.287684  0  0.990179  0  0  0.295544  0  0.983269  0  0  0.310646  0.281972  0  0.995391  0
H  H25  1  0.13452260  0.87782427  0.20610191  1  0  0.303773  0  0.927291  0  0  0.287708  0  0.990146  0  0  0.295568  0  0.983237  0  0  0.310669  0.282  0  0.995358  0
H  H26  1  0.26404835  0.51688383  0.66421837  1  0  0.097602  0  0.99481  0  0  0.101422  0  1.065879  0  0  0.104701  0  1.062702  0  0  0.116787  0.098994  0  1.068249  0
H  H27  1  0.23595297  0.01688742  0.83578128  1  0  0.097645  0  0.994808  0  0  0.101468  0  1.065866  0  0  0.104747  0  1.062692  0  0  0.11682  0.09904  0  1.068235  0
H  H28  1  0.73595133  0.48311519  0.33578158  1  0  0.097621  0  0.994827  0  0  0.10144  0  1.065886  0  0  0.104721  0  1.062708  0  0  0.116789  0.099012  0  1.068256  0
H  H29  1  0.76404982  0.98311356  0.16421733  1  0  0.097686  0  0.994845  0  0  0.101502  0  1.065893  0  0  0.104781  0  1.062718  0  0  0.116824  0.099075  0  1.068262  0
H  H30  1  0.20547653  0.66968208  0.36477380  1  0  0.080666  0  0.934868  0  0  0.088  0  1.001252  0  0  0.090784  0  0.99888  0  0  0.110086  0.08586  0  1.003122  0
H  H31  1  0.29452256  0.16968403  0.13522643  1  0  0.080681  0  0.934882  0  0  0.088017  0  1.00127  0  0  0.090801  0  0.998898  0  0  0.110091  0.085877  0  1.003138  0
H  H32  1  0.79452315  0.33031791  0.63522537  1  0  0.080705  0  0.934894  0  0  0.088047  0  1.001269  0  0  0.09083  0  0.9989  0  0  0.110118  0.085907  0  1.003138  0
H  H33  1  0.70547504  0.83031793  0.86477337  1  0  0.080697  0  0.934807  0  0  0.088038  0  1.001195  0  0  0.090821  0  0.998825  0  0  0.11008  0.085896  0  1.003063  0
H  H34  1  0.44967712  0.75515931  0.37778270  1  0  0.107504  0  0.970378  0  0  0.113028  0  1.036972  0  0  0.115508  0  1.036918  0  0  0.105836  0.111083  0  1.03737  0
H  H35  1  0.05032187  0.25516058  0.12221845  1  0  0.107512  0  0.970388  0  0  0.113042  0  1.036973  0  0  0.115523  0  1.036916  0  0  0.105839  0.111094  0  1.037378  0
H  H36  1  0.55032361  0.24484068  0.62221732  1  0  0.107508  0  0.970397  0  0  0.113044  0  1.036981  0  0  0.115523  0  1.036929  0  0  0.105846  0.111095  0  1.037392  0
H  H37  1  0.94967782  0.74483941  0.87778150  1  0  0.107519  0  0.970361  0  0  0.113043  0  1.036961  0  0  0.115523  0  1.036908  0  0  0.105837  0.111098  0  1.037358  0
H  H38  1  0.60544806  0.71671684  0.54087092  1  0  0.113648  0  0.938574  0  0  0.126221  0  0.994804  0  0  0.128468  0  0.994792  0  0  0.111432  0.124695  0  0.994748  0
H  H39  1  0.89455237  0.21671663  0.95912932  1  0  0.113661  0  0.93856  0  0  0.126235  0  0.994792  0  0  0.128482  0  0.994779  0  0  0.111439  0.12471  0  0.994733  0
H  H40  1  0.39455059  0.28328315  0.45912895  1  0  0.113655  0  0.938558  0  0  0.126224  0  0.994795  0  0  0.128473  0  0.994782  0  0  0.111434  0.124698  0  0.994739  0
H  H41  1  0.10544835  0.78328336  0.04087147  1  0  0.113652  0  0.93856  0  0  0.126228  0  0.994792  0  0  0.128475  0  0.99478  0  0  0.111436  0.124703  0  0.994734  0
C  C42  1  0.56324223  0.29295685  0.95197457  1  0  0.029313  0  3.678449  0  0  -0.011274  0  3.938102  0  0  -0.005491  0  3.953041  0  0  0.030289  -0.014965  0  3.92801  0
C  C43  1  0.93675602  0.79295760  0.54802566  1  0  0.029259  0  3.678506  0  0  -0.011313  0  3.938148  0  0  -0.005532  0  3.953086  0  0  0.030277  -0.015005  0  3.928063  0
C  C44  1  0.43675745  0.70704216  0.04802538  1  0  0.029321  0  3.678365  0  0  -0.011283  0  3.938035  0  0  -0.005495  0  3.952966  0  0  0.030288  -0.014974  0  3.927945  0
C  C45  1  0.06324159  0.20704240  0.45197414  1  0  0.029304  0  3.6784  0  0  -0.011276  0  3.938085  0  0  -0.005493  0  3.953023  0  0  0.03027  -0.014969  0  3.928  0
C  C46  1  0.63708154  0.41112700  0.94610679  1  0  0.223278  0  3.78939  0  0  0.220467  0  4.037475  0  0  0.224525  0  4.059495  0  0  0.104956  0.217303  0  4.023021  0
C  C47  1  0.86291758  0.91112492  0.55389294  1  0  0.223386  0  3.789296  0  0  0.220552  0  4.037452  0  0  0.224616  0  4.05947  0  0  0.104954  0.217389  0  4.023006  0
C  C48  1  0.36291815  0.58887201  0.05389393  1  0  0.223343  0  3.789258  0  0  0.220507  0  4.03739  0  0  0.224565  0  4.059406  0  0  0.104981  0.217343  0  4.022936  0
C  C49  1  0.13708105  0.08887016  0.44610538  1  0  0.22333  0  3.789245  0  0  0.220487  0  4.037429  0  0  0.224548  0  4.059443  0  0  0.104957  0.217321  0  4.022979  0
C  C50  1  0.73408979  0.44425513  0.03006772  1  0  -0.093103  0  3.6584  0  0  -0.118964  0  3.907844  0  0  -0.117614  0  3.923808  0  0  -0.06817  -0.119812  0  3.897076  0
C  C51  1  0.76591038  0.94425537  0.46993337  1  0  -0.093242  0  3.658448  0  0  -0.119084  0  3.907909  0  0  -0.11773  0  3.923861  0  0  -0.068198  -0.119931  0  3.897144  0
C  C52  1  0.26591093  0.55574486  0.96993230  1  0  -0.093121  0  3.658282  0  0  -0.119008  0  3.907742  0  0  -0.117655  0  3.923702  0  0  -0.06819  -0.119852  0  3.896973  0
C  C53  1  0.23408827  0.05574364  0.53006650  1  0  -0.093068  0  3.65839  0  0  -0.118863  0  3.907849  0  0  -0.117514  0  3.923814  0  0  -0.068131  -0.119707  0  3.897081  0
C  C54  1  0.75092185  0.36138423  0.11599641  1  0  -0.09048  0  3.743855  0  0  -0.102858  0  4.001276  0  0  -0.107952  0  4.02206  0  0  -0.084465  -0.09961  0  3.987463  0
C  C55  1  0.74907843  0.86138523  0.38400300  1  0  -0.090431  0  3.743846  0  0  -0.102813  0  4.001262  0  0  -0.107906  0  4.022047  0  0  -0.084431  -0.099566  0  3.987448  0
C  C56  1  0.24907784  0.63861576  0.88400354  1  0  -0.090499  0  3.743868  0  0  -0.10288  0  4.001293  0  0  -0.107975  0  4.022081  0  0  -0.08448  -0.099632  0  3.987475  0
C  C57  1  0.25092124  0.13861378  0.61599540  1  0  -0.090538  0  3.744078  0  0  -0.102956  0  4.001466  0  0  -0.108054  0  4.022263  0  0  -0.084548  -0.099705  0  3.987642  0
C  C58  1  0.67413742  0.24566997  0.11616203  1  0  0.097567  0  3.709087  0  0  0.057663  0  3.974276  0  0  0.064811  0  3.991196  0  0  0.028234  0.053046  0  3.962571  0
C  C59  1  0.82586198  0.74566988  0.38383633  1  0  0.097644  0  3.708916  0  0  0.057734  0  3.974115  0  0  0.064883  0  3.991036  0  0  0.028228  0.053117  0  3.962416  0
C  C60  1  0.32586123  0.75432904  0.88383784  1  0  0.097569  0  3.709034  0  0  0.057674  0  3.974211  0  0  0.064823  0  3.991134  0  0  0.02824  0.053056  0  3.962511  0
C  C61  1  0.17413770  0.25432815  0.61616284  1  0  0.097576  0  3.709031  0  0  0.05769  0  3.97422  0  0  0.064835  0  3.991147  0  0  0.028247  0.053075  0  3.962519  0
C  C62  1  0.51557776  0.49178292  0.78002855  1  0  0.721587  0  3.863029  0  0  0.653323  0  4.168134  0  0  0.687062  0  4.16593  0  0  0.332886  0.630545  0  4.168887  0
C  C63  1  0.98442541  0.99177918  0.71997162  1  0  0.721494  0  3.863095  0  0  0.653249  0  4.168197  0  0  0.686991  0  4.165992  0  0  0.33283  0.630475  0  4.168957  0
C  C64  1  0.48441776  0.50821314  0.21997033  1  0  0.721632  0  3.862953  0  0  0.65333  0  4.168079  0  0  0.68707  0  4.16587  0  0  0.33285  0.630557  0  4.16883  0
C  C65  1  0.01557531  0.00822179  0.28002840  1  0  0.721619  0  3.862996  0  0  0.65343  0  4.168072  0  0  0.687167  0  4.165856  0  0  0.332932  0.63066  0  4.168831  0
C  C66  1  0.44805365  0.61006900  0.61512141  1  0  0.235211  0  3.797914  0  0  0.232857  0  4.042875  0  0  0.238089  0  4.064464  0  0  0.108849  0.228618  0  4.028714  0
C  C67  1  0.05194755  0.11006906  0.88487917  1  0  0.235216  0  3.797998  0  0  0.232835  0  4.042988  0  0  0.238066  0  4.064576  0  0  0.108839  0.2286  0  4.028827  0
C  C68  1  0.55194603  0.38993099  0.38487853  1  0  0.235243  0  3.797989  0  0  0.23286  0  4.042962  0  0  0.238093  0  4.064551  0  0  0.108859  0.228626  0  4.028802  0
C  C69  1  0.94805422  0.88993388  0.11512247  1  0  0.23514  0  3.797965  0  0  0.232771  0  4.042977  0  0  0.238005  0  4.064561  0  0  0.108778  0.228542  0  4.02882  0
C  C70  1  0.30879699  0.56849490  0.60207747  1  0  0.018925  0  3.660797  0  0  -0.017566  0  3.910494  0  0  -0.013953  0  3.928496  0  0  0.035433  -0.019715  0  3.898338  0
C  C71  1  0.19120322  0.06849677  0.89792142  1  0  0.019008  0  3.660884  0  0  -0.017478  0  3.910581  0  0  -0.013863  0  3.928583  0  0  0.035474  -0.019626  0  3.898422  0
C  C72  1  0.69120373  0.43150509  0.39792255  1  0  0.018927  0  3.660827  0  0  -0.017553  0  3.910519  0  0  -0.013938  0  3.92852  0  0  0.03545  -0.019702  0  3.898361  0
C  C73  1  0.80879542  0.93150520  0.10207923  1  0  0.018891  0  3.661012  0  0  -0.017566  0  3.910672  0  0  -0.013952  0  3.928671  0  0  0.035444  -0.019716  0  3.898515  0
C  C74  1  0.27642262  0.65511691  0.43482678  1  0  0.092839  0  3.725414  0  0  0.053319  0  3.993948  0  0  0.059727  0  4.011017  0  0  0.02361  0.049257  0  3.981804  0
C  C75  1  0.22357650  0.15511580  0.06517419  1  0  0.092789  0  3.725575  0  0  0.053248  0  3.994132  0  0  0.059657  0  4.011201  0  0  0.023584  0.049189  0  3.981978  0
C  C76  1  0.72357811  0.34488505  0.56517479  1  0  0.092774  0  3.725561  0  0  0.053238  0  3.994139  0  0  0.059643  0  4.011212  0  0  0.023579  0.049178  0  3.981989  0
C  C77  1  0.77642319  0.84488714  0.93482730  1  0  0.092744  0  3.725388  0  0  0.053208  0  3.993933  0  0  0.059613  0  4.011007  0  0  0.023576  0.049144  0  3.981798  0
C  C78  1  0.41213744  0.70255093  0.44266956  1  0  -0.097306  0  3.766694  0  0  -0.111624  0  4.02742  0  0  -0.115644  0  4.047572  0  0  -0.08771  -0.108944  0  4.013706  0
C  C79  1  0.08786161  0.20255097  0.05732995  1  0  -0.097297  0  3.766637  0  0  -0.111607  0  4.027342  0  0  -0.115626  0  4.047489  0  0  -0.087697  -0.108926  0  4.013626  0
C  C80  1  0.58786329  0.29745005  0.55733123  1  0  -0.097261  0  3.766597  0  0  -0.111605  0  4.027341  0  0  -0.115624  0  4.047495  0  0  -0.087699  -0.108927  0  4.013627  0
C  C81  1  0.91213911  0.79745099  0.94266930  1  0  -0.097286  0  3.766583  0  0  -0.111604  0  4.027299  0  0  -0.115623  0  4.04745  0  0  -0.08769  -0.108925  0  4.013586  0
C  C82  1  0.49884838  0.68044006  0.53325441  1  0  -0.105006  0  3.666774  0  0  -0.128157  0  3.912775  0  0  -0.128384  0  3.930947  0  0  -0.071263  -0.127712  0  3.900524  0
C  C83  1  0.00115169  0.18043945  0.96674390  1  0  -0.105033  0  3.666745  0  0  -0.128185  0  3.912752  0  0  -0.128413  0  3.930929  0  0  -0.071279  -0.12774  0  3.900499  0
C  C84  1  0.50115234  0.31956091  0.46674484  1  0  -0.105026  0  3.666754  0  0  -0.128164  0  3.912775  0  0  -0.12839  0  3.930943  0  0  -0.071265  -0.127718  0  3.900522  0
C  C85  1  0.99884800  0.81956153  0.03325604  1  0  -0.104998  0  3.666733  0  0  -0.128132  0  3.912722  0  0  -0.128363  0  3.930903  0  0  -0.071246  -0.127686  0  3.90047  0
N  N86  1  0.58386671  0.21225910  0.03423984  1  0  -0.332671  0  3.325639  0  0  -0.251704  0  3.597129  0  0  -0.27196  0  3.618838  0  0  -0.341487  -0.237705  0  3.581787  0
N  N87  1  0.91613169  0.71225617  0.46575993  1  0  -0.332699  0  3.325484  0  0  -0.25174  0  3.596989  0  0  -0.271996  0  3.618695  0  0  -0.341484  -0.237741  0  3.581652  0
N  N88  1  0.41613297  0.78774286  0.96576088  1  0  -0.33266  0  3.325561  0  0  -0.251699  0  3.597062  0  0  -0.271955  0  3.618769  0  0  -0.341471  -0.237699  0  3.581723  0
N  N89  1  0.08386592  0.28774284  0.53424064  1  0  -0.332657  0  3.325539  0  0  -0.251696  0  3.597041  0  0  -0.271952  0  3.618752  0  0  -0.341464  -0.237699  0  3.581705  0
N  N90  1  0.62123185  0.49460572  0.86015789  1  0  -0.490608  0  3.346377  0  0  -0.435123  0  3.588776  0  0  -0.457886  0  3.597956  0  0  -0.406938  -0.419265  0  3.581812  0
N  N91  1  0.87876924  0.99460387  0.63984368  1  0  -0.490612  0  3.346186  0  0  -0.435229  0  3.588734  0  0  -0.457988  0  3.597884  0  0  -0.406937  -0.419352  0  3.581726  0
N  N92  1  0.37876991  0.50539526  0.13984221  1  0  -0.490612  0  3.346445  0  0  -0.435109  0  3.588852  0  0  -0.457886  0  3.598066  0  0  -0.406886  -0.41925  0  3.581887  0
N  N93  1  0.12123253  0.00539613  0.36015874  1  0  -0.490605  0  3.346307  0  0  -0.43522  0  3.588827  0  0  -0.457987  0  3.598018  0  0  -0.406978  -0.419359  0  3.58186  0
N  N94  1  0.53531205  0.58628022  0.70504682  1  0  -0.503592  0  3.333167  0  0  -0.449994  0  3.574331  0  0  -0.473211  0  3.583455  0  0  -0.408845  -0.433953  0  3.568157  0
N  N95  1  0.96468958  0.08627846  0.79495173  1  0  -0.503667  0  3.333106  0  0  -0.450036  0  3.574247  0  0  -0.473254  0  3.583369  0  0  -0.408867  -0.434006  0  3.568085  0
N  N96  1  0.46468971  0.41372076  0.29495250  1  0  -0.503633  0  3.333234  0  0  -0.449991  0  3.574385  0  0  -0.473205  0  3.583505  0  0  -0.408853  -0.433963  0  3.568222  0
N  N97  1  0.03531113  0.91372252  0.20504674  1  0  -0.503566  0  3.333012  0  0  -0.45004  0  3.574242  0  0  -0.473251  0  3.583354  0  0  -0.40887  -0.434023  0  3.568091  0
N  N98  1  0.22654815  0.59003925  0.51387595  1  0  -0.316677  0  3.309675  0  0  -0.234888  0  3.574245  0  0  -0.253794  0  3.596098  0  0  -0.331214  -0.221934  0  3.55893  0
N  N99  1  0.27344996  0.09004125  0.98612438  1  0  -0.316715  0  3.309865  0  0  -0.234929  0  3.574434  0  0  -0.253835  0  3.596287  0  0  -0.331235  -0.221977  0  3.559119  0
N  N100  1  0.77345050  0.40995780  0.48612469  1  0  -0.316694  0  3.309799  0  0  -0.234904  0  3.574363  0  0  -0.253809  0  3.596216  0  0  -0.331238  -0.221949  0  3.559046  0
N  N101  1  0.72654869  0.90995776  0.01387782  1  0  -0.31668  0  3.309823  0  0  -0.23489  0  3.574375  0  0  -0.253793  0  3.596227  0  0  -0.331214  -0.221936  0  3.559057  0
N  N102  1  0.42147205  0.95693704  0.24914062  1  0  0.692289  0  4.155799  0  0  0.722275  0  4.457862  0  0  0.750772  0  4.46243  0  0  0.098834  0.702975  0  4.454629  0
N  N103  1  0.07852977  0.45693471  0.25085800  1  0  0.692355  0  4.155648  0  0  0.722297  0  4.457749  0  0  0.750793  0  4.462318  0  0  0.098839  0.702995  0  4.454519  0
N  N104  1  0.57852867  0.04306394  0.75085863  1  0  0.692274  0  4.155841  0  0  0.722246  0  4.457916  0  0  0.750743  0  4.462485  0  0  0.098806  0.702944  0  4.454685  0
N  N105  1  0.92147303  0.54306332  0.74914062  1  0  0.692236  0  4.156004  0  0  0.722194  0  4.458096  0  0  0.750691  0  4.462666  0  0  0.098775  0.702894  0  4.45486  0
O  O106  1  0.41517577  0.41627279  0.77630624  1  0  -0.579026  0  1.920452  0  0  -0.528744  0  2.136441  0  0  -0.551322  0  2.131088  0  0  -0.292226  -0.513045  0  2.139686  0
O  O107  1  0.08482190  0.91626863  0.72369465  1  0  -0.578986  0  1.920587  0  0  -0.528692  0  2.136561  0  0  -0.551268  0  2.131196  0  0  -0.292214  -0.512997  0  2.139803  0
O  O108  1  0.58482702  0.58372819  0.22369393  1  0  -0.579159  0  1.920239  0  0  -0.528847  0  2.13622  0  0  -0.55143  0  2.130873  0  0  -0.292279  -0.513147  0  2.139461  0
O  O109  1  0.91518090  0.08372743  0.27630552  1  0  -0.57903  0  1.920738  0  0  -0.528743  0  2.136686  0  0  -0.551339  0  2.131364  0  0  -0.292233  -0.513046  0  2.13993  0
O  O110  1  0.51572729  0.98862159  0.19058758  1  0  -0.503373  0  1.827209  0  0  -0.47642  0  2.071628  0  0  -0.495013  0  2.061498  0  0  -0.204493  -0.463115  0  2.078473  0
O  O111  1  0.98427178  0.48862279  0.30941352  1  0  -0.503359  0  1.827014  0  0  -0.476416  0  2.071481  0  0  -0.49501  0  2.061351  0  0  -0.204483  -0.463107  0  2.078327  0
O  O112  1  0.48427031  0.01137742  0.80941299  1  0  -0.503307  0  1.827069  0  0  -0.476352  0  2.071504  0  0  -0.494947  0  2.061377  0  0  -0.204454  -0.463045  0  2.078348  0
O  O113  1  0.01572894  0.51137720  0.69058728  1  0  -0.503266  0  1.827248  0  0  -0.4763  0  2.071666  0  0  -0.494894  0  2.061537  0  0  -0.204403  -0.462994  0  2.078508  0
O  O114  1  0.32857106  0.87409359  0.21636195  1  0  -0.489095  0  1.76431  0  0  -0.478746  0  1.981184  0  0  -0.492982  0  1.974644  0  0  -0.200509  -0.468857  0  1.985862  0
O  O115  1  0.17142567  0.37408925  0.28363693  1  0  -0.489178  0  1.764393  0  0  -0.478768  0  1.981253  0  0  -0.492994  0  1.974709  0  0  -0.200519  -0.468877  0  1.985933  0
O  O116  1  0.67142654  0.12590837  0.78363630  1  0  -0.489132  0  1.764419  0  0  -0.478749  0  1.98128  0  0  -0.492978  0  1.974737  0  0  -0.200507  -0.468859  0  1.985959  0
O  O117  1  0.82857505  0.62590878  0.71636309  1  0  -0.489155  0  1.764438  0  0  -0.47877  0  1.981302  0  0  -0.493002  0  1.974764  0  0  -0.200532  -0.468881  0  1.985979  0
O  O118  1  0.42388879  0.00572144  0.33851089  1  0  -0.433714  0  1.726628  0  0  -0.430613  0  1.934511  0  0  -0.442693  0  1.928944  0  0  -0.178991  -0.422154  0  1.938379  0
O  O119  1  0.07611052  0.50571908  0.16148906  1  0  -0.433707  0  1.726601  0  0  -0.430629  0  1.934514  0  0  -0.442712  0  1.928948  0  0  -0.178999  -0.42217  0  1.938387  0
O  O120  1  0.57611193  0.99428151  0.66148991  1  0  -0.433674  0  1.726647  0  0  -0.430615  0  1.93455  0  0  -0.442698  0  1.928983  0  0  -0.178986  -0.422158  0  1.938421  0
O  O121  1  0.92389020  0.49428091  0.83851096  1  0  -0.43368  0  1.726634  0  0  -0.430601  0  1.934549  0  0  -0.442683  0  1.928981  0  0  -0.178989  -0.422142  0  1.938418  0
