# generated using pymatgen
data_LiPH5C2N3O5
_symmetry_space_group_name_H-M   'P 1'
_cell_length_a   6.78518891
_cell_length_b   7.13074101
_cell_length_c   13.66502904
_cell_angle_alpha   91.41212308
_cell_angle_beta   89.99994216
_cell_angle_gamma   89.99993737
_symmetry_Int_Tables_number   1
_chemical_formula_structural   LiPH5C2N3O5
_chemical_formula_sum   'Li4 P4 H20 C8 N12 O20'
_cell_volume   660.96010898
_cell_formula_units_Z   4
loop_
 _symmetry_equiv_pos_site_id
 _symmetry_equiv_pos_as_xyz
  1  'x, y, z'
loop_
 _atom_site_type_symbol
 _atom_site_label
 _atom_site_symmetry_multiplicity
 _atom_site_fract_x
 _atom_site_fract_y
 _atom_site_fract_z
 _atom_site_occupancy
 _atom_site_hle17_bader_spin_density
 _atom_site_hle17_ddec_charge
 _atom_site_hle17_ddec_spin_density
 _atom_site_hle17_ddec_sum_bond_order
 _atom_site_hle17_magmom
 _atom_site_hse06_10hf_bader_spin_density
 _atom_site_hse06_10hf_ddec_charge
 _atom_site_hse06_10hf_ddec_spin_density
 _atom_site_hse06_10hf_ddec_sum_bond_order
 _atom_site_hse06_10hf_magmom
 _atom_site_hse06_bader_spin_density
 _atom_site_hse06_ddec_charge
 _atom_site_hse06_ddec_spin_density
 _atom_site_hse06_ddec_sum_bond_order
 _atom_site_hse06_magmom
 _atom_site_pbe_bader_spin_density
 _atom_site_pbe_cm5_charge
 _atom_site_pbe_ddec_charge
 _atom_site_pbe_ddec_spin_density
 _atom_site_pbe_ddec_sum_bond_order
 _atom_site_pbe_magmom
Li  Li0  1  0.86634236  0.42508627  0.26347205  1  0  0.861215  0  0.393769  0  0  0.82849  0  0.485649  0  0  0.836128  0  0.471283  0  0  0.521813  0.822905  0  0.495897  0
Li  Li1  1  0.36633882  0.07491117  0.23652756  1  0  0.861217  0  0.393757  0  0  0.828501  0  0.485618  0  0  0.836139  0  0.471253  0  0  0.521814  0.822917  0  0.495865  0
Li  Li2  1  0.13365770  0.57491361  0.73652757  1  0  0.861224  0  0.393745  0  0  0.828503  0  0.48561  0  0  0.83614  0  0.471247  0  0  0.521817  0.822922  0  0.495856  0
Li  Li3  1  0.63366124  0.92509013  0.76347280  1  0  0.861212  0  0.393768  0  0  0.828493  0  0.485645  0  0  0.836131  0  0.471279  0  0  0.521813  0.822907  0  0.495894  0
P  P4  1  0.94797135  0.20384684  0.66167684  1  0  1.653205  0  4.744861  0  0  1.472134  0  5.261153  0  0  1.524721  0  5.220457  0  0  0.51064  1.435603  0  5.288702  0
P  P5  1  0.44797030  0.29615898  0.83832220  1  0  1.653255  0  4.744877  0  0  1.472196  0  5.261152  0  0  1.524772  0  5.220456  0  0  0.510654  1.435661  0  5.288704  0
P  P6  1  0.05203018  0.79616005  0.33832282  1  0  1.65323  0  4.744902  0  0  1.472183  0  5.261157  0  0  1.524754  0  5.220461  0  0  0.51061  1.435648  0  5.288712  0
P  P7  1  0.55202976  0.70383810  0.16167740  1  0  1.653227  0  4.744821  0  0  1.472168  0  5.261082  0  0  1.524747  0  5.220385  0  0  0.51064  1.435634  0  5.288629  0
H  H8  1  0.68385206  0.22180755  0.54911150  1  0  0.375048  0  0.888279  0  0  0.350978  0  0.954805  0  0  0.361059  0  0.94504  0  0  0.32239  0.343841  0  0.961769  0
H  H9  1  0.18384786  0.27819292  0.95088691  1  0  0.375151  0  0.888078  0  0  0.35107  0  0.954641  0  0  0.36115  0  0.944876  0  0  0.322416  0.343935  0  0.961606  0
H  H10  1  0.31614948  0.77819371  0.45088739  1  0  0.375132  0  0.888142  0  0  0.351049  0  0.954701  0  0  0.36113  0  0.944935  0  0  0.322405  0.343911  0  0.961667  0
H  H11  1  0.81614926  0.72180555  0.04911270  1  0  0.375141  0  0.888136  0  0  0.351049  0  0.954707  0  0  0.361129  0  0.944941  0  0  0.322407  0.343914  0  0.961672  0
H  H12  1  0.19402644  0.31544575  0.39914221  1  0  0.351686  0  0.877093  0  0  0.327703  0  0.943814  0  0  0.337658  0  0.934984  0  0  0.330845  0.320684  0  0.950071  0
H  H13  1  0.69402321  0.18455747  0.10085678  1  0  0.351663  0  0.877055  0  0  0.327698  0  0.943767  0  0  0.337653  0  0.934937  0  0  0.330842  0.320679  0  0.950024  0
H  H14  1  0.80597509  0.68455417  0.60085887  1  0  0.351653  0  0.877021  0  0  0.327685  0  0.94374  0  0  0.337641  0  0.93491  0  0  0.330821  0.320667  0  0.949998  0
H  H15  1  0.30597537  0.81544241  0.89914283  1  0  0.351675  0  0.877068  0  0  0.327686  0  0.943817  0  0  0.337642  0  0.934986  0  0  0.330826  0.320668  0  0.950076  0
H  H16  1  0.28551082  0.13814321  0.67610160  1  0  0.372234  0  0.889366  0  0  0.351389  0  0.949497  0  0  0.361105  0  0.94089  0  0  0.323927  0.34459  0  0.955495  0
H  H17  1  0.78550989  0.36185996  0.82389678  1  0  0.372227  0  0.889341  0  0  0.351396  0  0.949462  0  0  0.361105  0  0.940858  0  0  0.323936  0.344598  0  0.955462  0
H  H18  1  0.71448777  0.86185667  0.32389802  1  0  0.372218  0  0.889385  0  0  0.351386  0  0.949511  0  0  0.361094  0  0.940908  0  0  0.323914  0.344587  0  0.955509  0
H  H19  1  0.21449017  0.63813993  0.17610357  1  0  0.372224  0  0.889357  0  0  0.351387  0  0.949487  0  0  0.361098  0  0.940883  0  0  0.323912  0.344587  0  0.955485  0
H  H20  1  0.98274759  0.10785760  0.22157325  1  0  0.44026  0  0.858577  0  0  0.411403  0  0.918366  0  0  0.421228  0  0.903967  0  0  0.307046  0.404472  0  0.928532  0
H  H21  1  0.48275098  0.39213972  0.27842629  1  0  0.440254  0  0.858581  0  0  0.4114  0  0.918364  0  0  0.421224  0  0.903966  0  0  0.307051  0.404468  0  0.928531  0
H  H22  1  0.01725099  0.89214228  0.77842637  1  0  0.440267  0  0.85856  0  0  0.411419  0  0.918335  0  0  0.421244  0  0.903937  0  0  0.307056  0.404487  0  0.928502  0
H  H23  1  0.51725203  0.60786160  0.72157480  1  0  0.440254  0  0.858584  0  0  0.411399  0  0.918367  0  0  0.421223  0  0.90397  0  0  0.307048  0.404468  0  0.928533  0
H  H24  1  0.99999549  0.21822853  0.12356914  1  0  0.432899  0  0.85469  0  0  0.400005  0  0.924755  0  0  0.410337  0  0.909227  0  0  0.309242  0.392617  0  0.935866  0
H  H25  1  0.49999733  0.28176736  0.37643039  1  0  0.432881  0  0.854689  0  0  0.399976  0  0.92479  0  0  0.410309  0  0.909261  0  0  0.309234  0.392587  0  0.935903  0
H  H26  1  0.00000015  0.78176994  0.87643047  1  0  0.432893  0  0.854681  0  0  0.399998  0  0.924761  0  0  0.410329  0  0.909234  0  0  0.309239  0.392609  0  0.935875  0
H  H27  1  0.50000420  0.71823113  0.62356996  1  0  0.432961  0  0.854611  0  0  0.400071  0  0.92466  0  0  0.410403  0  0.909134  0  0  0.309267  0.392682  0  0.935774  0
C  C28  1  0.25785803  0.22575837  0.53590418  1  0  0.824142  0  3.82464  0  0  0.747784  0  4.132561  0  0  0.784903  0  4.125099  0  0  0.361089  0.72261  0  4.136967  0
C  C29  1  0.75785250  0.27424627  0.96409569  1  0  0.824297  0  3.824343  0  0  0.747924  0  4.132316  0  0  0.785056  0  4.124814  0  0  0.361199  0.722748  0  4.136723  0
C  C30  1  0.74214203  0.77424010  0.46409543  1  0  0.824115  0  3.824775  0  0  0.747839  0  4.132606  0  0  0.784936  0  4.125157  0  0  0.361148  0.722663  0  4.137011  0
C  C31  1  0.24214167  0.72575505  0.03590540  1  0  0.824286  0  3.824446  0  0  0.747879  0  4.132435  0  0  0.78501  0  4.124938  0  0  0.361127  0.722706  0  4.136846  0
C  C32  1  0.92373047  0.27986482  0.46695910  1  0  0.833061  0  3.827927  0  0  0.756399  0  4.141128  0  0  0.792957  0  4.134031  0  0  0.357933  0.731575  0  4.145309  0
C  C33  1  0.42372423  0.22013535  0.03303976  1  0  0.833217  0  3.82797  0  0  0.756592  0  4.141124  0  0  0.793151  0  4.134022  0  0  0.358066  0.731764  0  4.145311  0
C  C34  1  0.07627401  0.72013370  0.53304197  1  0  0.833114  0  3.828004  0  0  0.756481  0  4.14116  0  0  0.79304  0  4.134062  0  0  0.358014  0.731656  0  4.145345  0
C  C35  1  0.57627436  0.77986451  0.96695913  1  0  0.833078  0  3.827886  0  0  0.756412  0  4.141074  0  0  0.792969  0  4.133978  0  0  0.357973  0.73159  0  4.145259  0
N  N36  1  0.18124110  0.16947070  0.62235972  1  0  -0.778499  0  3.138956  0  0  -0.700218  0  3.394194  0  0  -0.727281  0  3.387215  0  0  -0.419079  -0.681754  0  3.398703  0
N  N37  1  0.68123567  0.33052980  0.87763943  1  0  -0.778525  0  3.138851  0  0  -0.700283  0  3.394149  0  0  -0.727322  0  3.387133  0  0  -0.419144  -0.681811  0  3.398657  0
N  N38  1  0.81876191  0.83052776  0.37763916  1  0  -0.778464  0  3.13889  0  0  -0.700256  0  3.394151  0  0  -0.727268  0  3.387135  0  0  -0.419116  -0.681789  0  3.398661  0
N  N39  1  0.31876144  0.66946729  0.12236090  1  0  -0.778511  0  3.138763  0  0  -0.70026  0  3.394069  0  0  -0.727302  0  3.387057  0  0  -0.419085  -0.681791  0  3.398575  0
N  N40  1  0.12716753  0.28479797  0.46484008  1  0  -0.603305  0  3.22102  0  0  -0.538865  0  3.471017  0  0  -0.565328  0  3.469757  0  0  -0.388476  -0.520747  0  3.471411  0
N  N41  1  0.62716440  0.21520530  0.03515822  1  0  -0.603402  0  3.221037  0  0  -0.538976  0  3.470997  0  0  -0.56545  0  3.469724  0  0  -0.388577  -0.52088  0  3.471456  0
N  N42  1  0.87283548  0.71520467  0.53515809  1  0  -0.60331  0  3.220853  0  0  -0.538907  0  3.470795  0  0  -0.565375  0  3.469549  0  0  -0.38854  -0.520802  0  3.471219  0
N  N43  1  0.37283419  0.78479179  0.96484211  1  0  -0.603327  0  3.220884  0  0  -0.538859  0  3.470858  0  0  -0.565334  0  3.4696  0  0  -0.388467  -0.520726  0  3.471217  0
N  N44  1  0.83691780  0.22586957  0.55179489  1  0  -0.775555  0  3.114023  0  0  -0.697068  0  3.373202  0  0  -0.724343  0  3.366065  0  0  -0.42296  -0.678292  0  3.377772  0
N  N45  1  0.33691361  0.27413216  0.94820418  1  0  -0.775687  0  3.113937  0  0  -0.697208  0  3.373091  0  0  -0.724483  0  3.365954  0  0  -0.423014  -0.678432  0  3.377669  0
N  N46  1  0.16308521  0.77413171  0.44820473  1  0  -0.77563  0  3.11392  0  0  -0.697192  0  3.373171  0  0  -0.724469  0  3.366038  0  0  -0.422993  -0.678414  0  3.377741  0
N  N47  1  0.66308498  0.72586772  0.05179544  1  0  -0.775612  0  3.113897  0  0  -0.697168  0  3.373172  0  0  -0.724444  0  3.366038  0  0  -0.422995  -0.678389  0  3.377743  0
O  O48  1  0.43769240  0.22397729  0.51786306  1  0  -0.601448  0  1.927844  0  0  -0.548212  0  2.148834  0  0  -0.56971  0  2.136875  0  0  -0.284522  -0.533517  0  2.156956  0
O  O49  1  0.93768977  0.27602293  0.98213595  1  0  -0.601582  0  1.927626  0  0  -0.548335  0  2.148647  0  0  -0.569838  0  2.136673  0  0  -0.284608  -0.533635  0  2.156774  0
O  O50  1  0.56231208  0.77602119  0.48213655  1  0  -0.601457  0  1.92802  0  0  -0.548239  0  2.148979  0  0  -0.569736  0  2.137031  0  0  -0.284535  -0.533541  0  2.157099  0
O  O51  1  0.06231029  0.72397558  0.01786512  1  0  -0.601585  0  1.927803  0  0  -0.548273  0  2.148791  0  0  -0.569775  0  2.13682  0  0  -0.284556  -0.53358  0  2.156916  0
O  O52  1  0.82587031  0.32259889  0.39358763  1  0  -0.668428  0  1.897543  0  0  -0.624546  0  2.13442  0  0  -0.643925  0  2.12207  0  0  -0.351823  -0.61127  0  2.14274  0
O  O53  1  0.32586544  0.17739856  0.10641053  1  0  -0.668436  0  1.897581  0  0  -0.62456  0  2.134445  0  0  -0.643937  0  2.122091  0  0  -0.351815  -0.611279  0  2.142768  0
O  O54  1  0.17413270  0.67740233  0.60640980  1  0  -0.668429  0  1.897687  0  0  -0.624533  0  2.134523  0  0  -0.643906  0  2.122165  0  0  -0.351815  -0.611259  0  2.142847  0
O  O55  1  0.67413167  0.82259855  0.89359054  1  0  -0.668402  0  1.89762  0  0  -0.624516  0  2.134498  0  0  -0.643895  0  2.122148  0  0  -0.3518  -0.61124  0  2.142818  0
O  O56  1  0.87229480  0.03130228  0.71045052  1  0  -0.908241  0  1.913388  0  0  -0.837295  0  2.165261  0  0  -0.860452  0  2.144518  0  0  -0.415394  -0.82094  0  2.179225  0
O  O57  1  0.37229955  0.46869940  0.78954780  1  0  -0.908277  0  1.91351  0  0  -0.837304  0  2.165371  0  0  -0.860461  0  2.144633  0  0  -0.415368  -0.82095  0  2.179335  0
O  O58  1  0.12770084  0.96869900  0.28954911  1  0  -0.908268  0  1.913546  0  0  -0.837297  0  2.165407  0  0  -0.860454  0  2.144669  0  0  -0.415361  -0.820947  0  2.179373  0
O  O59  1  0.62770198  0.53129908  0.21045181  1  0  -0.908279  0  1.913526  0  0  -0.837319  0  2.165421  0  0  -0.860477  0  2.144682  0  0  -0.415393  -0.820961  0  2.179385  0
O  O60  1  0.93390820  0.38384730  0.72220559  1  0  -0.915345  0  1.893537  0  0  -0.850678  0  2.146955  0  0  -0.87378  0  2.125457  0  0  -0.422235  -0.834247  0  2.161297  0
O  O61  1  0.43390748  0.11615433  0.77779343  1  0  -0.915366  0  1.893441  0  0  -0.850696  0  2.146846  0  0  -0.873806  0  2.125359  0  0  -0.422239  -0.834256  0  2.161173  0
O  O62  1  0.06609186  0.61615538  0.27779404  1  0  -0.915368  0  1.893464  0  0  -0.850688  0  2.146861  0  0  -0.873801  0  2.12538  0  0  -0.422229  -0.834252  0  2.16119  0
O  O63  1  0.56608668  0.88384278  0.22220763  1  0  -0.915395  0  1.893365  0  0  -0.850729  0  2.146783  0  0  -0.873836  0  2.125287  0  0  -0.422254  -0.834293  0  2.161123  0
O  O64  1  0.91790192  0.20602828  0.18238190  1  0  -0.892911  0  1.811274  0  0  -0.849396  0  1.985506  0  0  -0.865269  0  1.953576  0  0  -0.640436  -0.838124  0  2.007863  0
O  O65  1  0.41790534  0.29397051  0.31761769  1  0  -0.892895  0  1.811252  0  0  -0.849378  0  1.98554  0  0  -0.865244  0  1.953597  0  0  -0.640445  -0.838109  0  2.007897  0
O  O66  1  0.08209814  0.79397162  0.81761845  1  0  -0.892913  0  1.811259  0  0  -0.849404  0  1.985499  0  0  -0.865275  0  1.953563  0  0  -0.640433  -0.838136  0  2.007861  0
O  O67  1  0.58209767  0.70602803  0.68238412  1  0  -0.892966  0  1.811222  0  0  -0.849467  0  1.985463  0  0  -0.865336  0  1.953524  0  0  -0.640466  -0.838196  0  2.007821  0
