# generated using pymatgen
data_NdH16C8Cl3O2
_symmetry_space_group_name_H-M   'P 1'
_cell_length_a   8.16239066
_cell_length_b   8.58839373
_cell_length_c   9.73472468
_cell_angle_alpha   79.17317008
_cell_angle_beta   70.78716153
_cell_angle_gamma   82.31842261
_symmetry_Int_Tables_number   1
_chemical_formula_structural   NdH16C8Cl3O2
_chemical_formula_sum   'Nd2 H32 C16 Cl6 O4'
_cell_volume   631.03973779
_cell_formula_units_Z   2
loop_
 _symmetry_equiv_pos_site_id
 _symmetry_equiv_pos_as_xyz
  1  'x, y, z'
loop_
 _atom_site_type_symbol
 _atom_site_label
 _atom_site_symmetry_multiplicity
 _atom_site_fract_x
 _atom_site_fract_y
 _atom_site_fract_z
 _atom_site_occupancy
 _atom_site_hle17_bader_spin_density
 _atom_site_hle17_ddec_charge
 _atom_site_hle17_ddec_spin_density
 _atom_site_hle17_ddec_sum_bond_order
 _atom_site_hle17_magmom
 _atom_site_hse06_10hf_bader_spin_density
 _atom_site_hse06_10hf_ddec_charge
 _atom_site_hse06_10hf_ddec_spin_density
 _atom_site_hse06_10hf_ddec_sum_bond_order
 _atom_site_hse06_10hf_magmom
 _atom_site_hse06_bader_spin_density
 _atom_site_hse06_ddec_charge
 _atom_site_hse06_ddec_spin_density
 _atom_site_hse06_ddec_sum_bond_order
 _atom_site_hse06_magmom
 _atom_site_pbe_bader_spin_density
 _atom_site_pbe_cm5_charge
 _atom_site_pbe_ddec_charge
 _atom_site_pbe_ddec_spin_density
 _atom_site_pbe_ddec_sum_bond_order
 _atom_site_pbe_magmom
Nd  Nd0  1  0.99584768  0.23529108  0.07819638  1  0  2.007534  0  1.868439  0  0  1.849318  0  2.358246  0  0  1.905213  0  2.286155  0  0  1.055359  1.809426  0  2.408911  0
Nd  Nd1  1  0.00415143  0.76471161  0.92180631  1  0  2.007504  0  1.868488  0  0  1.849315  0  2.358247  0  0  1.905204  0  2.286163  0  0  1.055346  1.809411  0  2.408939  0
H  H2  1  0.23514566  0.16927995  0.76856258  1  0  0.04671  0  0.970526  0  0  0.057413  0  1.048144  0  0  0.057035  0  1.048893  0  0  0.104014  0.05766  0  1.047512  0
H  H3  1  0.76485204  0.83072395  0.23143620  1  0  0.046731  0  0.970551  0  0  0.057438  0  1.048192  0  0  0.05706  0  1.048938  0  0  0.104033  0.057685  0  1.047559  0
H  H4  1  0.43148787  0.07515147  0.79862269  1  0  0.059897  0  0.923762  0  0  0.075808  0  0.983843  0  0  0.076465  0  0.983356  0  0  0.100225  0.075274  0  0.984276  0
H  H5  1  0.56850624  0.92484887  0.20137870  1  0  0.059974  0  0.923844  0  0  0.075923  0  0.983887  0  0  0.07658  0  0.983402  0  0  0.100293  0.075387  0  0.984321  0
H  H6  1  0.37114168  0.41566056  0.64456360  1  0  0.083062  0  0.931767  0  0  0.100999  0  0.990083  0  0  0.102017  0  0.990522  0  0  0.094249  0.100175  0  0.9899  0
H  H7  1  0.62886140  0.58434096  0.35543407  1  0  0.083038  0  0.931758  0  0  0.100978  0  0.990089  0  0  0.101996  0  0.990527  0  0  0.094255  0.100154  0  0.989903  0
H  H8  1  0.54317422  0.27218534  0.57455661  1  0  0.083863  0  0.953027  0  0  0.101661  0  1.014699  0  0  0.102533  0  1.015008  0  0  0.091878  0.100757  0  1.014908  0
H  H9  1  0.45682528  0.72781261  0.42544366  1  0  0.083866  0  0.952995  0  0  0.101662  0  1.01468  0  0  0.102534  0  1.01499  0  0  0.091888  0.10076  0  1.014889  0
H  H10  1  0.58914377  0.49767841  0.72509810  1  0  0.085677  0  0.949289  0  0  0.102906  0  1.009242  0  0  0.10378  0  1.009713  0  0  0.088779  0.10224  0  1.008951  0
H  H11  1  0.41086081  0.50232074  0.27489851  1  0  0.085702  0  0.949307  0  0  0.102918  0  1.009253  0  0  0.103795  0  1.009726  0  0  0.088787  0.102254  0  1.008959  0
H  H12  1  0.68865936  0.30120577  0.74841715  1  0  0.079096  0  0.960847  0  0  0.09445  0  1.024819  0  0  0.09513  0  1.025649  0  0  0.080446  0.093869  0  1.024243  0
H  H13  1  0.31134153  0.69879100  0.25158293  1  0  0.079166  0  0.960811  0  0  0.094478  0  1.024807  0  0  0.095162  0  1.02564  0  0  0.080453  0.093897  0  1.024235  0
H  H14  1  0.51842305  0.27321944  0.99464630  1  0  0.059499  0  0.934781  0  0  0.069335  0  1.004237  0  0  0.070289  0  1.002941  0  0  0.095908  0.068375  0  1.005643  0
H  H15  1  0.48157596  0.72678446  0.00535315  1  0  0.059503  0  0.934805  0  0  0.069338  0  1.004265  0  0  0.07029  0  1.002968  0  0  0.095887  0.068376  0  1.005674  0
H  H16  1  0.38657778  0.45367841  0.96457826  1  0  0.053833  0  0.96981  0  0  0.063994  0  1.04249  0  0  0.064231  0  1.042705  0  0  0.097052  0.063694  0  1.042452  0
H  H17  1  0.61342370  0.54632669  0.03541722  1  0  0.053783  0  0.969862  0  0  0.063969  0  1.042535  0  0  0.064205  0  1.042749  0  0  0.097045  0.063671  0  1.042488  0
H  H18  1  0.86898965  0.16909880  0.52521502  1  0  0.055064  0  0.938362  0  0  0.069547  0  1.003717  0  0  0.06981  0  1.003515  0  0  0.099407  0.069317  0  1.003662  0
H  H19  1  0.13101394  0.83089676  0.47478553  1  0  0.055105  0  0.938347  0  0  0.069553  0  1.003718  0  0  0.069818  0  1.003514  0  0  0.099414  0.069325  0  1.003665  0
H  H20  1  0.88278960  0.35901226  0.41047789  1  0  0.056761  0  0.959959  0  0  0.067542  0  1.031637  0  0  0.068155  0  1.030855  0  0  0.097451  0.0669  0  1.032359  0
H  H21  1  0.11720741  0.64098450  0.58952533  1  0  0.056808  0  0.959927  0  0  0.067557  0  1.03161  0  0  0.06817  0  1.030829  0  0  0.097448  0.066906  0  1.032339  0
H  H22  1  0.04081159  0.29644744  0.62756635  1  0  0.091947  0  0.96493  0  0  0.108519  0  1.027605  0  0  0.109314  0  1.028193  0  0  0.087823  0.107884  0  1.027275  0
H  H23  1  0.95918941  0.70354813  0.37243492  1  0  0.091984  0  0.964932  0  0  0.10853  0  1.027599  0  0  0.109325  0  1.028187  0  0  0.087804  0.107894  0  1.027274  0
H  H24  1  0.14806803  0.40404331  0.45193010  1  0  0.078371  0  0.936158  0  0  0.098748  0  0.993309  0  0  0.099007  0  0.994735  0  0  0.093044  0.098333  0  0.992652  0
H  H25  1  0.85193417  0.59595344  0.54807167  1  0  0.078396  0  0.936148  0  0  0.098729  0  0.993329  0  0  0.098988  0  0.994754  0  0  0.093046  0.098314  0  0.992671  0
H  H26  1  0.19400218  0.04355622  0.55193293  1  0  0.077671  0  0.956979  0  0  0.089371  0  1.027611  0  0  0.090782  0  1.027451  0  0  0.091798  0.088422  0  1.027683  0
H  H27  1  0.80599621  0.95643936  0.44806701  1  0  0.077634  0  0.956994  0  0  0.089317  0  1.027664  0  0  0.090725  0  1.027509  0  0  0.091784  0.08837  0  1.02773  0
H  H28  1  0.36213601  0.17652656  0.47241857  1  0  0.091495  0  0.955199  0  0  0.112463  0  1.009574  0  0  0.11313  0  1.01048  0  0  0.091923  0.111803  0  1.009216  0
H  H29  1  0.63786369  0.82346902  0.52758204  1  0  0.091454  0  0.955196  0  0  0.112449  0  1.009563  0  0  0.113115  0  1.010468  0  0  0.091931  0.11179  0  1.009209  0
H  H30  1  0.32054600  0.22012243  0.23614039  1  0  0.055348  0  0.940794  0  0  0.067328  0  1.011465  0  0  0.068115  0  1.010713  0  0  0.098127  0.06646  0  1.012565  0
H  H31  1  0.67945330  0.77987789  0.76386058  1  0  0.055328  0  0.940799  0  0  0.06731  0  1.011461  0  0  0.068098  0  1.010709  0  0  0.098114  0.06644  0  1.012561  0
H  H32  1  0.27323365  0.01574082  0.29124905  1  0  0.062436  0  0.94434  0  0  0.077361  0  1.00941  0  0  0.077913  0  1.008487  0  0  0.099744  0.076861  0  1.010112  0
H  H33  1  0.72676565  0.98425951  0.70875089  1  0  0.062443  0  0.944309  0  0  0.077371  0  1.009373  0  0  0.07792  0  1.008453  0  0  0.099749  0.076871  0  1.010074  0
C  C34  1  0.35540940  0.19002410  0.78727435  1  0  0.097074  0  3.603939  0  0  0.039014  0  3.873538  0  0  0.046296  0  3.880493  0  0  -0.06698  0.034141  0  3.868468  0
C  C35  1  0.64458711  0.80997861  0.21272701  1  0  0.096951  0  3.604024  0  0  0.038817  0  3.873724  0  0  0.0461  0  3.880679  0  0  -0.067044  0.033948  0  3.868652  0
C  C36  1  0.45971451  0.31731858  0.67506428  1  0  -0.144444  0  3.670546  0  0  -0.182769  0  3.924394  0  0  -0.184785  0  3.937178  0  0  -0.167257  -0.181145  0  3.915661  0
C  C37  1  0.54028489  0.68268056  0.32493480  1  0  -0.144336  0  3.670476  0  0  -0.18267  0  3.924335  0  0  -0.184683  0  3.937125  0  0  -0.167241  -0.181045  0  3.915598  0
C  C38  1  0.56385902  0.37198035  0.76083898  1  0  -0.145087  0  3.63675  0  0  -0.182426  0  3.88886  0  0  -0.184548  0  3.901594  0  0  -0.172417  -0.180754  0  3.879903  0
C  C39  1  0.43614167  0.62801880  0.23915871  1  0  -0.14522  0  3.636864  0  0  -0.1825  0  3.888933  0  0  -0.184632  0  3.901662  0  0  -0.172455  -0.180834  0  3.879983  0
C  C40  1  0.44832558  0.34382339  0.92189034  1  0  0.110156  0  3.523458  0  0  0.05605  0  3.78539  0  0  0.063902  0  3.790443  0  0  -0.065909  0.050762  0  3.782069  0
C  C41  1  0.55167223  0.65617932  0.07810963  1  0  0.110184  0  3.523583  0  0  0.056054  0  3.785433  0  0  0.063918  0  3.790479  0  0  -0.065867  0.050766  0  3.782109  0
C  C42  1  0.95834398  0.25411336  0.44769100  1  0  0.106018  0  3.570326  0  0  0.047966  0  3.837164  0  0  0.05596  0  3.842579  0  0  -0.069781  0.042714  0  3.833094  0
C  C43  1  0.04165654  0.74588814  0.55231150  1  0  0.105919  0  3.570183  0  0  0.047955  0  3.83688  0  0  0.055945  0  3.842296  0  0  -0.069771  0.042707  0  3.832813  0
C  C44  1  0.09468366  0.29012762  0.50954851  1  0  -0.147371  0  3.66467  0  0  -0.187242  0  3.919134  0  0  -0.18932  0  3.932262  0  0  -0.170979  -0.185524  0  3.909996  0
C  C45  1  0.90531314  0.70987154  0.49045027  1  0  -0.14744  0  3.664562  0  0  -0.187215  0  3.918905  0  0  -0.189289  0  3.932027  0  0  -0.170939  -0.185493  0  3.909767  0
C  C46  1  0.23344254  0.15210850  0.47341613  1  0  -0.146274  0  3.663583  0  0  -0.183626  0  3.914932  0  0  -0.1859  0  3.927704  0  0  -0.170626  -0.181933  0  3.9061  0
C  C47  1  0.76655724  0.84788590  0.52658157  1  0  -0.146184  0  3.663628  0  0  -0.183617  0  3.915043  0  0  -0.185889  0  3.927813  0  0  -0.170692  -0.181927  0  3.906214  0
C  C48  1  0.23611375  0.13566865  0.32023910  1  0  0.098258  0  3.567031  0  0  0.038292  0  3.838959  0  0  0.046228  0  3.843972  0  0  -0.072733  0.033018  0  3.835788  0
C  C49  1  0.76388834  0.86432929  0.67976045  1  0  0.098293  0  3.566924  0  0  0.038343  0  3.838853  0  0  0.04628  0  3.843865  0  0  -0.0727  0.03307  0  3.835679  0
Cl  Cl50  1  0.93912614  0.47606041  0.85645268  1  0  -0.690621  0  0.961688  0  0  -0.645136  0  1.239228  0  0  -0.660814  0  1.216063  0  0  -0.312874  -0.633516  0  1.255821  0
Cl  Cl51  1  0.06087427  0.52394228  0.14355067  1  0  -0.690647  0  0.961734  0  0  -0.645123  0  1.23921  0  0  -0.660801  0  1.216044  0  0  -0.312865  -0.633502  0  1.25581  0
Cl  Cl52  1  0.67079041  0.24229055  0.25516603  1  0  -0.672924  0  0.773868  0  0  -0.630307  0  1.018543  0  0  -0.646235  0  0.998285  0  0  -0.356225  -0.618543  0  1.032912  0
Cl  Cl53  1  0.32920881  0.75771096  0.74483683  1  0  -0.672922  0  0.773904  0  0  -0.630308  0  1.018556  0  0  -0.646234  0  0.998301  0  0  -0.356225  -0.618539  0  1.032929  0
Cl  Cl54  1  0.87807020  0.08517195  0.89406968  1  0  -0.701521  0  0.948998  0  0  -0.656725  0  1.221468  0  0  -0.6725  0  1.197905  0  0  -0.31772  -0.645609  0  1.237685  0
Cl  Cl55  1  0.12193011  0.91483193  0.10593248  1  0  -0.701571  0  0.949033  0  0  -0.656764  0  1.221483  0  0  -0.67254  0  1.19792  0  0  -0.317729  -0.645645  0  1.237705  0
O  O56  1  0.30576413  0.25350366  0.92550849  1  0  -0.45058  0  2.307688  0  0  -0.365814  0  2.563301  0  0  -0.386461  0  2.563949  0  0  -0.312103  -0.351241  0  2.562571  0
O  O57  1  0.69423617  0.74650025  0.07448854  1  0  -0.450593  0  2.307648  0  0  -0.365823  0  2.563305  0  0  -0.386474  0  2.563949  0  0  -0.312142  -0.351245  0  2.562568  0
O  O58  1  0.05612676  0.17714270  0.31861541  1  0  -0.440902  0  2.294898  0  0  -0.354008  0  2.547657  0  0  -0.374712  0  2.54935  0  0  -0.311618  -0.339791  0  2.546206  0
O  O59  1  0.94387384  0.82285764  0.68138315  1  0  -0.440899  0  2.294945  0  0  -0.354014  0  2.547668  0  0  -0.374716  0  2.549359  0  0  -0.311609  -0.339793  0  2.54621  0
