# generated using pymatgen
data_CdH13C14N3O4
_symmetry_space_group_name_H-M   'P 1'
_cell_length_a   10.48707767
_cell_length_b   10.48705516
_cell_length_c   14.45662435
_cell_angle_alpha   90.00007228
_cell_angle_beta   89.99989780
_cell_angle_gamma   106.64476109
_symmetry_Int_Tables_number   1
_chemical_formula_structural   CdH13C14N3O4
_chemical_formula_sum   'Cd4 H52 C56 N12 O16'
_cell_volume   1523.29972068
_cell_formula_units_Z   4
loop_
 _symmetry_equiv_pos_site_id
 _symmetry_equiv_pos_as_xyz
  1  'x, y, z'
loop_
 _atom_site_type_symbol
 _atom_site_label
 _atom_site_symmetry_multiplicity
 _atom_site_fract_x
 _atom_site_fract_y
 _atom_site_fract_z
 _atom_site_occupancy
 _atom_site_hle17_bader_spin_density
 _atom_site_hle17_ddec_charge
 _atom_site_hle17_ddec_spin_density
 _atom_site_hle17_ddec_sum_bond_order
 _atom_site_hle17_magmom
 _atom_site_hse06_10hf_bader_spin_density
 _atom_site_hse06_10hf_ddec_charge
 _atom_site_hse06_10hf_ddec_spin_density
 _atom_site_hse06_10hf_ddec_sum_bond_order
 _atom_site_hse06_10hf_magmom
 _atom_site_hse06_bader_spin_density
 _atom_site_hse06_ddec_charge
 _atom_site_hse06_ddec_spin_density
 _atom_site_hse06_ddec_sum_bond_order
 _atom_site_hse06_magmom
 _atom_site_pbe_bader_spin_density
 _atom_site_pbe_cm5_charge
 _atom_site_pbe_ddec_charge
 _atom_site_pbe_ddec_spin_density
 _atom_site_pbe_ddec_sum_bond_order
 _atom_site_pbe_magmom
Cd  Cd0  1  0.42997397  0.57002728  0.39301843  1  0  1.108133  0  1.682539  0  0  0.910697  0  2.129459  0  0  0.970253  0  2.078481  0  0  0.770976  0.868159  0  2.163228  0
Cd  Cd1  1  0.07002693  0.92997176  0.89301936  1  0  1.108102  0  1.682554  0  0  0.910682  0  2.12947  0  0  0.970235  0  2.078494  0  0  0.770963  0.868144  0  2.16324  0
Cd  Cd2  1  0.92997313  0.07002738  0.10698015  1  0  1.10809  0  1.682543  0  0  0.910694  0  2.129466  0  0  0.970247  0  2.078491  0  0  0.770967  0.868161  0  2.163237  0
Cd  Cd3  1  0.57002636  0.42997286  0.60698039  1  0  1.108132  0  1.682515  0  0  0.910708  0  2.129413  0  0  0.970264  0  2.078434  0  0  0.770957  0.868166  0  2.163182  0
H  H4  1  0.81072514  0.18927583  0.51869396  1  0  0.288146  0  0.944616  0  0  0.267547  0  1.014163  0  0  0.276453  0  1.007438  0  0  0.296613  0.261255  0  1.018899  0
H  H5  1  0.68927453  0.31072431  0.01869424  1  0  0.28813  0  0.94462  0  0  0.267534  0  1.014171  0  0  0.27644  0  1.007446  0  0  0.29661  0.261242  0  1.018906  0
H  H6  1  0.31072484  0.68927582  0.98130596  1  0  0.288155  0  0.944613  0  0  0.267541  0  1.014165  0  0  0.276447  0  1.007439  0  0  0.29661  0.261248  0  1.018901  0
H  H7  1  0.18927547  0.81072531  0.48130624  1  0  0.288153  0  0.944635  0  0  0.267533  0  1.01419  0  0  0.27644  0  1.007464  0  0  0.296614  0.261241  0  1.018925  0
H  H8  1  0.27103291  0.25842141  0.32823840  1  0  0.067084  0  0.936218  0  0  0.078604  0  0.996824  0  0  0.080673  0  0.994517  0  0  0.113199  0.077067  0  0.998475  0
H  H9  1  0.22896757  0.24157755  0.82823965  1  0  0.067075  0  0.936294  0  0  0.078594  0  0.9969  0  0  0.080664  0  0.994594  0  0  0.113203  0.077057  0  0.998548  0
H  H10  1  0.24157828  0.22896852  0.17176135  1  0  0.067054  0  0.93625  0  0  0.078592  0  0.996841  0  0  0.080661  0  0.994535  0  0  0.113199  0.077055  0  0.998492  0
H  H11  1  0.25842050  0.27103323  0.67175982  1  0  0.067056  0  0.936278  0  0  0.078601  0  0.996863  0  0  0.080669  0  0.994557  0  0  0.113213  0.077063  0  0.998512  0
H  H12  1  0.72896714  0.74157773  0.67176111  1  0  0.067085  0  0.936227  0  0  0.078605  0  0.996832  0  0  0.080674  0  0.994526  0  0  0.113207  0.077068  0  0.998483  0
H  H13  1  0.77103181  0.75842259  0.17176125  1  0  0.067052  0  0.936281  0  0  0.078585  0  0.996877  0  0  0.080653  0  0.994571  0  0  0.113194  0.077048  0  0.998527  0
H  H14  1  0.75842301  0.77103163  0.82823816  1  0  0.067065  0  0.936285  0  0  0.078603  0  0.996876  0  0  0.080671  0  0.99457  0  0  0.11321  0.077065  0  0.998525  0
H  H15  1  0.74157860  0.72896591  0.32824038  1  0  0.067084  0  0.936253  0  0  0.078614  0  0.996854  0  0  0.080682  0  0.994549  0  0  0.11321  0.077077  0  0.998504  0
H  H16  1  0.05340840  0.09585007  0.34821408  1  0  0.127568  0  0.984762  0  0  0.135921  0  1.046835  0  0  0.139925  0  1.044746  0  0  0.108028  0.133075  0  1.048664  0
H  H17  1  0.44659136  0.40414990  0.84821382  1  0  0.127559  0  0.984726  0  0  0.135911  0  1.046817  0  0  0.139915  0  1.044727  0  0  0.108028  0.13306  0  1.048647  0
H  H18  1  0.40414932  0.44659267  0.15178641  1  0  0.127571  0  0.984733  0  0  0.135921  0  1.04682  0  0  0.139925  0  1.044731  0  0  0.108033  0.133071  0  1.04865  0
H  H19  1  0.09584950  0.05340906  0.65178490  1  0  0.127502  0  0.984772  0  0  0.135862  0  1.046854  0  0  0.139866  0  1.044766  0  0  0.108011  0.133019  0  1.048678  0
H  H20  1  0.94659098  0.90415006  0.65178612  1  0  0.127591  0  0.98472  0  0  0.13594  0  1.046805  0  0  0.139944  0  1.044716  0  0  0.10803  0.133096  0  1.048632  0
H  H21  1  0.55340802  0.59585024  0.15178569  1  0  0.127558  0  0.984729  0  0  0.135906  0  1.046822  0  0  0.13991  0  1.044732  0  0  0.108026  0.133055  0  1.048653  0
H  H22  1  0.59584882  0.55340647  0.84821310  1  0  0.127555  0  0.984779  0  0  0.135903  0  1.046869  0  0  0.139907  0  1.04478  0  0  0.108031  0.133052  0  1.0487  0
H  H23  1  0.90415055  0.94659009  0.34821530  1  0  0.127586  0  0.984688  0  0  0.135924  0  1.046789  0  0  0.139928  0  1.0447  0  0  0.108013  0.133049  0  1.048651  0
H  H24  1  0.63263508  0.03648654  0.54792282  1  0  0.114452  0  0.975215  0  0  0.123841  0  1.036272  0  0  0.127054  0  1.036044  0  0  0.108265  0.121499  0  1.036773  0
H  H25  1  0.86736549  0.46351364  0.04792370  1  0  0.11445  0  0.975217  0  0  0.123823  0  1.036288  0  0  0.127037  0  1.036061  0  0  0.108274  0.121481  0  1.03679  0
H  H26  1  0.46351539  0.86736629  0.95207644  1  0  0.114431  0  0.975242  0  0  0.123821  0  1.036297  0  0  0.127044  0  1.036058  0  0  0.108272  0.121478  0  1.036797  0
H  H27  1  0.03648594  0.63263481  0.45207606  1  0  0.114449  0  0.975239  0  0  0.12382  0  1.036313  0  0  0.127035  0  1.036084  0  0  0.108263  0.121477  0  1.036815  0
H  H28  1  0.36736553  0.96351460  0.45207669  1  0  0.114433  0  0.975253  0  0  0.123826  0  1.036305  0  0  0.127048  0  1.036067  0  0  0.108272  0.121485  0  1.036808  0
H  H29  1  0.13263484  0.53648650  0.95207650  1  0  0.114434  0  0.975212  0  0  0.123821  0  1.036273  0  0  0.127034  0  1.036046  0  0  0.108258  0.121479  0  1.036774  0
H  H30  1  0.53648495  0.13263385  0.04792307  1  0  0.114426  0  0.975255  0  0  0.123822  0  1.036298  0  0  0.127045  0  1.036061  0  0  0.108273  0.121481  0  1.0368  0
H  H31  1  0.96351399  0.36736732  0.54792206  1  0  0.114408  0  0.975269  0  0  0.12382  0  1.036303  0  0  0.127036  0  1.036073  0  0  0.108253  0.121478  0  1.036803  0
H  H32  1  0.47886195  0.81182114  0.51561213  1  0  0.077253  0  0.969291  0  0  0.084221  0  1.038145  0  0  0.086805  0  1.035327  0  0  0.111481  0.082323  0  1.04025  0
H  H33  1  0.02113840  0.68817946  0.01561321  1  0  0.077249  0  0.969284  0  0  0.084223  0  1.038135  0  0  0.086809  0  1.035314  0  0  0.111484  0.082325  0  1.040241  0
H  H34  1  0.68817939  0.02113988  0.98438774  1  0  0.077232  0  0.969292  0  0  0.084194  0  1.038159  0  0  0.086777  0  1.035344  0  0  0.111464  0.082298  0  1.040264  0
H  H35  1  0.81182024  0.47886080  0.48438732  1  0  0.077239  0  0.969293  0  0  0.084205  0  1.038147  0  0  0.086789  0  1.035327  0  0  0.111473  0.082306  0  1.040253  0
H  H36  1  0.52113934  0.18817901  0.48438738  1  0  0.077246  0  0.969276  0  0  0.084208  0  1.038135  0  0  0.086793  0  1.035316  0  0  0.111482  0.082311  0  1.040242  0
H  H37  1  0.97886097  0.31182068  0.98438768  1  0  0.077256  0  0.969287  0  0  0.084212  0  1.038159  0  0  0.086796  0  1.035341  0  0  0.111466  0.082315  0  1.040263  0
H  H38  1  0.31181971  0.97885926  0.01561246  1  0  0.077254  0  0.969299  0  0  0.084227  0  1.038137  0  0  0.08681  0  1.035319  0  0  0.111484  0.082329  0  1.040244  0
H  H39  1  0.18817969  0.52114133  0.51561080  1  0  0.077239  0  0.969296  0  0  0.0842  0  1.038161  0  0  0.086783  0  1.035344  0  0  0.111478  0.082301  0  1.040265  0
H  H40  1  0.22598076  0.91279803  0.31735997  1  0  0.096949  0  0.927911  0  0  0.1142  0  0.985401  0  0  0.11621  0  0.984808  0  0  0.099622  0.112758  0  0.985946  0
H  H41  1  0.27402030  0.58720093  0.81735895  1  0  0.096976  0  0.927909  0  0  0.114223  0  0.985402  0  0  0.116237  0  0.984809  0  0  0.099615  0.112779  0  0.985947  0
H  H42  1  0.58720289  0.27402078  0.18264059  1  0  0.096963  0  0.927922  0  0  0.114214  0  0.985412  0  0  0.116225  0  0.98482  0  0  0.099624  0.112772  0  0.985956  0
H  H43  1  0.91279768  0.22598055  0.68264020  1  0  0.09701  0  0.92788  0  0  0.114256  0  0.985374  0  0  0.116275  0  0.984785  0  0  0.09963  0.112813  0  0.985918  0
H  H44  1  0.77401957  0.08720212  0.68264092  1  0  0.096996  0  0.927906  0  0  0.114243  0  0.985397  0  0  0.116261  0  0.984808  0  0  0.09962  0.1128  0  0.985942  0
H  H45  1  0.72597975  0.41279821  0.18264056  1  0  0.096974  0  0.927902  0  0  0.114223  0  0.985394  0  0  0.116235  0  0.9848  0  0  0.09962  0.11278  0  0.985938  0
H  H46  1  0.41279840  0.72597937  0.81735892  1  0  0.096955  0  0.927925  0  0  0.114204  0  0.985415  0  0  0.116218  0  0.984824  0  0  0.099619  0.112761  0  0.985961  0
H  H47  1  0.08720294  0.77402059  0.31736000  1  0  0.096944  0  0.92792  0  0  0.114191  0  0.985416  0  0  0.116201  0  0.984822  0  0  0.099622  0.112748  0  0.98596  0
H  H48  1  0.13824232  0.72262659  0.15198316  1  0  0.106897  0  0.915877  0  0  0.125291  0  0.968705  0  0  0.12751  0  0.968143  0  0  0.103224  0.123631  0  0.969342  0
H  H49  1  0.36175706  0.77737515  0.65198358  1  0  0.106883  0  0.915865  0  0  0.12529  0  0.968676  0  0  0.127509  0  0.968112  0  0  0.103222  0.123627  0  0.969317  0
H  H50  1  0.77737484  0.36175654  0.34801521  1  0  0.106908  0  0.915865  0  0  0.125303  0  0.968691  0  0  0.12752  0  0.968128  0  0  0.103238  0.123641  0  0.96933  0
H  H51  1  0.72262644  0.13824201  0.84801707  1  0  0.106921  0  0.915835  0  0  0.125324  0  0.968646  0  0  0.127544  0  0.96808  0  0  0.103241  0.123661  0  0.969286  0
H  H52  1  0.86175801  0.27737355  0.84801704  1  0  0.106912  0  0.915844  0  0  0.125316  0  0.968653  0  0  0.127536  0  0.968087  0  0  0.103236  0.123653  0  0.969293  0
H  H53  1  0.63824327  0.22262500  0.34801593  1  0  0.106915  0  0.915845  0  0  0.12533  0  0.968648  0  0  0.127548  0  0.968083  0  0  0.103239  0.123669  0  0.969289  0
H  H54  1  0.22262549  0.63824361  0.65198430  1  0  0.106895  0  0.91585  0  0  0.125301  0  0.968661  0  0  0.12752  0  0.968097  0  0  0.103229  0.123637  0  0.969302  0
H  H55  1  0.27737361  0.86175714  0.15198313  1  0  0.10689  0  0.915877  0  0  0.125305  0  0.96868  0  0  0.127525  0  0.968116  0  0  0.103224  0.123642  0  0.969322  0
C  C56  1  0.19951392  0.27941235  0.37638870  1  0  0.150011  0  3.740681  0  0  0.117323  0  3.997381  0  0  0.127186  0  4.016188  0  0  0.045718  0.111257  0  3.983972  0
C  C57  1  0.30048673  0.22058766  0.87638984  1  0  0.149999  0  3.740691  0  0  0.117326  0  3.997414  0  0  0.127188  0  4.016222  0  0  0.04569  0.111262  0  3.983998  0
C  C58  1  0.22058728  0.30048749  0.12361046  1  0  0.149993  0  3.740646  0  0  0.117298  0  3.997376  0  0  0.12716  0  4.016187  0  0  0.04568  0.111233  0  3.983964  0
C  C59  1  0.27941105  0.19951222  0.62361022  1  0  0.150062  0  3.74063  0  0  0.11735  0  3.997353  0  0  0.127212  0  4.016165  0  0  0.045715  0.111286  0  3.98394  0
C  C60  1  0.80048641  0.72058779  0.62361081  1  0  0.150041  0  3.74067  0  0  0.11736  0  3.997368  0  0  0.127225  0  4.016172  0  0  0.045735  0.111294  0  3.983958  0
C  C61  1  0.69951293  0.77941347  0.12361037  1  0  0.149987  0  3.740683  0  0  0.117298  0  3.997409  0  0  0.127161  0  4.016217  0  0  0.045688  0.111233  0  3.983997  0
C  C62  1  0.77941086  0.69951165  0.87638905  1  0  0.150033  0  3.740665  0  0  0.117328  0  3.997384  0  0  0.12719  0  4.016194  0  0  0.045687  0.111264  0  3.98397  0
C  C63  1  0.72058805  0.80048692  0.37638998  1  0  0.14996  0  3.740676  0  0  0.11727  0  3.99739  0  0  0.127133  0  4.016199  0  0  0.04567  0.111208  0  3.983973  0
C  C64  1  0.07615692  0.18643504  0.38905006  1  0  -0.222472  0  3.668839  0  0  -0.240221  0  3.921657  0  0  -0.251167  0  3.940989  0  0  -0.095772  -0.233338  0  3.908734  0
C  C65  1  0.42384247  0.31356398  0.88905043  1  0  -0.222407  0  3.668775  0  0  -0.240179  0  3.921645  0  0  -0.251123  0  3.940974  0  0  -0.095766  -0.233294  0  3.908717  0
C  C66  1  0.31356402  0.42384375  0.11095051  1  0  -0.222409  0  3.668692  0  0  -0.24018  0  3.921554  0  0  -0.251124  0  3.940883  0  0  -0.095765  -0.233295  0  3.90863  0
C  C67  1  0.18643653  0.07615695  0.61095028  1  0  -0.222349  0  3.668748  0  0  -0.240132  0  3.921637  0  0  -0.251076  0  3.940965  0  0  -0.09574  -0.233255  0  3.908712  0
C  C68  1  0.92384245  0.81356509  0.61095015  1  0  -0.222491  0  3.668839  0  0  -0.240261  0  3.921681  0  0  -0.251209  0  3.941015  0  0  -0.095801  -0.233383  0  3.908752  0
C  C69  1  0.57615691  0.68643616  0.11095046  1  0  -0.222377  0  3.668745  0  0  -0.240145  0  3.921606  0  0  -0.251088  0  3.940933  0  0  -0.095743  -0.233261  0  3.908682  0
C  C70  1  0.68643536  0.57615638  0.88904969  1  0  -0.222441  0  3.668768  0  0  -0.240207  0  3.921625  0  0  -0.251154  0  3.940958  0  0  -0.095782  -0.233322  0  3.908695  0
C  C71  1  0.81356380  0.92384320  0.38904992  1  0  -0.222413  0  3.668758  0  0  -0.240167  0  3.921608  0  0  -0.251111  0  3.940937  0  0  -0.095741  -0.233264  0  3.908707  0
C  C72  1  0.98595312  0.21641578  0.45174393  1  0  0.314423  0  3.784446  0  0  0.299693  0  4.036177  0  0  0.315525  0  4.053242  0  0  0.123381  0.28976  0  4.024273  0
C  C73  1  0.51404659  0.28358487  0.95174480  1  0  0.314379  0  3.784415  0  0  0.29964  0  4.036195  0  0  0.315473  0  4.053261  0  0  0.12338  0.289707  0  4.024288  0
C  C74  1  0.28358580  0.51404785  0.04825544  1  0  0.314424  0  3.784389  0  0  0.299677  0  4.036117  0  0  0.31551  0  4.05318  0  0  0.123403  0.289743  0  4.024211  0
C  C75  1  0.21641353  0.98595277  0.54825485  1  0  0.314465  0  3.784414  0  0  0.299701  0  4.036153  0  0  0.315535  0  4.053217  0  0  0.123393  0.289768  0  4.02425  0
C  C76  1  0.01404654  0.78358536  0.54825558  1  0  0.314456  0  3.784486  0  0  0.299721  0  4.036167  0  0  0.315554  0  4.05323  0  0  0.123397  0.289787  0  4.024263  0
C  C77  1  0.48595375  0.71641528  0.04825609  1  0  0.314418  0  3.784392  0  0  0.299669  0  4.036124  0  0  0.315502  0  4.053189  0  0  0.123384  0.289736  0  4.024218  0
C  C78  1  0.71641358  0.48595228  0.95174476  1  0  0.314364  0  3.784363  0  0  0.299645  0  4.036109  0  0  0.315479  0  4.053172  0  0  0.123391  0.289712  0  4.024202  0
C  C79  1  0.78358680  0.01404737  0.45174466  1  0  0.314432  0  3.784414  0  0  0.299705  0  4.036147  0  0  0.315539  0  4.053208  0  0  0.123397  0.289771  0  4.024241  0
C  C80  1  0.66023583  0.97060706  0.49850228  1  0  -0.24803  0  3.731619  0  0  -0.262872  0  3.984568  0  0  -0.274878  0  4.005598  0  0  -0.102274  -0.255711  0  3.971047  0
C  C81  1  0.83976433  0.52939365  0.99850251  1  0  -0.247946  0  3.731665  0  0  -0.262763  0  3.984599  0  0  -0.274768  0  4.005632  0  0  -0.102241  -0.255603  0  3.971079  0
C  C82  1  0.52939347  0.83976570  0.00149762  1  0  -0.247974  0  3.731583  0  0  -0.262818  0  3.984529  0  0  -0.274831  0  4.005555  0  0  -0.102286  -0.255656  0  3.971007  0
C  C83  1  0.97060680  0.66023443  0.50149711  1  0  -0.248016  0  3.731645  0  0  -0.262852  0  3.98459  0  0  -0.27486  0  4.005621  0  0  -0.102277  -0.255694  0  3.97107  0
C  C84  1  0.33976450  0.02939308  0.50149723  1  0  -0.248008  0  3.731605  0  0  -0.262849  0  3.984547  0  0  -0.274862  0  4.005573  0  0  -0.102274  -0.255691  0  3.97103  0
C  C85  1  0.16023560  0.47060848  0.00149769  1  0  -0.247983  0  3.7316  0  0  -0.262825  0  3.98455  0  0  -0.274831  0  4.005581  0  0  -0.102284  -0.255664  0  3.971027  0
C  C86  1  0.47060686  0.16023444  0.99850258  1  0  -0.247962  0  3.7316  0  0  -0.262794  0  3.984533  0  0  -0.274807  0  4.00556  0  0  -0.102285  -0.255635  0  3.971015  0
C  C87  1  0.02939353  0.33976571  0.49850240  1  0  -0.247937  0  3.73163  0  0  -0.262796  0  3.984551  0  0  -0.274805  0  4.005582  0  0  -0.102256  -0.255636  0  3.971025  0
C  C88  1  0.57457258  0.84656110  0.48081212  1  0  0.133796  0  3.770279  0  0  0.101545  0  4.022598  0  0  0.110891  0  4.041406  0  0  0.031435  0.095642  0  4.009807  0
C  C89  1  0.92542543  0.65343858  0.98081304  1  0  0.13376  0  3.770333  0  0  0.101493  0  4.022651  0  0  0.110838  0  4.041459  0  0  0.031384  0.095589  0  4.009865  0
C  C90  1  0.65343949  0.92542937  0.01918774  1  0  0.133781  0  3.77025  0  0  0.101532  0  4.022585  0  0  0.110878  0  4.041396  0  0  0.031459  0.095629  0  4.009795  0
C  C91  1  0.84656007  0.57457178  0.51918731  1  0  0.133824  0  3.770283  0  0  0.101566  0  4.022613  0  0  0.110916  0  4.041419  0  0  0.031457  0.095662  0  4.009823  0
C  C92  1  0.42542708  0.15344004  0.51918739  1  0  0.133847  0  3.770223  0  0  0.10159  0  4.022542  0  0  0.110937  0  4.04135  0  0  0.031465  0.095685  0  4.009755  0
C  C93  1  0.07457203  0.34656154  0.01918855  1  0  0.133743  0  3.770259  0  0  0.101498  0  4.022593  0  0  0.110845  0  4.0414  0  0  0.031448  0.095594  0  4.009802  0
C  C94  1  0.34655988  0.07457077  0.98081246  1  0  0.133713  0  3.770341  0  0  0.101465  0  4.022667  0  0  0.110812  0  4.041478  0  0  0.031416  0.095561  0  4.00988  0
C  C95  1  0.15344027  0.42542836  0.48081151  1  0  0.133764  0  3.770307  0  0  0.101507  0  4.022632  0  0  0.110854  0  4.04144  0  0  0.031417  0.095605  0  4.009836  0
C  C96  1  0.27176029  0.72824070  0.32535066  1  0  0.673433  0  3.872522  0  0  0.629133  0  4.168815  0  0  0.662028  0  4.163739  0  0  0.190897  0.606859  0  4.171109  0
C  C97  1  0.22824170  0.77175828  0.82535263  1  0  0.67346  0  3.87254  0  0  0.629141  0  4.168849  0  0  0.662042  0  4.163769  0  0  0.190927  0.606869  0  4.171143  0
C  C98  1  0.77175863  0.22824186  0.17464688  1  0  0.673438  0  3.872514  0  0  0.62912  0  4.168831  0  0  0.662017  0  4.163753  0  0  0.190915  0.606849  0  4.171124  0
C  C99  1  0.72824032  0.27176044  0.67465093  1  0  0.673545  0  3.872324  0  0  0.629261  0  4.168601  0  0  0.662166  0  4.163525  0  0  0.190945  0.606987  0  4.170894  0
C  C100  1  0.18755781  0.81244344  0.28763794  1  0  -0.231035  0  3.714831  0  0  -0.271256  0  3.967779  0  0  -0.275551  0  3.975424  0  0  -0.169159  -0.268201  0  3.962317  0
C  C101  1  0.31244292  0.68755747  0.78763834  1  0  -0.231123  0  3.71488  0  0  -0.271347  0  3.967834  0  0  -0.275658  0  3.975498  0  0  -0.169169  -0.268294  0  3.962374  0
C  C102  1  0.68755742  0.31244268  0.21236117  1  0  -0.231129  0  3.714868  0  0  -0.271354  0  3.96783  0  0  -0.275656  0  3.975479  0  0  -0.169173  -0.268299  0  3.962368  0
C  C103  1  0.81244252  0.18755670  0.71236226  1  0  -0.231258  0  3.714876  0  0  -0.271502  0  3.967836  0  0  -0.275836  0  3.975529  0  0  -0.169205  -0.268448  0  3.962375  0
C  C104  1  0.17817913  0.82182171  0.18318964  1  0  -0.226783  0  3.68645  0  0  -0.264128  0  3.937041  0  0  -0.269198  0  3.944376  0  0  -0.162734  -0.260757  0  3.93207  0
C  C105  1  0.32182086  0.67817907  0.68319002  1  0  -0.226722  0  3.686401  0  0  -0.264055  0  3.936984  0  0  -0.26912  0  3.944322  0  0  -0.162695  -0.260684  0  3.93201  0
C  C106  1  0.67817919  0.32182007  0.31681018  1  0  -0.226765  0  3.686427  0  0  -0.264116  0  3.937063  0  0  -0.269179  0  3.944387  0  0  -0.162714  -0.260744  0  3.932092  0
C  C107  1  0.82182216  0.17817844  0.81681057  1  0  -0.22672  0  3.686385  0  0  -0.264051  0  3.93695  0  0  -0.26911  0  3.944292  0  0  -0.162679  -0.260679  0  3.931979  0
C  C108  1  0.09144638  0.90855348  0.15356594  1  0  0.680907  0  3.859927  0  0  0.634629  0  4.156687  0  0  0.668441  0  4.150993  0  0  0.19671  0.611695  0  4.159707  0
C  C109  1  0.40855272  0.59144726  0.65356613  1  0  0.680955  0  3.859968  0  0  0.634601  0  4.15681  0  0  0.668413  0  4.151115  0  0  0.196563  0.611664  0  4.159831  0
C  C110  1  0.59144829  0.40855189  0.34643407  1  0  0.680954  0  3.859958  0  0  0.634598  0  4.156813  0  0  0.668409  0  4.151115  0  0  0.196545  0.611661  0  4.159833  0
C  C111  1  0.90855300  0.09144665  0.84643426  1  0  0.680976  0  3.859929  0  0  0.634649  0  4.156735  0  0  0.668462  0  4.151036  0  0  0.196624  0.611714  0  4.159754  0
N  N112  1  0.23911140  0.39763637  0.41982141  1  0  -0.356763  0  3.268134  0  0  -0.27841  0  3.5348  0  0  -0.301503  0  3.554429  0  0  -0.345428  -0.262553  0  3.520411  0
N  N113  1  0.26088888  0.10236269  0.91982249  1  0  -0.356716  0  3.268128  0  0  -0.278396  0  3.534827  0  0  -0.301488  0  3.554458  0  0  -0.345412  -0.26254  0  3.52044  0
N  N114  1  0.10236336  0.26088934  0.08017852  1  0  -0.356722  0  3.268079  0  0  -0.278388  0  3.534763  0  0  -0.301483  0  3.5544  0  0  -0.345417  -0.262534  0  3.520378  0
N  N115  1  0.39763535  0.23911131  0.58017748  1  0  -0.356841  0  3.268033  0  0  -0.278493  0  3.534726  0  0  -0.301587  0  3.554357  0  0  -0.345488  -0.262638  0  3.520338  0
N  N116  1  0.76088893  0.60236377  0.58017741  1  0  -0.356789  0  3.268094  0  0  -0.278457  0  3.534785  0  0  -0.30155  0  3.554413  0  0  -0.345462  -0.262601  0  3.520397  0
N  N117  1  0.73911050  0.89763744  0.08017840  1  0  -0.356746  0  3.268091  0  0  -0.278418  0  3.534777  0  0  -0.30151  0  3.554411  0  0  -0.345435  -0.262563  0  3.520394  0
N  N118  1  0.89763602  0.73911080  0.91982237  1  0  -0.356779  0  3.268018  0  0  -0.278425  0  3.534703  0  0  -0.301518  0  3.554338  0  0  -0.345421  -0.26257  0  3.520319  0
N  N119  1  0.60236308  0.76088882  0.41982272  1  0  -0.35676  0  3.268093  0  0  -0.278425  0  3.534787  0  0  -0.30152  0  3.554421  0  0  -0.345424  -0.262569  0  3.520401  0
N  N120  1  0.85967031  0.14033055  0.47422571  1  0  -0.390158  0  3.36329  0  0  -0.329236  0  3.595181  0  0  -0.351682  0  3.605113  0  0  -0.389104  -0.314332  0  3.587785  0
N  N121  1  0.64032975  0.35966814  0.97422511  1  0  -0.390062  0  3.363183  0  0  -0.329156  0  3.595101  0  0  -0.351604  0  3.605036  0  0  -0.389085  -0.314252  0  3.587701  0
N  N122  1  0.35966935  0.64033101  0.02577509  1  0  -0.390177  0  3.363289  0  0  -0.329183  0  3.595114  0  0  -0.35163  0  3.605047  0  0  -0.389092  -0.314279  0  3.587715  0
N  N123  1  0.14033003  0.85966959  0.52577449  1  0  -0.39027  0  3.363422  0  0  -0.329253  0  3.595214  0  0  -0.351699  0  3.605144  0  0  -0.38913  -0.314351  0  3.587816  0
O  O124  1  0.33124596  0.66875316  0.27175371  1  0  -0.621677  0  1.924834  0  0  -0.562755  0  2.156497  0  0  -0.590603  0  2.149422  0  0  -0.330454  -0.542712  0  2.160099  0
O  O125  1  0.16875397  0.83124475  0.77175581  1  0  -0.62164  0  1.92486  0  0  -0.562722  0  2.156538  0  0  -0.590567  0  2.149455  0  0  -0.330446  -0.542682  0  2.160139  0
O  O126  1  0.83124581  0.16875341  0.22824439  1  0  -0.621601  0  1.924799  0  0  -0.562682  0  2.156469  0  0  -0.590528  0  2.149389  0  0  -0.330409  -0.542639  0  2.160072  0
O  O127  1  0.66875410  0.33124599  0.72824580  1  0  -0.621676  0  1.924881  0  0  -0.562761  0  2.156547  0  0  -0.590605  0  2.149469  0  0  -0.330432  -0.54272  0  2.160146  0
O  O128  1  0.27816766  0.72183235  0.41409267  1  0  -0.678607  0  1.986529  0  0  -0.61745  0  2.226334  0  0  -0.644996  0  2.21714  0  0  -0.337527  -0.597983  0  2.231945  0
O  O129  1  0.22183292  0.77816573  0.91409466  1  0  -0.678666  0  1.986538  0  0  -0.617486  0  2.226327  0  0  -0.645033  0  2.21713  0  0  -0.337558  -0.598014  0  2.23193  0
O  O130  1  0.77816686  0.22183242  0.08590555  1  0  -0.678682  0  1.986541  0  0  -0.617511  0  2.226342  0  0  -0.645053  0  2.217145  0  0  -0.337583  -0.598044  0  2.231958  0
O  O131  1  0.72183267  0.27816780  0.58590684  1  0  -0.678691  0  1.986343  0  0  -0.61755  0  2.226152  0  0  -0.645096  0  2.216948  0  0  -0.337592  -0.598083  0  2.231763  0
O  O132  1  0.03722518  0.96277483  0.21553067  1  0  -0.647192  0  1.943502  0  0  -0.582288  0  2.181705  0  0  -0.610076  0  2.17127  0  0  -0.332686  -0.56298  0  2.188274  0
O  O133  1  0.46277502  0.53722699  0.71553006  1  0  -0.647259  0  1.943626  0  0  -0.582282  0  2.18182  0  0  -0.610069  0  2.171387  0  0  -0.332622  -0.562977  0  2.188393  0
O  O134  1  0.53722531  0.46277315  0.28446945  1  0  -0.647241  0  1.943581  0  0  -0.58227  0  2.181783  0  0  -0.61006  0  2.171351  0  0  -0.332628  -0.562965  0  2.188355  0
O  O135  1  0.96277487  0.03722432  0.78446884  1  0  -0.64729  0  1.943558  0  0  -0.582314  0  2.181713  0  0  -0.610101  0  2.171277  0  0  -0.332669  -0.563006  0  2.188286  0
O  O136  1  0.07467357  0.92532553  0.06767800  1  0  -0.677475  0  2.059771  0  0  -0.613187  0  2.331982  0  0  -0.643559  0  2.321691  0  0  -0.335271  -0.591823  0  2.338351  0
O  O137  1  0.42532352  0.57467411  0.56767677  1  0  -0.677525  0  2.059756  0  0  -0.613172  0  2.331918  0  0  -0.643547  0  2.321625  0  0  -0.33521  -0.59181  0  2.338286  0
O  O138  1  0.57467653  0.42532504  0.43232274  1  0  -0.677556  0  2.059758  0  0  -0.613139  0  2.33182  0  0  -0.643512  0  2.321524  0  0  -0.335184  -0.591776  0  2.338187  0
O  O139  1  0.92532648  0.07467362  0.93232220  1  0  -0.677557  0  2.05983  0  0  -0.613178  0  2.331927  0  0  -0.643554  0  2.321634  0  0  -0.335245  -0.591816  0  2.338297  0
