# generated using pymatgen
data_HgH8C7N2Cl2O
_symmetry_space_group_name_H-M   'P 1'
_cell_length_a   7.39430105
_cell_length_b   11.32686762
_cell_length_c   12.21880733
_cell_angle_alpha   89.99896932
_cell_angle_beta   90.00194898
_cell_angle_gamma   99.62138479
_symmetry_Int_Tables_number   1
_chemical_formula_structural   HgH8C7N2Cl2O
_chemical_formula_sum   'Hg4 H32 C28 N8 Cl8 O4'
_cell_volume   1008.98217005
_cell_formula_units_Z   4
loop_
 _symmetry_equiv_pos_site_id
 _symmetry_equiv_pos_as_xyz
  1  'x, y, z'
loop_
 _atom_site_type_symbol
 _atom_site_label
 _atom_site_symmetry_multiplicity
 _atom_site_fract_x
 _atom_site_fract_y
 _atom_site_fract_z
 _atom_site_occupancy
 _atom_site_hle17_bader_spin_density
 _atom_site_hle17_ddec_charge
 _atom_site_hle17_ddec_spin_density
 _atom_site_hle17_ddec_sum_bond_order
 _atom_site_hle17_magmom
 _atom_site_hse06_10hf_bader_spin_density
 _atom_site_hse06_10hf_ddec_charge
 _atom_site_hse06_10hf_ddec_spin_density
 _atom_site_hse06_10hf_ddec_sum_bond_order
 _atom_site_hse06_10hf_magmom
 _atom_site_hse06_bader_spin_density
 _atom_site_hse06_ddec_charge
 _atom_site_hse06_ddec_spin_density
 _atom_site_hse06_ddec_sum_bond_order
 _atom_site_hse06_magmom
 _atom_site_pbe_bader_spin_density
 _atom_site_pbe_cm5_charge
 _atom_site_pbe_ddec_charge
 _atom_site_pbe_ddec_spin_density
 _atom_site_pbe_ddec_sum_bond_order
 _atom_site_pbe_magmom
Hg  Hg0  1  0.55434557  0.05145735  0.33324001  1  0  0.80341  0  2.071786  0  0  0.657403  0  2.574845  0  0  0.709284  0  2.534542  0  0  0.494346  0.621442  0  2.602429  0
Hg  Hg1  1  0.94564758  0.94854812  0.83324288  1  0  0.803378  0  2.07186  0  0  0.657402  0  2.57491  0  0  0.709275  0  2.534613  0  0  0.494323  0.621435  0  2.602492  0
Hg  Hg2  1  0.44563986  0.94855077  0.66675496  1  0  0.803404  0  2.071734  0  0  0.657431  0  2.574768  0  0  0.709304  0  2.534476  0  0  0.494338  0.621463  0  2.602346  0
Hg  Hg3  1  0.05436852  0.05145828  0.16676028  1  0  0.803388  0  2.071847  0  0  0.657381  0  2.574933  0  0  0.709258  0  2.534628  0  0  0.494356  0.621417  0  2.602524  0
H  H4  1  0.48313982  0.39902715  0.03018470  1  0  0.104108  0  0.977712  0  0  0.105414  0  1.058856  0  0  0.108419  0  1.054918  0  0  0.124738  0.103174  0  1.061691  0
H  H5  1  0.01687998  0.60097130  0.53019750  1  0  0.104018  0  0.977762  0  0  0.10542  0  1.058819  0  0  0.108423  0  1.054889  0  0  0.124755  0.103186  0  1.061648  0
H  H6  1  0.51687787  0.60097478  0.96981273  1  0  0.104012  0  0.97763  0  0  0.105319  0  1.058797  0  0  0.108331  0  1.054868  0  0  0.12471  0.10308  0  1.061631  0
H  H7  1  0.98311268  0.39902252  0.46981384  1  0  0.103995  0  0.977732  0  0  0.105349  0  1.058836  0  0  0.108362  0  1.054912  0  0  0.124685  0.103113  0  1.061661  0
H  H8  1  0.39957976  0.35329772  0.33647842  1  0  0.117018  0  0.972128  0  0  0.119936  0  1.041826  0  0  0.124662  0  1.038948  0  0  0.098399  0.116563  0  1.043873  0
H  H9  1  0.10037904  0.64668113  0.83650366  1  0  0.117023  0  0.97176  0  0  0.119977  0  1.041434  0  0  0.124657  0  1.038605  0  0  0.098381  0.116595  0  1.043497  0
H  H10  1  0.60038380  0.64669873  0.66350836  1  0  0.1171  0  0.972167  0  0  0.120044  0  1.04182  0  0  0.124759  0  1.038949  0  0  0.098409  0.116667  0  1.043871  0
H  H11  1  0.89963369  0.35332258  0.16349867  1  0  0.11715  0  0.972089  0  0  0.120083  0  1.041742  0  0  0.124772  0  1.0389  0  0  0.098448  0.116705  0  1.043804  0
H  H12  1  0.32572400  0.52019444  0.45442640  1  0  0.096706  0  0.954586  0  0  0.10353  0  1.019025  0  0  0.106951  0  1.016572  0  0  0.102658  0.100959  0  1.020943  0
H  H13  1  0.17422042  0.47974962  0.95443959  1  0  0.096663  0  0.954568  0  0  0.103544  0  1.018962  0  0  0.106967  0  1.016509  0  0  0.102648  0.100988  0  1.020862  0
H  H14  1  0.67426934  0.47979669  0.54557102  1  0  0.096688  0  0.95477  0  0  0.103532  0  1.019154  0  0  0.10698  0  1.01667  0  0  0.102692  0.100956  0  1.021079  0
H  H15  1  0.82579704  0.52024604  0.04556766  1  0  0.096663  0  0.954687  0  0  0.103548  0  1.019085  0  0  0.106968  0  1.016632  0  0  0.102645  0.101006  0  1.020974  0
H  H16  1  0.25104943  0.70546659  0.36200672  1  0  0.10328  0  0.9692  0  0  0.110643  0  1.034737  0  0  0.113962  0  1.0335  0  0  0.089587  0.10803  0  1.036247  0
H  H17  1  0.24891544  0.29450386  0.86200654  1  0  0.103397  0  0.969354  0  0  0.110696  0  1.034967  0  0  0.114036  0  1.033703  0  0  0.089664  0.108104  0  1.036424  0
H  H18  1  0.74897277  0.29454251  0.63799071  1  0  0.103116  0  0.969259  0  0  0.110475  0  1.034794  0  0  0.113834  0  1.033512  0  0  0.089518  0.107863  0  1.036302  0
H  H19  1  0.75106819  0.70549710  0.13799089  1  0  0.103374  0  0.969113  0  0  0.110673  0  1.034742  0  0  0.114011  0  1.033491  0  0  0.089613  0.108074  0  1.036217  0
H  H20  1  0.25310153  0.71537880  0.15941814  1  0  0.069583  0  0.948078  0  0  0.075141  0  1.017579  0  0  0.078251  0  1.014998  0  0  0.100422  0.07292  0  1.01953  0
H  H21  1  0.24692587  0.28463219  0.65941972  1  0  0.069575  0  0.948159  0  0  0.075156  0  1.01764  0  0  0.078222  0  1.015103  0  0  0.100462  0.072972  0  1.019556  0
H  H22  1  0.74691818  0.28464193  0.84058337  1  0  0.069703  0  0.948066  0  0  0.075245  0  1.01756  0  0  0.078312  0  1.015026  0  0  0.100468  0.073023  0  1.019511  0
H  H23  1  0.75308663  0.71536525  0.34057852  1  0  0.069571  0  0.948173  0  0  0.075164  0  1.017647  0  0  0.078249  0  1.015082  0  0  0.100467  0.072942  0  1.0196  0
H  H24  1  0.43452440  0.09997706  0.03486717  1  0  0.118918  0  0.941849  0  0  0.138  0  1.005437  0  0  0.139461  0  1.004263  0  0  0.099952  0.136894  0  1.006248  0
H  H25  1  0.06548549  0.90001861  0.53488747  1  0  0.118946  0  0.941554  0  0  0.137914  0  1.005296  0  0  0.139394  0  1.004099  0  0  0.099891  0.136784  0  1.006128  0
H  H26  1  0.56550276  0.90003025  0.96512371  1  0  0.119044  0  0.941675  0  0  0.138027  0  1.005356  0  0  0.139491  0  1.004176  0  0  0.099976  0.136924  0  1.006167  0
H  H27  1  0.93445440  0.09996973  0.46512060  1  0  0.118912  0  0.941719  0  0  0.137892  0  1.005421  0  0  0.139351  0  1.004251  0  0  0.099955  0.136791  0  1.006224  0
H  H28  1  0.55604530  0.23476571  0.97430189  1  0  0.121105  0  0.957892  0  0  0.140679  0  1.019091  0  0  0.141763  0  1.018881  0  0  0.108031  0.139859  0  1.019296  0
H  H29  1  0.94396173  0.76522620  0.47432228  1  0  0.121097  0  0.957793  0  0  0.140755  0  1.018909  0  0  0.141837  0  1.018707  0  0  0.108081  0.139937  0  1.01911  0
H  H30  1  0.44397622  0.76524070  0.02568572  1  0  0.121108  0  0.95802  0  0  0.140739  0  1.019118  0  0  0.14182  0  1.018915  0  0  0.108045  0.139917  0  1.019331  0
H  H31  1  0.05598787  0.23475232  0.52569806  1  0  0.120959  0  0.95805  0  0  0.140637  0  1.019113  0  0  0.141722  0  1.018906  0  0  0.108063  0.139814  0  1.019326  0
H  H32  1  0.65693267  0.16431277  0.08485583  1  0  0.123674  0  0.961636  0  0  0.140111  0  1.028834  0  0  0.141876  0  1.027799  0  0  0.097358  0.138562  0  1.030029  0
H  H33  1  0.84306610  0.83567826  0.58487399  1  0  0.123485  0  0.961649  0  0  0.139986  0  1.028838  0  0  0.141754  0  1.027796  0  0  0.097318  0.138411  0  1.030053  0
H  H34  1  0.34308321  0.83569810  0.91513587  1  0  0.123634  0  0.961735  0  0  0.140048  0  1.028969  0  0  0.141812  0  1.027937  0  0  0.097384  0.138501  0  1.030157  0
H  H35  1  0.15689839  0.16428954  0.41516109  1  0  0.123563  0  0.961712  0  0  0.140003  0  1.028949  0  0  0.141768  0  1.027919  0  0  0.09732  0.138455  0  1.030141  0
C  C36  1  0.43417122  0.36647141  0.11067759  1  0  -0.039864  0  3.525084  0  0  -0.097849  0  3.793767  0  0  -0.086639  0  3.799681  0  0  0.055639  -0.104703  0  3.789757  0
C  C37  1  0.06585005  0.63352055  0.61069496  1  0  -0.04008  0  3.524968  0  0  -0.098253  0  3.793862  0  0  -0.087047  0  3.79978  0  0  0.055489  -0.105118  0  3.789863  0
C  C38  1  0.56584444  0.63353320  0.88931166  1  0  -0.039764  0  3.525088  0  0  -0.097832  0  3.793798  0  0  -0.086627  0  3.799723  0  0  0.055674  -0.104699  0  3.789788  0
C  C39  1  0.93415253  0.36646971  0.38930902  1  0  -0.040045  0  3.524657  0  0  -0.098131  0  3.793443  0  0  -0.086934  0  3.799345  0  0  0.055584  -0.10499  0  3.789437  0
C  C40  1  0.37329062  0.45032556  0.18633339  1  0  0.200728  0  3.818776  0  0  0.213363  0  4.060298  0  0  0.216473  0  4.080314  0  0  0.106759  0.210929  0  4.046859  0
C  C41  1  0.12670098  0.54966082  0.68634770  1  0  0.201028  0  3.817872  0  0  0.213702  0  4.059386  0  0  0.21681  0  4.079395  0  0  0.106855  0.211274  0  4.04594  0
C  C42  1  0.62669775  0.54967810  0.81365176  1  0  0.200748  0  3.818721  0  0  0.213552  0  4.060019  0  0  0.216645  0  4.080054  0  0  0.106869  0.211137  0  4.046559  0
C  C43  1  0.87329281  0.45033211  0.31365136  1  0  0.200949  0  3.817925  0  0  0.213638  0  4.059359  0  0  0.21676  0  4.079359  0  0  0.106849  0.211204  0  4.045919  0
C  C44  1  0.36829192  0.43538609  0.30059503  1  0  -0.127292  0  3.666144  0  0  -0.152017  0  3.910953  0  0  -0.15599  0  3.930543  0  0  -0.082891  -0.14882  0  3.897323  0
C  C45  1  0.13170922  0.56459156  0.80062310  1  0  -0.127011  0  3.665687  0  0  -0.151735  0  3.910435  0  0  -0.155661  0  3.930056  0  0  -0.082624  -0.148542  0  3.896805  0
C  C46  1  0.63169261  0.56462383  0.69938603  1  0  -0.127442  0  3.66612  0  0  -0.152231  0  3.91088  0  0  -0.156187  0  3.930483  0  0  -0.082918  -0.149038  0  3.897245  0
C  C47  1  0.86832155  0.43539787  0.19938169  1  0  -0.127274  0  3.666355  0  0  -0.152002  0  3.911117  0  0  -0.155942  0  3.930724  0  0  -0.082779  -0.14881  0  3.897497  0
C  C48  1  0.32771675  0.52868451  0.36541194  1  0  -0.020097  0  3.733889  0  0  -0.030999  0  3.982691  0  0  -0.031126  0  4.002122  0  0  -0.07422  -0.030802  0  3.969168  0
C  C49  1  0.17223747  0.47127513  0.86540968  1  0  -0.020424  0  3.734715  0  0  -0.031392  0  3.983559  0  0  -0.031522  0  4.002987  0  0  -0.074401  -0.031207  0  3.970041  0
C  C50  1  0.67226147  0.47131644  0.63458221  1  0  -0.019927  0  3.734406  0  0  -0.03085  0  3.98319  0  0  -0.030996  0  4.002619  0  0  -0.074187  -0.03065  0  3.969676  0
C  C51  1  0.82778000  0.52870442  0.13457957  1  0  -0.020199  0  3.734025  0  0  -0.031199  0  3.982849  0  0  -0.031324  0  4.002272  0  0  -0.074325  -0.031031  0  3.969326  0
C  C52  1  0.28507709  0.63074482  0.31481733  1  0  -0.098538  0  3.708315  0  0  -0.119423  0  3.964539  0  0  -0.123172  0  3.985231  0  0  -0.087175  -0.116515  0  3.950668  0
C  C53  1  0.21491645  0.36923171  0.81481929  1  0  -0.098632  0  3.708454  0  0  -0.119506  0  3.964786  0  0  -0.123265  0  3.985441  0  0  -0.087313  -0.116602  0  3.950955  0
C  C54  1  0.71493315  0.36927051  0.68517928  1  0  -0.098433  0  3.708598  0  0  -0.119278  0  3.964782  0  0  -0.123061  0  3.985449  0  0  -0.087169  -0.11637  0  3.950913  0
C  C55  1  0.78510034  0.63076126  0.18518632  1  0  -0.098724  0  3.707817  0  0  -0.119569  0  3.964133  0  0  -0.123338  0  3.98481  0  0  -0.087267  -0.116659  0  3.950283  0
C  C56  1  0.28857309  0.63671616  0.20059094  1  0  0.124919  0  3.744934  0  0  0.097369  0  4.013027  0  0  0.102429  0  4.029786  0  0  0.040229  0.093855  0  4.001977  0
C  C57  1  0.21143661  0.36327989  0.70058638  1  0  0.124998  0  3.745222  0  0  0.097405  0  4.013368  0  0  0.102498  0  4.030135  0  0  0.040244  0.093858  0  4.002323  0
C  C58  1  0.71143647  0.36330186  0.79941057  1  0  0.124422  0  3.745096  0  0  0.096881  0  4.013195  0  0  0.101971  0  4.029964  0  0  0.039981  0.093368  0  4.002149  0
C  C59  1  0.78856101  0.63671215  0.29941513  1  0  0.12492  0  3.74526  0  0  0.097313  0  4.013371  0  0  0.102399  0  4.030137  0  0  0.040179  0.093799  0  4.002322  0
C  C60  1  0.52844663  0.18382332  0.05004406  1  0  -0.246142  0  3.59937  0  0  -0.346071  0  3.839933  0  0  -0.34462  0  3.847686  0  0  -0.146319  -0.346665  0  3.834798  0
C  C61  1  0.97155777  0.81617089  0.55006522  1  0  -0.245796  0  3.598963  0  0  -0.345743  0  3.839464  0  0  -0.344307  0  3.847194  0  0  -0.146175  -0.346294  0  3.834364  0
C  C62  1  0.47156993  0.81618487  0.94994846  1  0  -0.246171  0  3.599385  0  0  -0.346032  0  3.839967  0  0  -0.344576  0  3.847704  0  0  -0.146349  -0.346638  0  3.834831  0
C  C63  1  0.02839430  0.18381747  0.44994858  1  0  -0.245903  0  3.59994  0  0  -0.345762  0  3.840471  0  0  -0.344305  0  3.848204  0  0  -0.146229  -0.346357  0  3.835318  0
N  N64  1  0.44389329  0.25394463  0.13013797  1  0  0.311891  0  3.686755  0  0  0.369672  0  3.954375  0  0  0.369952  0  3.978166  0  0  -0.131102  0.368786  0  3.938086  0
N  N65  1  0.05610508  0.74604881  0.63015900  1  0  0.312064  0  3.686604  0  0  0.369898  0  3.954209  0  0  0.370181  0  3.978006  0  0  -0.13098  0.369017  0  3.937905  0
N  N66  1  0.55610680  0.74605727  0.86985127  1  0  0.311925  0  3.686744  0  0  0.369746  0  3.954329  0  0  0.370031  0  3.978124  0  0  -0.131116  0.368861  0  3.938039  0
N  N67  1  0.94389255  0.25393249  0.36985316  1  0  0.312121  0  3.687103  0  0  0.369887  0  3.95472  0  0  0.370184  0  3.97852  0  0  -0.131056  0.368999  0  3.938428  0
N  N68  1  0.33552442  0.55090323  0.13679705  1  0  -0.365527  0  3.071568  0  0  -0.325211  0  3.330315  0  0  -0.337616  0  3.347135  0  0  -0.316661  -0.316772  0  3.31908  0
N  N69  1  0.16451399  0.44909735  0.63679991  1  0  -0.365747  0  3.071561  0  0  -0.325437  0  3.33037  0  0  -0.337839  0  3.34717  0  0  -0.316803  -0.317002  0  3.319149  0
N  N70  1  0.66449619  0.44911570  0.86320692  1  0  -0.365182  0  3.071714  0  0  -0.324912  0  3.330388  0  0  -0.337307  0  3.347187  0  0  -0.316492  -0.316482  0  3.319155  0
N  N71  1  0.83549626  0.55090188  0.36321225  1  0  -0.365554  0  3.071188  0  0  -0.325264  0  3.329965  0  0  -0.337671  0  3.346765  0  0  -0.316697  -0.316825  0  3.318725  0
Cl  Cl72  1  0.50602197  0.16838962  0.48697203  1  0  -0.433513  0  1.066405  0  0  -0.36208  0  1.3519  0  0  -0.385073  0  1.334282  0  0  -0.228343  -0.346255  0  1.363943  0
Cl  Cl73  1  0.99397420  0.83162087  0.98698113  1  0  -0.433507  0  1.066466  0  0  -0.362069  0  1.351958  0  0  -0.385057  0  1.334335  0  0  -0.228354  -0.346249  0  1.363999  0
Cl  Cl74  1  0.49396143  0.83162118  0.51302212  1  0  -0.433496  0  1.066389  0  0  -0.362053  0  1.35185  0  0  -0.385043  0  1.33423  0  0  -0.228351  -0.346233  0  1.363885  0
Cl  Cl75  1  0.00603424  0.16838193  0.01302285  1  0  -0.433497  0  1.066473  0  0  -0.362046  0  1.35196  0  0  -0.385034  0  1.334337  0  0  -0.228333  -0.346223  0  1.364002  0
Cl  Cl76  1  0.64817992  0.92351636  0.20059559  1  0  -0.432318  0  1.117263  0  0  -0.365234  0  1.423079  0  0  -0.388417  0  1.404415  0  0  -0.224731  -0.349259  0  1.436154  0
Cl  Cl77  1  0.85181537  0.07648917  0.70059545  1  0  -0.432256  0  1.117356  0  0  -0.365182  0  1.42317  0  0  -0.388354  0  1.404488  0  0  -0.224692  -0.349212  0  1.436246  0
Cl  Cl78  1  0.35181431  0.07648910  0.79940184  1  0  -0.432278  0  1.117311  0  0  -0.365193  0  1.423117  0  0  -0.388375  0  1.404453  0  0  -0.224691  -0.349227  0  1.436195  0
Cl  Cl79  1  0.14818540  0.92352078  0.29941835  1  0  -0.432275  0  1.117308  0  0  -0.365191  0  1.423131  0  0  -0.388376  0  1.404472  0  0  -0.224697  -0.349212  0  1.436205  0
O  O80  1  0.38204518  0.19665784  0.21918741  1  0  -0.532026  0  1.856348  0  0  -0.472333  0  2.103677  0  0  -0.500786  0  2.104848  0  0  -0.226674  -0.452126  0  2.102527  0
O  O81  1  0.11794857  0.80332450  0.71921368  1  0  -0.532209  0  1.856358  0  0  -0.472577  0  2.103687  0  0  -0.501031  0  2.10486  0  0  -0.226794  -0.452371  0  2.102536  0
O  O82  1  0.61794950  0.80333867  0.78079856  1  0  -0.532187  0  1.856411  0  0  -0.472567  0  2.10376  0  0  -0.501038  0  2.104957  0  0  -0.226789  -0.452354  0  2.102601  0
O  O83  1  0.88206077  0.19667651  0.28079356  1  0  -0.532152  0  1.856555  0  0  -0.472504  0  2.103914  0  0  -0.500976  0  2.105096  0  0  -0.22676  -0.4523  0  2.102767  0
