# generated using pymatgen
data_YH3(C3O2)3
_symmetry_space_group_name_H-M   'P 1'
_cell_length_a   10.32802349
_cell_length_b   10.32805689
_cell_length_c   14.17579880
_cell_angle_alpha   90.00001520
_cell_angle_beta   90.00016317
_cell_angle_gamma   89.99893290
_symmetry_Int_Tables_number   1
_chemical_formula_structural   YH3(C3O2)3
_chemical_formula_sum   'Y4 H12 C36 O24'
_cell_volume   1512.10997584
_cell_formula_units_Z   4
loop_
 _symmetry_equiv_pos_site_id
 _symmetry_equiv_pos_as_xyz
  1  'x, y, z'
loop_
 _atom_site_type_symbol
 _atom_site_label
 _atom_site_symmetry_multiplicity
 _atom_site_fract_x
 _atom_site_fract_y
 _atom_site_fract_z
 _atom_site_occupancy
 _atom_site_pbe_bader_charge
 _atom_site_pbe_bader_spin_density
 _atom_site_pbe_cm5_charge
 _atom_site_pbe_ddec_charge
 _atom_site_pbe_ddec_spin_density
 _atom_site_pbe_ddec_sum_bond_order
 _atom_site_pbe_magmom
Y  Y0  1  0.62980562  0.62980686  0.87500114  1  2.305934  0  1.365925  1.860713  0  2.3963  0
Y  Y1  1  0.37019494  0.37019210  0.37500080  1  2.305943  0  1.365922  1.860703  0  2.396262  0
Y  Y2  1  0.37018719  0.62981205  0.12499939  1  2.305917  0  1.365905  1.860678  0  2.396223  0
Y  Y3  1  0.62981142  0.37018586  0.62500038  1  2.305921  0  1.365882  1.860632  0  2.396279  0
H  H4  1  0.96489389  0.57613620  0.10833075  1  0.140632  0  0.119995  0.126195  0  0.989968  0
H  H5  1  0.03510368  0.42386364  0.60832700  1  0.140559  0  0.119984  0.126182  0  0.989991  0
H  H6  1  0.42386760  0.96489592  0.35833307  1  0.140348  0  0.119998  0.126227  0  0.989968  0
H  H7  1  0.57613386  0.03510207  0.85833106  1  0.140264  0  0.119992  0.126229  0  0.989958  0
H  H8  1  0.03510282  0.57613435  0.89166413  1  0.140396  0  0.120035  0.126253  0  0.98997  0
H  H9  1  0.96489877  0.42387140  0.39167138  1  0.140306  0  0.119999  0.126203  0  0.990001  0
H  H10  1  0.57614027  0.96489358  0.64166893  1  0.140677  0  0.119989  0.126179  0  0.989977  0
H  H11  1  0.42386324  0.03510627  0.14166935  1  0.14063  0  0.119986  0.126183  0  0.989982  0
H  H12  1  0.60433993  0.49999651  0.25000069  1  0.089204  0  0.115857  0.096332  0  1.064709  0
H  H13  1  0.39566014  0.50000145  0.74999770  1  0.089211  0  0.115858  0.096327  0  1.064721  0
H  H14  1  0.49999809  0.60433854  0.49999920  1  0.089189  0  0.115854  0.09634  0  1.064713  0
H  H15  1  0.49999905  0.39565931  0.00000126  1  0.089219  0  0.115849  0.096321  0  1.064742  0
C  C16  1  0.77651754  0.54153319  0.16990591  1  -0.076609  0  -0.013056  -0.050442  0  3.981625  0
C  C17  1  0.91200037  0.54286423  0.17025242  1  0.020871  0  -0.053967  -0.06967  0  3.879621  0
C  C18  1  0.70126156  0.58067677  0.08489476  1  1.564553  0  0.242569  0.644201  0  4.143678  0
C  C19  1  0.22348028  0.45846666  0.66990397  1  -0.076635  0  -0.013139  -0.050475  0  3.981889  0
C  C20  1  0.08799744  0.45713854  0.67024808  1  0.02082  0  -0.053876  -0.069648  0  3.87961  0
C  C21  1  0.29873592  0.41931918  0.58489437  1  1.564544  0  0.242689  0.644198  0  4.14376  0
C  C22  1  0.45846370  0.77652135  0.41990634  1  -0.076873  0  -0.01308  -0.050276  0  3.981676  0
C  C23  1  0.45714176  0.91200280  0.42025201  1  0.021222  0  -0.053977  -0.069836  0  3.879576  0
C  C24  1  0.41931541  0.70126941  0.33489450  1  1.564739  0  0.242706  0.644258  0  4.143904  0
C  C25  1  0.54153704  0.22347666  0.91990571  1  -0.07668  0  -0.013032  -0.050276  0  3.981806  0
C  C26  1  0.54285801  0.08799521  0.92025135  1  0.021214  0  -0.053973  -0.069847  0  3.879631  0
C  C27  1  0.58068499  0.29873148  0.83489679  1  1.564535  0  0.2427  0.644353  0  4.143728  0
C  C28  1  0.22347788  0.54153750  0.83009178  1  -0.076835  0  -0.013048  -0.050323  0  3.981829  0
C  C29  1  0.08799502  0.54286040  0.82974457  1  0.021246  0  -0.054028  -0.06986  0  3.879787  0
C  C30  1  0.29873022  0.58068648  0.91510294  1  1.564725  0  0.242645  0.644299  0  4.143826  0
C  C31  1  0.77652444  0.45846629  0.33009582  1  -0.076711  0  -0.013048  -0.050215  0  3.981544  0
C  C32  1  0.91200632  0.45714532  0.32974960  1  0.0212  0  -0.053963  -0.069845  0  3.879597  0
C  C33  1  0.70127243  0.41931540  0.41510612  1  1.564611  0  0.242648  0.644259  0  4.143888  0
C  C34  1  0.54153025  0.77651674  0.58009563  1  -0.076629  0  -0.013042  -0.050503  0  3.981755  0
C  C35  1  0.54286419  0.91199913  0.57974857  1  0.020926  0  -0.053964  -0.06964  0  3.879618  0
C  C36  1  0.58067607  0.70125925  0.66510534  1  1.564534  0  0.242638  0.644355  0  4.1437  0
C  C37  1  0.45846818  0.22348115  0.08009475  1  -0.076661  0  -0.013021  -0.050411  0  3.981814  0
C  C38  1  0.45713714  0.08799876  0.07974837  1  0.020851  0  -0.053984  -0.069703  0  3.879638  0
C  C39  1  0.41932173  0.29873770  0.16510509  1  1.564541  0  0.242642  0.644324  0  4.143679  0
C  C40  1  0.70962145  0.49999940  0.25000221  1  0.019899  0  -0.060905  -0.078424  0  3.908299  0
C  C41  1  0.97940008  0.50000850  0.25000108  1  -0.041284  0  -0.007979  -0.045951  0  3.963755  0
C  C42  1  0.12442235  0.50001163  0.25000161  1  1.622537  0  0.250263  0.66189  0  4.121081  0
C  C43  1  0.29037765  0.50000339  0.74999829  1  0.019883  0  -0.060854  -0.078336  0  3.90846  0
C  C44  1  0.02059999  0.49999719  0.74999661  1  -0.041277  0  -0.007971  -0.045938  0  3.963781  0
C  C45  1  0.87557771  0.49999407  0.74999960  1  1.622589  0  0.250166  0.66185  0  4.121157  0
C  C46  1  0.49999324  0.70962069  0.49999992  1  0.019897  0  -0.060913  -0.0784  0  3.908387  0
C  C47  1  0.50000719  0.97939651  0.50000065  1  -0.041358  0  -0.007905  -0.04593  0  3.96364  0
C  C48  1  0.50000740  0.12441865  0.50000057  1  1.622555  0  0.25016  0.661886  0  4.1213  0
C  C49  1  0.50000294  0.29037717  0.00000054  1  0.019919  0  -0.060904  -0.078412  0  3.90853  0
C  C50  1  0.49999483  0.02060057  0.99999919  1  -0.041282  0  -0.007927  -0.045892  0  3.963679  0
C  C51  1  0.49998977  0.87557940  0.99999998  1  1.622516  0  0.250187  0.661812  0  4.121229  0
O  O52  1  0.75847362  0.59049898  0.00565061  1  -1.20184  0  -0.362909  -0.601155  0  2.173868  0
O  O53  1  0.57978414  0.59992935  0.09405250  1  -1.240671  0  -0.389092  -0.670625  0  2.386076  0
O  O54  1  0.18060339  0.41646006  0.30184283  1  -1.205346  0  -0.375051  -0.625724  0  2.245659  0
O  O55  1  0.24152549  0.40949985  0.50565010  1  -1.201888  0  -0.362905  -0.601072  0  2.173869  0
O  O56  1  0.42021241  0.40006371  0.59405377  1  -1.24065  0  -0.389173  -0.670652  0  2.386102  0
O  O57  1  0.81939688  0.58354081  0.80184354  1  -1.205377  0  -0.375032  -0.625735  0  2.245727  0
O  O58  1  0.40948999  0.75847385  0.25565099  1  -1.20194  0  -0.362934  -0.601133  0  2.174053  0
O  O59  1  0.40007376  0.57979175  0.34406009  1  -1.24019  0  -0.38919  -0.670721  0  2.386172  0
O  O60  1  0.58355830  0.18059205  0.55184183  1  -1.205117  0  -0.375083  -0.625792  0  2.245661  0
O  O61  1  0.59051010  0.24152797  0.75565188  1  -1.201877  0  -0.362951  -0.601198  0  2.173954  0
O  O62  1  0.59992764  0.42020914  0.84406315  1  -1.240213  0  -0.389227  -0.670777  0  2.386106  0
O  O63  1  0.41644195  0.81940680  0.05184168  1  -1.205122  0  -0.375114  -0.625791  0  2.245657  0
O  O64  1  0.24152670  0.59050785  0.99434709  1  -1.201875  0  -0.362909  -0.601134  0  2.174049  0
O  O65  1  0.42020922  0.59993195  0.90593603  1  -1.240243  0  -0.389225  -0.670782  0  2.386071  0
O  O66  1  0.81940404  0.41644547  0.69815837  1  -1.205168  0  -0.375138  -0.625822  0  2.245604  0
O  O67  1  0.75847820  0.40949019  0.49435039  1  -1.201994  0  -0.362834  -0.601042  0  2.173962  0
O  O68  1  0.57979436  0.40006896  0.40594037  1  -1.240155  0  -0.389232  -0.670796  0  2.386212  0
O  O69  1  0.18059582  0.58356117  0.19816191  1  -1.205134  0  -0.375175  -0.625857  0  2.24562  0
O  O70  1  0.59049945  0.75847032  0.74435027  1  -1.201811  0  -0.362987  -0.601255  0  2.173854  0
O  O71  1  0.59992869  0.57978414  0.65594396  1  -1.240712  0  -0.389108  -0.670658  0  2.386086  0
O  O72  1  0.41645739  0.18059939  0.44816002  1  -1.205314  0  -0.37505  -0.625768  0  2.245752  0
O  O73  1  0.40950059  0.24152666  0.24434858  1  -1.201836  0  -0.362969  -0.601236  0  2.173931  0
O  O74  1  0.40006520  0.42021378  0.15594581  1  -1.240674  0  -0.389124  -0.670667  0  2.386035  0
O  O75  1  0.58354055  0.81939766  0.94815748  1  -1.205298  0  -0.375076  -0.625737  0  2.245683  0
