# generated using pymatgen
data_Ag3H17C24(NO2)4
_symmetry_space_group_name_H-M   'P 1'
_cell_length_a   7.37510120
_cell_length_b   8.17651435
_cell_length_c   19.58600000
_cell_angle_alpha   90.00000000
_cell_angle_beta   90.00000000
_cell_angle_gamma   92.78240384
_symmetry_Int_Tables_number   1
_chemical_formula_structural   Ag3H17C24(NO2)4
_chemical_formula_sum   'Ag6 H34 C48 N8 O16'
_cell_volume   1179.69473826
_cell_formula_units_Z   2
loop_
 _symmetry_equiv_pos_site_id
 _symmetry_equiv_pos_as_xyz
  1  'x, y, z'
loop_
 _atom_site_type_symbol
 _atom_site_label
 _atom_site_symmetry_multiplicity
 _atom_site_fract_x
 _atom_site_fract_y
 _atom_site_fract_z
 _atom_site_occupancy
 _atom_site_hle17_bader_spin_density
 _atom_site_hle17_ddec_charge
 _atom_site_hle17_ddec_spin_density
 _atom_site_hle17_ddec_sum_bond_order
 _atom_site_hle17_magmom
 _atom_site_hse06_10hf_bader_spin_density
 _atom_site_hse06_10hf_ddec_charge
 _atom_site_hse06_10hf_ddec_spin_density
 _atom_site_hse06_10hf_ddec_sum_bond_order
 _atom_site_hse06_10hf_magmom
 _atom_site_hse06_bader_spin_density
 _atom_site_hse06_ddec_charge
 _atom_site_hse06_ddec_spin_density
 _atom_site_hse06_ddec_sum_bond_order
 _atom_site_hse06_magmom
 _atom_site_pbe_bader_charge
 _atom_site_pbe_bader_spin_density
 _atom_site_pbe_cm5_charge
 _atom_site_pbe_ddec_charge
 _atom_site_pbe_ddec_spin_density
 _atom_site_pbe_ddec_sum_bond_order
 _atom_site_pbe_magmom
Ag  Ag0  1  0.99999848  0.00000000  0.00000051  1  0  0.53351  0  1.390707  0  0  0.385375  0  1.812213  0  0  0.415296  0  1.769921  0  0.572874  0  0.494871  0.365122  0  1.841016  0
Ag  Ag1  1  0.50000155  0.99999816  0.50000051  1  0  0.533478  0  1.390754  0  0  0.385345  0  1.812262  0  0  0.415265  0  1.769972  0  0.572882  0  0.494854  0.365095  0  1.841059  0
Ag  Ag2  1  0.22377147  0.64252728  0.76712805  1  0  0.571243  0  1.363055  0  0  0.431677  0  1.795991  0  0  0.464476  0  1.748466  0  0.582102  0  0.453351  0.408971  0  1.828808  0
Ag  Ag3  1  0.27622743  0.35747211  0.26712856  1  0  0.571266  0  1.363069  0  0  0.431695  0  1.79601  0  0  0.464493  0  1.748484  0  0.582148  0  0.453347  0.408984  0  1.82884  0
Ag  Ag4  1  0.77622741  0.35747333  0.23287042  1  0  0.571279  0  1.363059  0  0  0.431708  0  1.796002  0  0  0.464506  0  1.748474  0  0.582149  0  0.453341  0.409003  0  1.828818  0
Ag  Ag5  1  0.72377133  0.64252606  0.73287093  1  0  0.571257  0  1.363068  0  0  0.431692  0  1.796018  0  0  0.464489  0  1.748491  0  0.582151  0  0.453348  0.408981  0  1.828847  0
H  H6  1  0.37327330  0.74771684  0.07133310  1  0  0.106402  0  0.96469  0  0  0.115934  0  1.029963  0  0  0.118449  0  1.029946  0  0.096808  0  0.108304  0.114109  0  1.030164  0
H  H7  1  0.12672703  0.25228377  0.57133258  1  0  0.106389  0  0.964669  0  0  0.115915  0  1.029953  0  0  0.11843  0  1.029937  0  0.096831  0  0.108295  0.114091  0  1.030153  0
H  H8  1  0.62672559  0.25228377  0.92866690  1  0  0.106396  0  0.964687  0  0  0.115927  0  1.029972  0  0  0.118442  0  1.029955  0  0.096821  0  0.108299  0.114107  0  1.030153  0
H  H9  1  0.87327348  0.74772174  0.42866742  1  0  0.106409  0  0.964709  0  0  0.115928  0  1.029983  0  0  0.118443  0  1.029966  0  0.096731  0  0.108313  0.114104  0  1.030178  0
H  H10  1  0.00002052  0.50001255  0.00000000  1  0  0.396366  0  0.903939  0  0  0.36242  0  0.98599  0  0  0.377331  0  0.971484  0  0.638456  0  0.284891  0.352039  0  0.995571  0
H  H11  1  0.49998813  0.49999174  0.50000000  1  0  0.39631  0  0.903924  0  0  0.362364  0  0.985983  0  0  0.377274  0  0.971549  0  0.638457  0  0.284886  0.351983  0  0.995562  0
H  H12  1  0.79887849  0.83000536  0.88002604  1  0  0.084296  0  0.956249  0  0  0.09223  0  1.022507  0  0  0.094697  0  1.020105  0  0.109146  0  0.115206  0.090315  0  1.024466  0
H  H13  1  0.70111896  0.16999526  0.38002502  1  0  0.084307  0  0.956199  0  0  0.092236  0  1.022466  0  0  0.094703  0  1.020063  0  0.10913  0  0.115195  0.09032  0  1.024426  0
H  H14  1  0.20112027  0.16999281  0.11997498  1  0  0.084303  0  0.956218  0  0  0.092233  0  1.022477  0  0  0.094701  0  1.020073  0  0.10928  0  0.11519  0.090318  0  1.024437  0
H  H15  1  0.29888121  0.83000413  0.61997549  1  0  0.084274  0  0.956223  0  0  0.0922  0  1.022498  0  0  0.094667  0  1.020095  0  0.109113  0  0.115178  0.090284  0  1.024457  0
H  H16  1  0.67514468  0.90732869  0.08291075  1  0  0.089016  0  0.977967  0  0  0.097052  0  1.043445  0  0  0.099617  0  1.041632  0  0.13214  0  0.114587  0.095113  0  1.04487  0
H  H17  1  0.82485677  0.09267070  0.58291024  1  0  0.088992  0  0.977997  0  0  0.09701  0  1.043486  0  0  0.099592  0  1.041654  0  0.13214  0  0.114579  0.095073  0  1.04491  0
H  H18  1  0.32485408  0.09266947  0.91708925  1  0  0.088998  0  0.978074  0  0  0.09704  0  1.043534  0  0  0.0996  0  1.041728  0  0.132081  0  0.114577  0.095102  0  1.044958  0
H  H19  1  0.17514631  0.90733236  0.41708976  1  0  0.088995  0  0.978045  0  0  0.09703  0  1.043514  0  0  0.099593  0  1.041703  0  0.132103  0  0.114577  0.095092  0  1.044939  0
H  H20  1  0.50270691  0.67353425  0.85968141  1  0  0.091661  0  0.991231  0  0  0.095155  0  1.074999  0  0  0.100421  0  1.068618  0  0.094823  0  0.097627  0.091217  0  1.079907  0
H  H21  1  0.99728945  0.32647126  0.35968141  1  0  0.091711  0  0.991247  0  0  0.095235  0  1.074994  0  0  0.100505  0  1.068605  0  0.094736  0  0.097644  0.091293  0  1.079909  0
H  H22  1  0.49729327  0.32646514  0.14031859  1  0  0.091646  0  0.991253  0  0  0.095146  0  1.075012  0  0  0.100412  0  1.068631  0  0.094814  0  0.097619  0.091209  0  1.07992  0
H  H23  1  0.00270944  0.67352935  0.64031808  1  0  0.09169  0  0.99129  0  0  0.09523  0  1.075031  0  0  0.100501  0  1.06864  0  0.094746  0  0.097646  0.091287  0  1.079948  0
H  H24  1  0.86232683  0.35266611  0.65469927  1  0  0.087979  0  0.981659  0  0  0.096402  0  1.046977  0  0  0.098587  0  1.045879  0  0.154255  0  0.113235  0.094845  0  1.047767  0
H  H25  1  0.63767197  0.64733451  0.15469927  1  0  0.087984  0  0.981671  0  0  0.096403  0  1.046989  0  0  0.098584  0  1.045903  0  0.154256  0  0.113235  0.094846  0  1.047779  0
H  H26  1  0.13767069  0.64733451  0.34530073  1  0  0.088003  0  0.981648  0  0  0.096421  0  1.046969  0  0  0.098599  0  1.045888  0  0.154256  0  0.113244  0.094863  0  1.04776  0
H  H27  1  0.36232821  0.35266488  0.84530073  1  0  0.08799  0  0.981677  0  0  0.096407  0  1.047  0  0  0.098589  0  1.045911  0  0.154256  0  0.113237  0.09485  0  1.04779  0
H  H28  1  0.83818144  0.46396327  0.86112070  1  0  0.085551  0  0.944247  0  0  0.094719  0  1.009261  0  0  0.097248  0  1.006501  0  0.11398  0  0.116336  0.092831  0  1.011373  0
H  H29  1  0.66181730  0.53603612  0.36112070  1  0  0.085539  0  0.944229  0  0  0.094702  0  1.009254  0  0  0.097231  0  1.006495  0  0.113984  0  0.11633  0.092814  0  1.011366  0
H  H30  1  0.16181731  0.53603490  0.13887930  1  0  0.085561  0  0.944266  0  0  0.094723  0  1.009282  0  0  0.097252  0  1.006523  0  0.113969  0  0.116337  0.092835  0  1.011393  0
H  H31  1  0.33818287  0.46396327  0.63887981  1  0  0.085549  0  0.944251  0  0  0.094714  0  1.009271  0  0  0.097243  0  1.006511  0  0.113993  0  0.116338  0.092827  0  1.011383  0
H  H32  1  0.96694742  0.20194628  0.89410446  1  0  0.09845  0  0.980922  0  0  0.102246  0  1.062124  0  0  0.107251  0  1.056579  0  0.108735  0  0.09983  0.098492  0  1.066429  0
H  H33  1  0.53305268  0.79805311  0.39410446  1  0  0.098504  0  0.980912  0  0  0.102298  0  1.062116  0  0  0.107303  0  1.05657  0  0.108729  0  0.099851  0.098544  0  1.066422  0
H  H34  1  0.03305276  0.79805311  0.10589503  1  0  0.098493  0  0.980916  0  0  0.102332  0  1.062063  0  0  0.107337  0  1.056517  0  0.108721  0  0.099876  0.098578  0  1.066368  0
H  H35  1  0.46694885  0.20194628  0.60589605  1  0  0.098443  0  0.980963  0  0  0.102259  0  1.062148  0  0  0.107265  0  1.056599  0  0.108739  0  0.099829  0.098502  0  1.066451  0
H  H36  1  0.99354823  0.07774700  0.68075207  1  0  0.114007  0  0.947369  0  0  0.125293  0  1.006345  0  0  0.128025  0  1.006146  0  0.100078  0  0.11037  0.123323  0  1.006636  0
H  H37  1  0.50645192  0.92225362  0.18075258  1  0  0.113994  0  0.947406  0  0  0.125275  0  1.006395  0  0  0.128003  0  1.006205  0  0.100088  0  0.110363  0.12332  0  1.006651  0
H  H38  1  0.00645065  0.92225362  0.31924742  1  0  0.114003  0  0.947384  0  0  0.125284  0  1.006373  0  0  0.128013  0  1.006181  0  0.100088  0  0.110368  0.123329  0  1.006626  0
H  H39  1  0.49354825  0.07774577  0.81924793  1  0  0.114015  0  0.947355  0  0  0.125318  0  1.006309  0  0  0.12805  0  1.006109  0  0.100073  0  0.110366  0.123344  0  1.006601  0
C  C40  1  0.24099101  0.59631009  0.95467936  1  0  0.647577  0  3.873378  0  0  0.597215  0  4.169784  0  0  0.631125  0  4.160652  0  1.610527  0  0.21658  0.574265  0  4.175195  0
C  C41  1  0.25900931  0.40369052  0.45467936  1  0  0.647603  0  3.873289  0  0  0.597264  0  4.169693  0  0  0.631174  0  4.160561  0  1.610527  0  0.216592  0.574314  0  4.175104  0
C  C42  1  0.75901039  0.40368684  0.04531962  1  0  0.647602  0  3.873465  0  0  0.597262  0  4.169874  0  0  0.631171  0  4.160745  0  1.610294  0  0.216558  0.574312  0  4.175284  0
C  C43  1  0.74098977  0.59631377  0.54532013  1  0  0.647601  0  3.873489  0  0  0.597234  0  4.169889  0  0  0.631144  0  4.160762  0  1.610323  0  0.216527  0.574284  0  4.1753  0
C  C44  1  0.46499209  0.76330053  0.02805780  1  0  -0.120204  0  3.709322  0  0  -0.143063  0  3.958497  0  0  -0.148468  0  3.979971  0  -0.010576  0  -0.078827  -0.139591  0  3.944231  0
C  C45  1  0.03500552  0.23670008  0.52805729  1  0  -0.120249  0  3.709337  0  0  -0.14308  0  3.958525  0  0  -0.148484  0  3.98  0  -0.010564  0  -0.078832  -0.139607  0  3.944256  0
C  C46  1  0.53500524  0.23669641  0.97194271  1  0  -0.12029  0  3.709441  0  0  -0.143132  0  3.958633  0  0  -0.148536  0  3.980105  0  -0.010573  0  -0.078877  -0.139655  0  3.944366  0
C  C47  1  0.96499498  0.76330543  0.47194322  1  0  -0.120238  0  3.709501  0  0  -0.143085  0  3.958678  0  0  -0.148491  0  3.980154  0  -0.010479  0  -0.078853  -0.139611  0  3.944411  0
C  C48  1  0.41667335  0.69581572  0.96467221  1  0  -0.0032  0  3.7125  0  0  0.015807  0  3.940783  0  0  0.013838  0  3.961401  0  -0.044998  0  0.007257  0.017058  0  3.92696  0
C  C49  1  0.08332575  0.30418734  0.46467221  1  0  -0.003115  0  3.712319  0  0  0.015826  0  3.940694  0  0  0.013856  0  3.961313  0  -0.045032  0  0.007268  0.017076  0  3.92687  0
C  C50  1  0.58332669  0.30418122  0.03532779  1  0  -0.003023  0  3.712399  0  0  0.015911  0  3.940775  0  0  0.013942  0  3.961392  0  -0.044747  0  0.007293  0.01716  0  3.926952  0
C  C51  1  0.91667482  0.69581939  0.53532779  1  0  -0.003148  0  3.712542  0  0  0.015892  0  3.94078  0  0  0.013923  0  3.961399  0  -0.044791  0  0.007283  0.017143  0  3.926956  0
C  C52  1  0.70062578  0.80910997  0.92094404  1  0  0.118089  0  3.683369  0  0  0.090827  0  3.920956  0  0  0.097084  0  3.94056  0  0.42544  0  0.045992  0.086671  0  3.907733  0
C  C53  1  0.79937424  0.19088819  0.42094404  1  0  0.118057  0  3.683298  0  0  0.090804  0  3.920875  0  0  0.097062  0  3.94048  0  0.425489  0  0.046024  0.086648  0  3.907654  0
C  C54  1  0.29937297  0.19088819  0.07905545  1  0  0.118001  0  3.683407  0  0  0.090758  0  3.920992  0  0  0.097009  0  3.940593  0  0.425324  0  0.045988  0.086601  0  3.907771  0
C  C55  1  0.20062742  0.80911365  0.57905596  1  0  0.118119  0  3.683259  0  0  0.090876  0  3.920848  0  0  0.097124  0  3.940449  0  0.425484  0  0.046055  0.08672  0  3.907624  0
C  C56  1  0.63026514  0.85056279  0.03503370  1  0  0.112732  0  3.683321  0  0  0.082484  0  3.927883  0  0  0.088467  0  3.947156  0  0.472249  0  0.041435  0.078597  0  3.914821  0
C  C57  1  0.86973366  0.14943782  0.53503421  1  0  0.112767  0  3.68333  0  0  0.08253  0  3.927906  0  0  0.088501  0  3.947174  0  0.47222  0  0.041454  0.078643  0  3.914843  0
C  C58  1  0.36973226  0.14943537  0.96496477  1  0  0.112702  0  3.683475  0  0  0.08247  0  3.928027  0  0  0.088449  0  3.947299  0  0.472131  0  0.041452  0.078582  0  3.914967  0
C  C59  1  0.13026813  0.85056647  0.46496579  1  0  0.112693  0  3.683374  0  0  0.082453  0  3.927956  0  0  0.088426  0  3.947232  0  0.472159  0  0.041412  0.078566  0  3.914893  0
C  C60  1  0.53717002  0.72135058  0.91025631  1  0  -0.107919  0  3.704685  0  0  -0.126385  0  3.945666  0  0  -0.132424  0  3.966553  0  0.031471  0  -0.073767  -0.122447  0  3.931907  0
C  C61  1  0.96283041  0.27865493  0.41025579  1  0  -0.108012  0  3.704606  0  0  -0.126478  0  3.945563  0  0  -0.13252  0  3.96645  0  0.031577  0  -0.073793  -0.122539  0  3.931808  0
C  C62  1  0.46283151  0.27864881  0.08974421  1  0  -0.107966  0  3.704629  0  0  -0.126406  0  3.945616  0  0  -0.132446  0  3.966506  0  0.031458  0  -0.073785  -0.122469  0  3.93186  0
C  C63  1  0.03716861  0.72134813  0.58974421  1  0  -0.108  0  3.704652  0  0  -0.126518  0  3.945586  0  0  -0.132562  0  3.966476  0  0.031557  0  -0.07381  -0.122577  0  3.931828  0
C  C64  1  0.07361447  0.95825637  0.80606249  1  0  0.621532  0  3.94956  0  0  0.572939  0  4.235961  0  0  0.606905  0  4.22995  0  1.596136  0  0.195557  0.549901  0  4.239121  0
C  C65  1  0.42638585  0.04174424  0.30606249  1  0  0.621581  0  3.94949  0  0  0.573004  0  4.235865  0  0  0.60697  0  4.229852  0  1.596502  0  0.195572  0.549966  0  4.239029  0
C  C66  1  0.92638571  0.04174302  0.19393751  1  0  0.621573  0  3.949481  0  0  0.572944  0  4.235936  0  0  0.60691  0  4.229924  0  1.596146  0  0.195531  0.549904  0  4.239102  0
C  C67  1  0.57361432  0.95825515  0.69393751  1  0  0.621555  0  3.949531  0  0  0.572961  0  4.235928  0  0  0.606926  0  4.229917  0  1.596481  0  0.195549  0.549923  0  4.239088  0
C  C68  1  0.88859688  0.31213898  0.70665526  1  0  0.103736  0  3.70141  0  0  0.073005  0  3.950871  0  0  0.079101  0  3.97026  0  0.426239  0  0.034929  0.068974  0  3.937729  0
C  C69  1  0.61140328  0.68786164  0.20665526  1  0  0.103722  0  3.701469  0  0  0.07299  0  3.950929  0  0  0.07909  0  3.970304  0  0.426229  0  0.034915  0.068955  0  3.937791  0
C  C70  1  0.11140478  0.68786286  0.29334474  1  0  0.103701  0  3.701475  0  0  0.072964  0  3.950939  0  0  0.079065  0  3.970313  0  0.426225  0  0.034926  0.068929  0  3.937801  0
C  C71  1  0.38859690  0.31213775  0.79334474  1  0  0.103646  0  3.701487  0  0  0.072916  0  3.950958  0  0  0.079016  0  3.970334  0  0.426234  0  0.034885  0.068883  0  3.937816  0
C  C72  1  0.87178383  0.37573490  0.82205555  1  0  0.115157  0  3.712097  0  0  0.08475  0  3.961201  0  0  0.091984  0  3.978985  0  0.412949  0  0.042002  0.079944  0  3.949151  0
C  C73  1  0.62821633  0.62426571  0.32205504  1  0  0.115189  0  3.712108  0  0  0.084777  0  3.961212  0  0  0.092012  0  3.978997  0  0.412953  0  0.04202  0.07997  0  3.949162  0
C  C74  1  0.12821634  0.62426448  0.17794445  1  0  0.115187  0  3.712036  0  0  0.084782  0  3.961134  0  0  0.092017  0  3.978919  0  0.412953  0  0.042024  0.079976  0  3.949085  0
C  C75  1  0.37178527  0.37573490  0.67794496  1  0  0.115154  0  3.712156  0  0  0.084744  0  3.961273  0  0  0.091978  0  3.97906  0  0.41281  0  0.042012  0.079938  0  3.949221  0
C  C76  1  0.98921571  0.11810148  0.78922496  1  0  -3.4e-05  0  3.702624  0  0  0.020801  0  3.92668  0  0  0.018948  0  3.947772  0  -0.009899  0  0.004323  0.021981  0  3.912549  0
C  C77  1  0.51078432  0.88189669  0.28922496  1  0  -5.3e-05  0  3.702555  0  0  0.020781  0  3.926608  0  0  0.018929  0  3.947699  0  -0.009879  0  0.004326  0.021957  0  3.91248  0
C  C78  1  0.01078440  0.88189669  0.21077453  1  0  -4.2e-05  0  3.702541  0  0  0.020801  0  3.92662  0  0  0.018949  0  3.947711  0  -0.009885  0  0.004318  0.021977  0  3.912493  0
C  C79  1  0.48921579  0.11810148  0.71077504  1  0  -1.1e-05  0  3.702601  0  0  0.020828  0  3.92666  0  0  0.018975  0  3.947753  0  -0.009895  0  0.004328  0.022007  0  3.912526  0
C  C80  1  0.94374329  0.22804071  0.84029205  1  0  -0.105168  0  3.692868  0  0  -0.123565  0  3.934782  0  0  -0.129836  0  3.955568  0  0.029457  0  -0.075284  -0.119444  0  3.921072  0
C  C81  1  0.55625680  0.77195867  0.34029256  1  0  -0.10521  0  3.692806  0  0  -0.123611  0  3.93474  0  0  -0.129882  0  3.955525  0  0.029439  0  -0.075314  -0.119491  0  3.921035  0
C  C82  1  0.05625689  0.77195867  0.15970744  1  0  -0.105241  0  3.692757  0  0  -0.123678  0  3.934677  0  0  -0.129949  0  3.955462  0  0.029445  0  -0.075353  -0.119558  0  3.920972  0
C  C83  1  0.44374337  0.22804071  0.65970795  1  0  -0.105204  0  3.692941  0  0  -0.123623  0  3.934842  0  0  -0.129896  0  3.955631  0  0.029592  0  -0.075299  -0.119497  0  3.921128  0
C  C84  1  0.96005226  0.16218321  0.72126264  1  0  -0.109105  0  3.695421  0  0  -0.131502  0  3.941338  0  0  -0.137125  0  3.963432  0  -0.023789  0  -0.079666  -0.127931  0  3.926722  0
C  C85  1  0.53994783  0.83781618  0.22126264  1  0  -0.109093  0  3.695466  0  0  -0.131488  0  3.941373  0  0  -0.137113  0  3.963465  0  -0.023803  0  -0.079665  -0.127916  0  3.926764  0
C  C86  1  0.03994791  0.83781618  0.27873736  1  0  -0.109099  0  3.695438  0  0  -0.131492  0  3.941342  0  0  -0.137115  0  3.963433  0  -0.023793  0  -0.079674  -0.127916  0  3.926732  0
C  C87  1  0.46005228  0.16218199  0.77873736  1  0  -0.1091  0  3.695445  0  0  -0.131505  0  3.94134  0  0  -0.137129  0  3.963433  0  -0.023799  0  -0.079638  -0.127929  0  3.926719  0
N  N88  1  0.74724653  0.87225408  0.98247115  1  0  -0.283166  0  3.360888  0  0  -0.191418  0  3.635608  0  0  -0.210381  0  3.652608  0  -1.181587  0  -0.350499  -0.178521  0  3.623732  0
N  N89  1  0.75275363  0.12774654  0.48247064  1  0  -0.283124  0  3.360859  0  0  -0.191375  0  3.635569  0  0  -0.210342  0  3.652578  0  -1.181589  0  -0.350504  -0.178479  0  3.623694  0
N  N90  1  0.25275223  0.12774409  0.01752936  1  0  -0.283046  0  3.360895  0  0  -0.191319  0  3.635611  0  0  -0.210263  0  3.652596  0  -1.18151  0  -0.350459  -0.178422  0  3.623732  0
N  N91  1  0.24724796  0.87225408  0.51752987  1  0  -0.283087  0  3.360847  0  0  -0.191359  0  3.635568  0  0  -0.210297  0  3.652547  0  -1.181536  0  -0.350487  -0.178462  0  3.62369  0
N  N92  1  0.84437894  0.41779995  0.75628510  1  0  -0.330465  0  3.425762  0  0  -0.236927  0  3.706467  0  0  -0.257961  0  3.724992  0  -1.185512  0  -0.357508  -0.222521  0  3.693455  0
N  N93  1  0.65561980  0.58219943  0.25628510  1  0  -0.330511  0  3.425844  0  0  -0.236959  0  3.706536  0  0  -0.257994  0  3.725061  0  -1.185517  0  -0.357514  -0.222552  0  3.693524  0
N  N94  1  0.15561988  0.58219943  0.24371490  1  0  -0.330482  0  3.42577  0  0  -0.236927  0  3.706447  0  0  -0.257962  0  3.724974  0  -1.1855  0  -0.357509  -0.22252  0  3.693436  0
N  N95  1  0.34438031  0.41779873  0.74371541  1  0  -0.33036  0  3.425768  0  0  -0.236821  0  3.706459  0  0  -0.257856  0  3.724987  0  -1.18546  0  -0.357479  -0.222415  0  3.693446  0
O  O96  1  0.20847948  0.52796816  0.89882620  1  0  -0.600723  0  1.994837  0  0  -0.547098  0  2.237852  0  0  -0.571145  0  2.228393  0  -1.163243  0  -0.308806  -0.530316  0  2.243883  0
O  O97  1  0.29152226  0.47203367  0.39882620  1  0  -0.600757  0  1.994785  0  0  -0.547143  0  2.237821  0  0  -0.571183  0  2.228346  0  -1.163265  0  -0.30883  -0.530359  0  2.243853  0
O  O98  1  0.79152334  0.47203000  0.10117380  1  0  -0.60085  0  1.994823  0  0  -0.54722  0  2.237845  0  0  -0.571265  0  2.228377  0  -1.163234  0  -0.308875  -0.530435  0  2.243876  0
O  O99  1  0.70847424  0.52797306  0.60117380  1  0  -0.600832  0  1.994836  0  0  -0.54722  0  2.23788  0  0  -0.571262  0  2.228404  0  -1.163236  0  -0.308856  -0.530435  0  2.243911  0
O  O100  1  0.13655648  0.58805847  0.00815889  1  0  -0.590174  0  2.057479  0  0  -0.536048  0  2.290136  0  0  -0.561621  0  2.278526  0  -1.18055  0  -0.318441  -0.518237  0  2.297307  0
O  O101  1  0.36344255  0.41194337  0.50815889  1  0  -0.590205  0  2.057348  0  0  -0.536083  0  2.290014  0  0  -0.561653  0  2.278434  0  -1.180528  0  -0.31847  -0.518271  0  2.297183  0
O  O102  1  0.86344091  0.41193970  0.99184060  1  0  -0.590442  0  2.057008  0  0  -0.536319  0  2.289686  0  0  -0.561888  0  2.278077  0  -1.180485  0  -0.318589  -0.518509  0  2.296853  0
O  O103  1  0.63656054  0.58805969  0.49184060  1  0  -0.590336  0  2.057073  0  0  -0.536206  0  2.289748  0  0  -0.561778  0  2.278179  0  -1.180517  0  -0.318542  -0.518395  0  2.296916  0
O  O104  1  0.08760926  0.86171883  0.75443837  1  0  -0.638059  0  2.137218  0  0  -0.554546  0  2.422887  0  0  -0.587194  0  2.410535  0  -1.125377  0  -0.342624  -0.53155  0  2.430426  0
O  O105  1  0.41238964  0.13828055  0.25443837  1  0  -0.63807  0  2.137194  0  0  -0.554567  0  2.422864  0  0  -0.587213  0  2.410511  0  -1.125373  0  -0.342621  -0.531571  0  2.4304  0
O  O106  1  0.91238949  0.13827933  0.24556163  1  0  -0.638048  0  2.137154  0  0  -0.554532  0  2.422858  0  0  -0.587179  0  2.410505  0  -1.125349  0  -0.342598  -0.531538  0  2.430396  0
O  O107  1  0.58760918  0.86171883  0.74556163  1  0  -0.638072  0  2.137205  0  0  -0.554568  0  2.422893  0  0  -0.587215  0  2.410539  0  -1.125366  0  -0.342626  -0.531567  0  2.430423  0
O  O108  1  0.12385457  0.93106115  0.86591596  1  0  -0.623985  0  1.97168  0  0  -0.571718  0  2.216736  0  0  -0.596221  0  2.206223  0  -1.176722  0  -0.321255  -0.554472  0  2.223354  0
O  O109  1  0.37614155  0.06893702  0.36591545  1  0  -0.624013  0  1.971639  0  0  -0.571748  0  2.216681  0  0  -0.596251  0  2.206168  0  -1.177088  0  -0.321261  -0.554504  0  2.2233  0
O  O110  1  0.87614011  0.06893702  0.13408404  1  0  -0.624012  0  1.971655  0  0  -0.571726  0  2.216726  0  0  -0.59623  0  2.206214  0  -1.176755  0  -0.321225  -0.554481  0  2.223347  0
O  O111  1  0.62385727  0.93106237  0.63408455  1  0  -0.623992  0  1.971668  0  0  -0.571719  0  2.21672  0  0  -0.596225  0  2.20621  0  -1.177085  0  -0.321242  -0.554473  0  2.223335  0
