# generated using pymatgen
data_CuH14C14N4ClO2
_symmetry_space_group_name_H-M   'P 1'
_cell_length_a   8.36025892
_cell_length_b   9.04470057
_cell_length_c   9.92414563
_cell_angle_alpha   91.28680727
_cell_angle_beta   92.75293104
_cell_angle_gamma   106.76514619
_symmetry_Int_Tables_number   1
_chemical_formula_structural   CuH14C14N4ClO2
_chemical_formula_sum   'Cu2 H28 C28 N8 Cl2 O4'
_cell_volume   717.18119657
_cell_formula_units_Z   2
loop_
 _symmetry_equiv_pos_site_id
 _symmetry_equiv_pos_as_xyz
  1  'x, y, z'
loop_
 _atom_site_type_symbol
 _atom_site_label
 _atom_site_symmetry_multiplicity
 _atom_site_fract_x
 _atom_site_fract_y
 _atom_site_fract_z
 _atom_site_occupancy
 _atom_site_hle17_bader_spin_density
 _atom_site_hle17_ddec_charge
 _atom_site_hle17_ddec_spin_density
 _atom_site_hle17_ddec_sum_bond_order
 _atom_site_hle17_magmom
 _atom_site_hse06_10hf_bader_spin_density
 _atom_site_hse06_10hf_ddec_charge
 _atom_site_hse06_10hf_ddec_spin_density
 _atom_site_hse06_10hf_ddec_sum_bond_order
 _atom_site_hse06_10hf_magmom
 _atom_site_hse06_bader_spin_density
 _atom_site_hse06_ddec_charge
 _atom_site_hse06_ddec_spin_density
 _atom_site_hse06_ddec_sum_bond_order
 _atom_site_hse06_magmom
 _atom_site_pbe_bader_spin_density
 _atom_site_pbe_cm5_charge
 _atom_site_pbe_ddec_charge
 _atom_site_pbe_ddec_spin_density
 _atom_site_pbe_ddec_sum_bond_order
 _atom_site_pbe_magmom
Cu  Cu0  1  0.01088613  0.06796686  0.85771288  1  0  0.402599  0  2.043546  0  0  0.306106  0  2.524476  0  0  0.30395  0  2.481255  0  0  0.438107  0.311025  0  2.550071  0
Cu  Cu1  1  0.98911295  0.93203319  0.14228670  1  0  0.402642  0  2.043483  0  0  0.306137  0  2.524416  0  0  0.304026  0  2.481216  0  0  0.438129  0.311054  0  2.550044  0
H  H2  1  0.27525036  0.13796510  0.74748855  1  0  0.295042  0  0.905039  0  0  0.267178  0  0.98996  0  0  0.278421  0  0.97868  0  0  0.306208  0.259006  0  0.998051  0
H  H3  1  0.72474993  0.86203493  0.25251511  1  0  0.295061  0  0.905021  0  0  0.267195  0  0.989915  0  0  0.278434  0  0.978643  0  0  0.306233  0.259021  0  0.998018  0
H  H4  1  0.75498577  0.10492411  0.77195599  1  0  0.292802  0  0.915874  0  0  0.264161  0  1.00289  0  0  0.275558  0  0.991343  0  0  0.298509  0.256296  0  1.010525  0
H  H5  1  0.24501377  0.89507362  0.22804457  1  0  0.292761  0  0.915925  0  0  0.264148  0  1.002903  0  0  0.275542  0  0.991362  0  0  0.298506  0.25628  0  1.010547  0
H  H6  1  0.29267956  0.81792682  0.51588954  1  0  0.122146  0  0.969151  0  0  0.128883  0  1.031801  0  0  0.132424  0  1.030162  0  0  0.108169  0.126391  0  1.03311  0
H  H7  1  0.70731869  0.18207438  0.48411206  1  0  0.122183  0  0.969145  0  0  0.128906  0  1.031798  0  0  0.132445  0  1.030162  0  0  0.108187  0.126414  0  1.033107  0
H  H8  1  0.02704746  0.62061236  0.42873446  1  0  0.092826  0  0.96277  0  0  0.105507  0  1.022835  0  0  0.107391  0  1.022419  0  0  0.103018  0.104239  0  1.022855  0
H  H9  1  0.97295034  0.37939116  0.57126718  1  0  0.092895  0  0.96276  0  0  0.105593  0  1.022813  0  0  0.107475  0  1.0224  0  0  0.103044  0.104324  0  1.022834  0
H  H10  1  0.75974767  0.83841978  0.69130134  1  0  0.091503  0  0.9583  0  0  0.097949  0  1.026039  0  0  0.10129  0  1.022633  0  0  0.109736  0.095289  0  1.029256  0
H  H11  1  0.24025059  0.16158142  0.30870127  1  0  0.091529  0  0.958326  0  0  0.097969  0  1.026059  0  0  0.101304  0  1.022656  0  0  0.109757  0.095309  0  1.029279  0
H  H12  1  0.60361738  0.62170436  0.55548446  1  0  0.117752  0  0.942216  0  0  0.14193  0  0.996281  0  0  0.143324  0  0.996074  0  0  0.09689  0.140871  0  0.996517  0
H  H13  1  0.39638087  0.37829685  0.44451714  1  0  0.117812  0  0.942221  0  0  0.141967  0  0.996304  0  0  0.143361  0  0.996094  0  0  0.096876  0.14091  0  0.996536  0
H  H14  1  0.70998242  0.48268694  0.51972254  1  0  0.10806  0  0.945857  0  0  0.130487  0  1.006953  0  0  0.130835  0  1.008003  0  0  0.091229  0.130327  0  1.005872  0
H  H15  1  0.29001740  0.51731542  0.48027814  1  0  0.108043  0  0.945913  0  0  0.130489  0  1.006985  0  0  0.130836  0  1.008036  0  0  0.091242  0.13033  0  1.005903  0
H  H16  1  0.68061245  0.60904353  0.39337493  1  0  0.118828  0  0.962602  0  0  0.137053  0  1.029154  0  0  0.138003  0  1.029706  0  0  0.091593  0.136105  0  1.029056  0
H  H17  1  0.31938773  0.39095999  0.60662579  1  0  0.118826  0  0.962632  0  0  0.137053  0  1.029181  0  0  0.138004  0  1.029732  0  0  0.091584  0.136104  0  1.029081  0
H  H18  1  0.76610803  0.51958787  0.80573866  1  0  0.132006  0  0.952377  0  0  0.142835  0  1.005954  0  0  0.146654  0  1.004493  0  0  0.113749  0.139657  0  1.008409  0
H  H19  1  0.23389354  0.48040870  0.19426296  1  0  0.132064  0  0.952386  0  0  0.14287  0  1.005981  0  0  0.14671  0  1.004492  0  0  0.113774  0.139692  0  1.008437  0
H  H20  1  0.04007933  0.72207984  0.85216628  1  0  0.104854  0  0.954093  0  0  0.111299  0  1.02193  0  0  0.114858  0  1.018843  0  0  0.104076  0.108336  0  1.024687  0
H  H21  1  0.95992259  0.27791790  0.14783034  1  0  0.104879  0  0.954134  0  0  0.111322  0  1.021958  0  0  0.11488  0  1.01887  0  0  0.104101  0.108358  0  1.024718  0
H  H22  1  0.27292669  0.35741541  0.88881358  1  0  0.087903  0  0.962761  0  0  0.093792  0  1.031932  0  0  0.097097  0  1.028378  0  0  0.108512  0.091266  0  1.035258  0
H  H23  1  0.72707405  0.64258232  0.11118602  1  0  0.087881  0  0.962778  0  0  0.093743  0  1.03197  0  0  0.097047  0  1.028419  0  0  0.108501  0.091217  0  1.035298  0
H  H24  1  0.43734113  0.63079521  0.94885442  1  0  0.118542  0  0.946513  0  0  0.138807  0  1.007374  0  0  0.14023  0  1.007266  0  0  0.090474  0.13761  0  1.007736  0
H  H25  1  0.56266034  0.36920484  0.05114426  1  0  0.118531  0  0.946507  0  0  0.138792  0  1.007381  0  0  0.140215  0  1.007273  0  0  0.090462  0.1376  0  1.007732  0
H  H26  1  0.34323253  0.78293278  0.92850787  1  0  0.119957  0  0.944901  0  0  0.137194  0  1.010931  0  0  0.138463  0  1.011679  0  0  0.085718  0.136423  0  1.010089  0
H  H27  1  0.65676618  0.21706612  0.07149067  1  0  0.119945  0  0.944876  0  0  0.137181  0  1.010914  0  0  0.138449  0  1.011662  0  0  0.085724  0.136403  0  1.010077  0
H  H28  1  0.40957410  0.70032072  0.78683048  1  0  0.118276  0  0.943482  0  0  0.139499  0  1.004782  0  0  0.1402  0  1.005196  0  0  0.091098  0.139281  0  1.004062  0
H  H29  1  0.59042581  0.29967817  0.21316810  1  0  0.118241  0  0.943513  0  0  0.139465  0  1.00482  0  0  0.140167  0  1.005232  0  0  0.091075  0.139246  0  1.004101  0
C  C30  1  0.46566034  0.05631337  0.69699166  1  0  0.460776  0  3.80905  0  0  0.421155  0  4.088499  0  0  0.447799  0  4.08575  0  0  0.248873  0.402602  0  4.090939  0
C  C31  1  0.53434194  0.94368554  0.30300198  1  0  0.460684  0  3.808938  0  0  0.420945  0  4.088521  0  0  0.447636  0  4.085694  0  0  0.248803  0.402395  0  4.090958  0
C  C32  1  0.57568046  0.21380511  0.75633005  1  0  0.451248  0  3.817605  0  0  0.411251  0  4.098203  0  0  0.437403  0  4.095982  0  0  0.246943  0.393698  0  4.099058  0
C  C33  1  0.42431825  0.78619379  0.24366848  1  0  0.451255  0  3.81767  0  0  0.411281  0  4.098239  0  0  0.437419  0  4.096012  0  0  0.246981  0.393727  0  4.099094  0
C  C34  1  0.16270644  0.93103014  0.64587964  1  0  0.405654  0  3.756201  0  0  0.382973  0  4.008782  0  0  0.397813  0  4.025245  0  0  0.220126  0.37274  0  3.997404  0
C  C35  1  0.83729384  0.06896990  0.35412301  1  0  0.405673  0  3.75616  0  0  0.383002  0  4.008734  0  0  0.39784  0  4.025201  0  0  0.220156  0.372762  0  3.99737  0
C  C36  1  0.17146686  0.81785881  0.55042073  1  0  -0.186081  0  3.70088  0  0  -0.20502  0  3.95679  0  0  -0.213834  0  3.976298  0  0  -0.08915  -0.199647  0  3.943755  0
C  C37  1  0.82853259  0.18214239  0.44958192  1  0  -0.186155  0  3.701014  0  0  -0.205106  0  3.956972  0  0  -0.213915  0  3.976477  0  0  -0.089185  -0.199729  0  3.943944  0
C  C38  1  0.02375575  0.71013399  0.50304393  1  0  -0.059415  0  3.707938  0  0  -0.088003  0  3.963393  0  0  -0.082362  0  3.980205  0  0  -0.078126  -0.091429  0  3.951531  0
C  C39  1  0.97624287  0.28986836  0.49695872  1  0  -0.059495  0  3.707981  0  0  -0.088073  0  3.963434  0  0  -0.082435  0  3.980247  0  0  -0.07814  -0.091499  0  3.951576  0
C  C40  1  0.86996577  0.71574578  0.55006895  1  0  0.092508  0  3.759339  0  0  0.118113  0  4.002899  0  0  0.113186  0  4.028592  0  0  -0.011811  0.121012  0  3.985979  0
C  C41  1  0.13003331  0.28425426  0.44993265  1  0  0.092597  0  3.759382  0  0  0.118165  0  4.002977  0  0  0.11324  0  4.028667  0  0  -0.011807  0.121065  0  3.986061  0
C  C42  1  0.87419713  0.83038190  0.64734578  1  0  0.071544  0  3.657196  0  0  0.034532  0  3.910059  0  0  0.041517  0  3.923929  0  0  0.035594  0.02902  0  3.901551  0
C  C43  1  0.12580112  0.16961930  0.35265683  1  0  0.071462  0  3.657319  0  0  0.034488  0  3.910193  0  0  0.041481  0  3.924061  0  0  0.035584  0.028976  0  3.901694  0
C  C44  1  0.70764346  0.60167840  0.50207553  1  0  -0.336392  0  3.726302  0  0  -0.418129  0  3.963652  0  0  -0.420068  0  3.975396  0  0  -0.239482  -0.416416  0  3.955714  0
C  C45  1  0.29235479  0.39832281  0.49792507  1  0  -0.336451  0  3.726422  0  0  -0.418187  0  3.963756  0  0  -0.420126  0  3.975499  0  0  -0.239467  -0.416474  0  3.955816  0
C  C46  1  0.87836841  0.33347498  0.81664165  1  0  0.389789  0  3.769777  0  0  0.3664  0  4.025259  0  0  0.380399  0  4.042245  0  0  0.215597  0.357398  0  4.013715  0
C  C47  1  0.12163270  0.66652390  0.18335899  1  0  0.389771  0  3.769701  0  0  0.366401  0  4.025136  0  0  0.380399  0  4.042128  0  0  0.215573  0.3574  0  4.013596  0
C  C48  1  0.88203750  0.48910009  0.82070745  1  0  -0.200111  0  3.717329  0  0  -0.216774  0  3.967253  0  0  -0.22668  0  3.989473  0  0  -0.088856  -0.210477  0  3.953062  0
C  C49  1  0.11796360  0.51089879  0.17929320  1  0  -0.200144  0  3.717425  0  0  -0.216821  0  3.967328  0  0  -0.226743  0  3.98954  0  0  -0.088834  -0.210524  0  3.953141  0
C  C50  1  0.03541218  0.60048484  0.84513073  1  0  -0.055581  0  3.705455  0  0  -0.081595  0  3.955533  0  0  -0.078158  0  3.976266  0  0  -0.074412  -0.083387  0  3.941711  0
C  C51  1  0.96458856  0.39951289  0.15486988  1  0  -0.055645  0  3.705569  0  0  -0.081613  0  3.955607  0  0  -0.07818  0  3.976348  0  0  -0.074449  -0.083406  0  3.941789  0
C  C52  1  0.18276278  0.55737897  0.86419398  1  0  0.094535  0  3.756431  0  0  0.122401  0  3.994119  0  0  0.117438  0  4.020921  0  0  -0.00807  0.125521  0  3.975503  0
C  C53  1  0.81723749  0.44262108  0.13580465  1  0  0.094599  0  3.756412  0  0  0.122416  0  3.99413  0  0  0.117453  0  4.020931  0  0  -0.008052  0.125536  0  3.975517  0
C  C54  1  0.16498356  0.39921938  0.86597979  1  0  0.067642  0  3.669818  0  0  0.031531  0  3.920911  0  0  0.038386  0  3.934904  0  0  0.034736  0.026723  0  3.912125  0
C  C55  1  0.83501755  0.60077950  0.13402186  1  0  0.067615  0  3.669855  0  0  0.031541  0  3.920963  0  0  0.038395  0  3.934958  0  0  0.034726  0.026731  0  3.912184  0
C  C56  1  0.35168924  0.67340215  0.88395642  1  0  -0.337564  0  3.72277  0  0  -0.418247  0  3.958702  0  0  -0.420934  0  3.971182  0  0  -0.246342  -0.415911  0  3.949436  0
C  C57  1  0.64830984  0.32659790  0.11604317  1  0  -0.3375  0  3.722717  0  0  -0.418175  0  3.958654  0  0  -0.420863  0  3.971135  0  0  -0.246316  -0.415831  0  3.949395  0
N  N58  1  0.30129443  0.04972815  0.69452742  1  0  -0.433427  0  3.399321  0  0  -0.38016  0  3.637345  0  0  -0.402994  0  3.643469  0  0  -0.387934  -0.364727  0  3.633452  0
N  N59  1  0.69870585  0.95027189  0.30547423  1  0  -0.433495  0  3.399194  0  0  -0.380141  0  3.637192  0  0  -0.402988  0  3.643301  0  0  -0.387993  -0.364708  0  3.633309  0
N  N60  1  0.73591294  0.21212246  0.78048839  1  0  -0.434494  0  3.42091  0  0  -0.381906  0  3.661989  0  0  -0.404462  0  3.66862  0  0  -0.387373  -0.3665  0  3.656802  0
N  N61  1  0.26408780  0.78787526  0.21951322  1  0  -0.434451  0  3.42103  0  0  -0.381852  0  3.661991  0  0  -0.404411  0  3.668634  0  0  -0.387366  -0.366447  0  3.656812  0
N  N62  1  0.01664377  0.93496379  0.69691673  1  0  -0.374246  0  3.369035  0  0  -0.310648  0  3.674076  0  0  -0.321255  0  3.678425  0  0  -0.369289  -0.303144  0  3.669052  0
N  N63  1  0.98335531  0.06503625  0.30308487  1  0  -0.374219  0  3.369083  0  0  -0.310676  0  3.67416  0  0  -0.321295  0  3.678534  0  0  -0.369318  -0.303172  0  3.669162  0
N  N64  1  0.01752068  0.28872920  0.84378836  1  0  -0.376781  0  3.381135  0  0  -0.311749  0  3.684888  0  0  -0.322815  0  3.690126  0  0  -0.371222  -0.30468  0  3.680924  0
N  N65  1  0.98248079  0.71127084  0.15621233  1  0  -0.376754  0  3.381087  0  0  -0.311737  0  3.684822  0  0  -0.322815  0  3.690085  0  0  -0.371213  -0.30467  0  3.680881  0
Cl  Cl66  1  0.77308564  0.92580704  0.97408101  1  0  -0.570182  0  1.120454  0  0  -0.504084  0  1.439616  0  0  -0.520102  0  1.413466  0  0  -0.335247  -0.493008  0  1.457501  0
Cl  Cl67  1  0.22691224  0.07419303  0.02591752  1  0  -0.570193  0  1.120457  0  0  -0.504107  0  1.439642  0  0  -0.520125  0  1.413494  0  0  -0.335255  -0.493032  0  1.457529  0
O  O68  1  0.52586161  0.95505187  0.65556697  1  0  -0.49362  0  1.946526  0  0  -0.456305  0  2.162389  0  0  -0.47349  0  2.157215  0  0  -0.276401  -0.444937  0  2.166174  0
O  O69  1  0.47413817  0.04495054  0.34442061  1  0  -0.493532  0  1.946447  0  0  -0.456181  0  2.16236  0  0  -0.473382  0  2.157163  0  0  -0.276347  -0.44481  0  2.16614  0
O  O70  1  0.51926234  0.32496397  0.77342873  1  0  -0.498904  0  1.952609  0  0  -0.4584  0  2.16567  0  0  -0.475477  0  2.160412  0  0  -0.275245  -0.446558  0  2.169037  0
O  O71  1  0.48074272  0.67503606  0.22657007  1  0  -0.498906  0  1.952574  0  0  -0.458414  0  2.165617  0  0  -0.475493  0  2.160365  0  0  -0.27527  -0.446569  0  2.168983  0
