# generated using pymatgen
data_Na2CuH20C10N2O11
_symmetry_space_group_name_H-M   'P 1'
_cell_length_a   7.97019676
_cell_length_b   9.17824822
_cell_length_c   12.61894030
_cell_angle_alpha   95.41035722
_cell_angle_beta   90.00007027
_cell_angle_gamma   115.73388845
_symmetry_Int_Tables_number   1
_chemical_formula_structural   Na2CuH20C10N2O11
_chemical_formula_sum   'Na4 Cu2 H40 C20 N4 O22'
_cell_volume   826.98527476
_cell_formula_units_Z   2
loop_
 _symmetry_equiv_pos_site_id
 _symmetry_equiv_pos_as_xyz
  1  'x, y, z'
loop_
 _atom_site_type_symbol
 _atom_site_label
 _atom_site_symmetry_multiplicity
 _atom_site_fract_x
 _atom_site_fract_y
 _atom_site_fract_z
 _atom_site_occupancy
 _atom_site_hle17_ddec_charge
 _atom_site_hle17_ddec_spin_density
 _atom_site_hle17_ddec_sum_bond_order
 _atom_site_hle17_magmom
 _atom_site_hse06_10hf_ddec_charge
 _atom_site_hse06_10hf_ddec_spin_density
 _atom_site_hse06_10hf_ddec_sum_bond_order
 _atom_site_hse06_10hf_magmom
 _atom_site_hse06_ddec_charge
 _atom_site_hse06_ddec_spin_density
 _atom_site_hse06_ddec_sum_bond_order
 _atom_site_hse06_magmom
 _atom_site_pbe_cm5_charge
 _atom_site_pbe_ddec_charge
 _atom_site_pbe_ddec_spin_density
 _atom_site_pbe_ddec_sum_bond_order
 _atom_site_pbe_magmom
Na  Na0  1  0.42223928  0.06135066  0.63487721  1  0.911739  -4.3e-05  0.365186  0.0  0.878436  -4e-05  0.508259  0.0  0.887257  -1.5e-05  0.487796  0.0  0.657388  0.87169  -7.3e-05  0.523277  0.0
Na  Na1  1  0.36091689  0.93870740  0.86515525  1  0.911884  4.3e-05  0.364762  0.0  0.878504  4.3e-05  0.507894  0.0  0.887422  1.7e-05  0.487321  0.0  0.657097  0.871844  7.3e-05  0.522574  0.0
Na  Na2  1  0.57775845  0.93864770  0.36512302  1  0.911756  -4.3e-05  0.365159  0.0  0.878444  -4e-05  0.508241  0.0  0.887265  -1.5e-05  0.487777  0.0  0.657378  0.871702  -7.3e-05  0.523251  0.0
Na  Na3  1  0.63908707  0.06129339  0.13484435  1  0.911899  4.3e-05  0.364758  0.0  0.878532  4.3e-05  0.507874  0.0  0.887447  1.7e-05  0.487303  0.0  0.657101  0.871871  7.3e-05  0.522554  0.0
Cu  Cu4  1  0.50000042  0.49999978  0.49999936  1  0.78372  0.708744  1.80582  0.497  0.758098  0.797975  2.168858  0.614  0.84234  0.86989  2.114679  0.696  0.734377  0.706573  0.747668  2.205853  0.562
Cu  Cu5  1  0.99999855  0.49999870  0.00000136  1  0.783845  -0.708622  1.804946  -0.496  0.758019  -0.797669  2.168362  -0.613  0.842786  -0.869589  2.113537  -0.695  0.734401  0.706605  -0.74764  2.205747  -0.562
H  H6  1  0.00090731  0.19917028  0.40203162  1  0.107687  0.003619  0.948426  0.005  0.117699  0.002207  1.01582  0.003  0.120811  0.001551  1.01263  0.002  0.117151  0.11527  0.002647  1.018284  0.003
H  H7  1  0.80132417  0.80056115  0.09806478  1  0.107185  -0.003688  0.948723  -0.005  0.117204  -0.002254  1.016247  -0.003  0.120307  -0.001585  1.013093  -0.002  0.116806  0.11475  -0.002649  1.018678  -0.003
H  H8  1  0.99909221  0.80083416  0.59796902  1  0.107726  0.003624  0.94837  0.005  0.117742  0.002207  1.015758  0.003  0.120849  0.001551  1.012578  0.002  0.117166  0.115313  0.002647  1.018219  0.003
H  H9  1  0.19868097  0.19944451  0.90193673  1  0.107222  -0.003673  0.948704  -0.005  0.117227  -0.002254  1.016215  -0.003  0.120329  -0.001585  1.013061  -0.002  0.116825  0.114776  -0.002649  1.018647  -0.003
H  H10  1  0.07761475  0.38817851  0.48314646  1  0.110184  8e-06  0.921567  0.0  0.125826  3e-06  0.977846  0.0  0.128668  3e-06  0.975459  0.0  0.117796  0.123748  5e-06  0.97959  0.0
H  H11  1  0.68917942  0.61155988  0.01688303  1  0.109612  -3e-05  0.921747  0.0  0.125497  -2e-05  0.977928  0.0  0.128381  -1.6e-05  0.975523  0.0  0.117398  0.123308  -5e-06  0.979841  0.0
H  H12  1  0.92238606  0.61182350  0.51685718  1  0.110223  1.2e-05  0.921585  0.0  0.125863  3e-06  0.977859  0.0  0.128702  3e-06  0.975475  0.0  0.117809  0.123785  5e-06  0.979601  0.0
H  H13  1  0.31082450  0.38844334  0.98311752  1  0.10962  -2.6e-05  0.921745  0.0  0.125494  -2e-05  0.9779  0.0  0.128377  -1.6e-05  0.975497  0.0  0.117378  0.123307  -4e-06  0.979815  0.0
H  H14  1  0.29591483  0.22073539  0.25130097  1  0.122865  0.00107  0.954532  0.001  0.133981  0.000778  1.013285  0.001  0.136965  0.000566  1.011692  0.001  0.118381  0.131818  0.000914  1.014458  0.001
H  H15  1  0.07491587  0.77922964  0.24872064  1  0.122127  -0.001062  0.955902  -0.001  0.134361  -0.000778  1.013455  -0.001  0.137312  -0.000568  1.011829  -0.001  0.118448  0.132142  -0.000914  1.014744  -0.001
H  H16  1  0.70407666  0.77926054  0.74869989  1  0.122921  0.001063  0.954513  0.001  0.133969  0.000778  1.013335  0.001  0.136953  0.000566  1.011743  0.001  0.11839  0.131803  0.000913  1.014508  0.001
H  H17  1  0.92508749  0.22076993  0.75128125  1  0.122133  -0.00106  0.955928  -0.001  0.134361  -0.000778  1.013502  -0.001  0.137314  -0.000568  1.011872  -0.001  0.118458  0.132143  -0.000914  1.014791  -0.001
H  H18  1  0.25176824  0.12086600  0.36784408  1  0.131175  9.6e-05  0.9236  0.0  0.146961  7.6e-05  0.975994  0.0  0.148933  5.7e-05  0.975672  0.0  0.130771  0.145401  7.7e-05  0.976564  0.0
H  H19  1  0.13069305  0.87907597  0.13217043  1  0.131301  -7.1e-05  0.92384  0.0  0.14691  -5.2e-05  0.976625  0.0  0.148837  -3.9e-05  0.976299  0.0  0.130893  0.145441  -7.6e-05  0.97702  0.0
H  H20  1  0.74823131  0.87913601  0.63215877  1  0.131151  9.3e-05  0.923708  0.0  0.146935  7.6e-05  0.976071  0.0  0.148909  5.7e-05  0.975748  0.0  0.13076  0.145373  7.7e-05  0.97664  0.0
H  H21  1  0.86931281  0.12092361  0.86783147  1  0.131302  -7e-05  0.9238  0.0  0.146936  -5.1e-05  0.976564  0.0  0.148867  -3.9e-05  0.976232  0.0  0.13087  0.145467  -7.6e-05  0.97696  0.0
H  H22  1  0.14468582  0.39645702  0.25952914  1  0.108325  0.004232  0.934044  0.005  0.126166  0.002688  0.997556  0.003  0.12684  0.001899  0.997882  0.002  0.104285  0.125415  0.003232  0.997546  0.004
H  H23  1  0.74811767  0.60323343  0.24053839  1  0.107851  -0.004228  0.933752  -0.005  0.125582  -0.002682  0.99741  -0.003  0.126219  -0.001897  0.997758  -0.002  0.104115  0.124861  -0.003231  0.997451  -0.004
H  H24  1  0.85531689  0.60354376  0.74046967  1  0.108323  0.004243  0.934045  0.005  0.126154  0.002688  0.997561  0.003  0.12684  0.001898  0.997873  0.002  0.104284  0.125404  0.003232  0.997552  0.004
H  H25  1  0.25188253  0.39676736  0.75946279  1  0.107837  -0.004226  0.933765  -0.005  0.125557  -0.002682  0.997436  -0.003  0.126194  -0.001897  0.997783  -0.002  0.104113  0.124841  -0.003232  0.997477  -0.004
H  H26  1  0.39102139  0.52277891  0.27218864  1  0.113637  0.000326  0.929289  0.001  0.132866  0.000179  0.991061  0.001  0.134102  0.000119  0.990738  0.0  0.11094  0.131682  0.000231  0.991634  0.001
H  H27  1  0.86828982  0.47709439  0.22782251  1  0.113259  -0.000326  0.929396  -0.001  0.132653  -0.000173  0.990942  -0.001  0.133918  -0.000114  0.990573  0.0  0.11093  0.131509  -0.000231  0.991517  -0.001
H  H28  1  0.60898132  0.47722188  0.72781175  1  0.113634  0.000328  0.929317  0.001  0.132851  0.00018  0.991098  0.001  0.134086  0.000119  0.990778  0.0  0.110936  0.13167  0.000231  0.991671  0.001
H  H29  1  0.13171099  0.52290762  0.77217955  1  0.113236  -0.00032  0.929439  -0.001  0.13266  -0.000173  0.990951  -0.001  0.133924  -0.000115  0.990582  0.0  0.110937  0.131515  -0.000231  0.991532  -0.001
H  H30  1  0.24149771  0.56673950  0.36021001  1  0.099828  0.000342  0.950986  0.001  0.118495  0.000242  1.0169  0.001  0.119716  0.000172  1.016176  0.0  0.10773  0.117307  0.000293  1.017783  0.001
H  H31  1  0.67471558  0.43298879  0.13986643  1  0.100158  -0.000351  0.950622  -0.001  0.118573  -0.000244  1.016963  -0.001  0.119823  -0.000174  1.016165  0.0  0.107534  0.117394  -0.000292  1.017808  -0.001
H  H32  1  0.75850187  0.43326007  0.63978792  1  0.099834  0.000348  0.950952  0.001  0.118496  0.000242  1.016874  0.001  0.119714  0.000172  1.016152  0.0  0.107724  0.117307  0.000293  1.017763  0.001
H  H33  1  0.32528462  0.56701200  0.86013475  1  0.100172  -0.000346  0.9505  -0.001  0.11856  -0.000244  1.01689  -0.001  0.119809  -0.000174  1.016089  0.0  0.107537  0.117384  -0.000292  1.017734  -0.001
H  H34  1  0.09211928  0.05612828  0.70297448  1  0.406102  1.5e-05  0.905447  0.0  0.373167  1.5e-05  0.974982  0.0  0.384077  1.3e-05  0.958766  0.0  0.282386  0.365526  1.5e-05  0.986301  0.0
H  H35  1  0.03596774  0.94378675  0.79706538  1  0.406447  -8e-06  0.905084  0.0  0.373523  -6e-06  0.974611  0.0  0.38447  -7e-06  0.958334  0.0  0.282498  0.365866  -1.5e-05  0.985936  0.0
H  H36  1  0.90788031  0.94387129  0.29702583  1  0.406107  1.4e-05  0.905442  0.0  0.37317  1.5e-05  0.974978  0.0  0.38408  1.3e-05  0.958765  0.0  0.28239  0.365532  1.5e-05  0.986296  0.0
H  H37  1  0.96403059  0.05621282  0.20293493  1  0.406445  -1e-05  0.905085  0.0  0.373524  -6e-06  0.974606  0.0  0.384471  -7e-06  0.95833  0.0  0.282497  0.36587  -1.5e-05  0.985929  0.0
H  H38  1  0.81227096  0.14334890  0.55717681  1  0.415765  1.2e-05  0.897988  0.0  0.382691  8e-06  0.966184  0.0  0.393703  5e-06  0.95013  0.0  0.282156  0.374893  2e-06  0.97759  0.0
H  H39  1  0.66882583  0.85659476  0.94290616  1  0.41542  -1.1e-05  0.89861  0.0  0.38222  -5e-06  0.967017  0.0  0.393251  -3e-06  0.950928  0.0  0.282069  0.374598  -2e-06  0.978059  0.0
H  H40  1  0.18772673  0.85665189  0.44282279  1  0.415854  1.2e-05  0.89785  0.0  0.382771  8e-06  0.966058  0.0  0.393778  5e-06  0.950007  0.0  0.282169  0.374975  2e-06  0.977464  0.0
H  H41  1  0.33117627  0.14340482  0.05709415  1  0.415441  -1.1e-05  0.898561  0.0  0.382245  -5e-06  0.966963  0.0  0.393276  -3e-06  0.950875  0.0  0.282079  0.374624  -2e-06  0.978003  0.0
H  H42  1  0.71707284  0.23719203  0.49749594  1  0.409385  5.3e-05  0.889047  0.0  0.383522  0.000134  0.95043  0.0  0.393131  8.5e-05  0.935979  0.0  0.29403  0.376609  0.00015  0.960875  0.0
H  H43  1  0.47974395  0.76269562  0.00254230  1  0.408362  -3.1e-05  0.889253  0.0  0.382426  -0.000113  0.95178  0.0  0.392061  -7.1e-05  0.937289  0.0  0.29355  0.375623  -0.000149  0.962031  0.0
H  H44  1  0.28292113  0.76280632  0.50250350  1  0.409393  5.3e-05  0.889028  0.0  0.383534  0.000134  0.950409  0.0  0.393141  8.5e-05  0.935959  0.0  0.294038  0.37662  0.00015  0.960854  0.0
H  H45  1  0.52025811  0.23730639  0.99745817  1  0.408364  -3.2e-05  0.889256  0.0  0.382415  -0.000113  0.951809  0.0  0.39205  -7.2e-05  0.937318  0.0  0.293574  0.375611  -0.000149  0.962064  0.0
C  C46  1  0.14866888  0.21641163  0.55080841  1  0.689601  0.000797  3.87891  0.001  0.63735  0.00048  4.191081  0.001  0.67027  0.000334  4.183496  0.001  0.2091  0.615114  0.000585  4.195465  0.001
C  C47  1  0.93199889  0.78353502  0.94931813  1  0.690671  -0.000791  3.877131  -0.001  0.638698  -0.00045  4.189014  -0.001  0.671586  -0.000315  4.1814  -0.001  0.209638  0.616198  -0.000585  4.193667  -0.001
C  C48  1  0.85132758  0.78358672  0.44918944  1  0.689669  0.0008  3.878967  0.001  0.637545  0.00048  4.190929  0.001  0.670465  0.000335  4.18334  0.001  0.209182  0.6153  0.000585  4.195312  0.001
C  C49  1  0.06800693  0.21646698  0.05068235  1  0.690691  -0.00078  3.877081  -0.001  0.638686  -0.00045  4.188976  -0.001  0.671574  -0.000313  4.18136  -0.001  0.209647  0.616189  -0.000585  4.19363  -0.001
C  C50  1  0.11702850  0.29126590  0.45387937  1  -0.198446  -0.001555  3.633794  -0.004  -0.251931  0.000307  3.884571  -0.002  -0.253398  -0.000411  3.893049  -0.002  -0.077922  -0.25065  0.000916  3.878974  -0.001
C  C51  1  0.82543294  0.70852333  0.04620121  1  -0.197822  0.001561  3.632493  0.004  -0.25126  -0.000355  3.883268  0.002  -0.252908  0.000385  3.892007  0.002  -0.077371  -0.249986  -0.000912  3.877901  0.001
C  C52  1  0.88296984  0.70873367  0.54611936  1  -0.198661  -0.001578  3.633808  -0.004  -0.252173  0.000308  3.88454  -0.002  -0.253642  -0.000415  3.89301  -0.002  -0.078031  -0.250886  0.000916  3.878944  -0.001
C  C53  1  0.17457099  0.29147990  0.95380093  1  -0.197928  0.00152  3.632549  0.004  -0.251289  -0.000355  3.88324  0.002  -0.252933  0.000382  3.891973  0.002  -0.077359  -0.250028  -0.000912  3.877895  0.001
C  C54  1  0.33365900  0.23803191  0.33676779  1  -0.208084  -0.000703  3.593457  -0.003  -0.255108  0.001002  3.830392  -0.001  -0.25767  0.000353  3.839614  -0.002  -0.074024  -0.253199  0.001486  3.824578  -0.001
C  C55  1  0.09538939  0.76193222  0.16326489  1  -0.20706  0.000664  3.593108  0.003  -0.255077  -0.001021  3.831126  0.001  -0.257443  -0.000358  3.840224  0.002  -0.074306  -0.253468  -0.001487  3.825524  0.001
C  C56  1  0.66633618  0.76196888  0.66323419  1  -0.208159  -0.00069  3.593704  -0.003  -0.255144  0.001002  3.830569  -0.001  -0.25771  0.000353  3.839797  -0.002  -0.074056  -0.253235  0.001487  3.824754  -0.001
C  C57  1  0.90461522  0.23806736  0.83673622  1  -0.207077  0.00066  3.593089  0.003  -0.255136  -0.001022  3.831115  0.001  -0.257504  -0.000355  3.840218  0.002  -0.074313  -0.253524  -0.001486  3.825502  0.001
C  C58  1  0.53683650  0.27268480  0.35285796  1  0.699261  -0.001726  3.849933  -0.003  0.658008  0.001015  4.148664  0.0  0.692682  0.00056  4.141574  0.0  0.216389  0.634378  0.001288  4.15273  0.0
C  C59  1  0.26396120  0.72726305  0.14723484  1  0.698254  0.001675  3.851361  0.003  0.657448  -0.001031  4.149827  0.0  0.69205  -0.000583  4.142843  0.0  0.216151  0.633821  -0.001295  4.153864  0.0
C  C60  1  0.46315568  0.72730747  0.64713948  1  0.699202  -0.001712  3.850018  -0.003  0.658091  0.001013  4.148491  0.0  0.692765  0.000561  4.141398  0.0  0.216492  0.634462  0.001288  4.152561  0.0
C  C61  1  0.73603843  0.27273408  0.85276293  1  0.698187  0.001668  3.851427  0.003  0.657421  -0.001033  4.149848  0.0  0.692023  -0.000584  4.142864  0.0  0.216168  0.633797  -0.001295  4.153884  0.0
C  C62  1  0.26372463  0.46820274  0.31624237  1  -0.186718  -0.001731  3.606749  -0.004  -0.28295  0.000351  3.866989  -0.002  -0.279988  -0.000368  3.876914  -0.002  -0.145781  -0.284345  0.000921  3.860763  -0.001
C  C63  1  0.79543996  0.53154561  0.18379668  1  -0.186769  0.001789  3.605702  0.004  -0.282421  -0.000325  3.866012  0.002  -0.279505  0.000381  3.876044  0.002  -0.145618  -0.283969  -0.000918  3.859931  0.001
C  C64  1  0.73627557  0.53179805  0.68375881  1  -0.186686  -0.001764  3.606728  -0.004  -0.282903  0.00035  3.86697  -0.002  -0.279947  -0.000367  3.876888  -0.002  -0.145775  -0.284296  0.000921  3.860746  -0.001
C  C65  1  0.20455772  0.46845517  0.81620134  1  -0.186738  0.001767  3.605585  0.004  -0.282384  -0.000325  3.865906  0.002  -0.279458  0.00038  3.875932  0.002  -0.145605  -0.283935  -0.000918  3.859828  0.001
N  N66  1  0.28607280  0.36433510  0.39249846  1  -0.097326  0.091584  3.310488  0.113  -0.026501  0.059691  3.575982  0.079  -0.053634  0.048903  3.604921  0.068  -0.359908  -0.010266  0.065303  3.557769  0.083
N  N67  1  0.92154723  0.63552344  0.10754495  1  -0.095911  -0.091648  3.307728  -0.113  -0.025944  -0.059773  3.574529  -0.079  -0.053238  -0.049017  3.603697  -0.069  -0.359428  -0.009787  -0.065374  3.55653  -0.083
N  N68  1  0.71392489  0.63566569  0.60750193  1  -0.097317  0.091598  3.310523  0.113  -0.026508  0.059692  3.576013  0.079  -0.053638  0.048906  3.60495  0.068  -0.359874  -0.010269  0.065302  3.557801  0.083
N  N69  1  0.07845670  0.36447979  0.89245640  1  -0.095871  -0.091639  3.307693  -0.113  -0.025911  -0.059774  3.574463  -0.079  -0.053212  -0.049018  3.603644  -0.069  -0.35944  -0.00975  -0.065374  3.55647  -0.083
O  O70  1  0.31195875  0.23955101  0.57644947  1  -0.68602  -0.001506  1.95671  -0.001  -0.646722  -0.001341  2.212539  -0.001  -0.670389  -0.001389  2.19928  -0.001  -0.387383  -0.630727  -0.001251  2.222048  -0.001
O  O71  1  0.07231938  0.76062338  0.92372297  1  -0.686323  0.001539  1.957028  0.001  -0.647035  0.001359  2.212791  0.001  -0.670816  0.001405  2.19953  0.001  -0.387309  -0.630867  0.001251  2.221891  0.001
O  O72  1  0.68804034  0.76044004  0.42354551  1  -0.68596  -0.001506  1.956828  -0.001  -0.64673  -0.00134  2.21263  -0.001  -0.670397  -0.00139  2.199372  -0.001  -0.387359  -0.630734  -0.001251  2.222134  -0.001
O  O73  1  0.92768329  0.23937985  0.07627917  1  -0.686331  0.001536  1.956888  0.001  -0.647053  0.001359  2.212685  0.001  -0.670834  0.001406  2.199422  0.001  -0.387314  -0.630875  0.001251  2.221761  0.001
O  O74  1  0.00388195  0.13594135  0.60156789  1  -0.658305  2.1e-05  2.008796  0.0  -0.584325  -2e-06  2.219677  0.0  -0.611298  -2.2e-05  2.210719  0.0  -0.313437  -0.56548  2.5e-05  2.225356  0.0
O  O75  1  0.86774780  0.86400175  0.89851628  1  -0.658445  -0.000153  2.007223  0.0  -0.584283  -7.6e-05  2.217909  0.0  -0.611221  -2.3e-05  2.208884  0.0  -0.313429  -0.565586  -2.4e-05  2.223557  0.0
O  O76  1  0.99611768  0.86405579  0.39842988  1  -0.658355  2.7e-05  2.008834  0.0  -0.584402  -4e-06  2.219639  0.0  -0.611371  -2e-05  2.210682  0.0  -0.313472  -0.565556  2.5e-05  2.225316  0.0
O  O77  1  0.13225676  0.13600025  0.10148340  1  -0.658439  -0.000155  2.007287  0.0  -0.584298  -7.6e-05  2.218  0.0  -0.611234  -2.2e-05  2.208973  0.0  -0.313447  -0.565602  -2.4e-05  2.223646  0.0
O  O78  1  0.59651197  0.18479085  0.29931230  1  -0.701587  0.013325  1.940091  0.016  -0.667846  0.007148  2.185195  0.009  -0.690711  0.003829  2.172584  0.005  -0.418041  -0.650981  0.010641  2.192876  0.013
O  O79  1  0.41148919  0.81513001  0.20076136  1  -0.701146  -0.013318  1.940403  -0.016  -0.667609  -0.007133  2.185477  -0.009  -0.690494  -0.003821  2.172881  -0.005  -0.417846  -0.650635  -0.010662  2.193094  -0.013
O  O80  1  0.40347329  0.81520264  0.70068681  1  -0.701551  0.013323  1.939984  0.016  -0.667869  0.007148  2.185015  0.009  -0.69075  0.003829  2.172437  0.005  -0.41813  -0.651002  0.010642  2.192697  0.013
O  O81  1  0.58851298  0.18486470  0.79923783  1  -0.701118  -0.013317  1.940455  -0.016  -0.667588  -0.007132  2.185508  -0.009  -0.690471  -0.003821  2.17291  -0.005  -0.417866  -0.65061  -0.010661  2.193113  -0.013
O  O82  1  0.63767932  0.38765281  0.42528461  1  -0.621394  0.070997  2.053077  0.093  -0.579688  0.050466  2.320689  0.071  -0.618748  0.040941  2.312107  0.061  -0.327215  -0.554051  0.056064  2.326876  0.076
O  O83  1  0.24981031  0.61222271  0.07489290  1  -0.622023  -0.070861  2.05456  -0.093  -0.579991  -0.050483  2.32185  -0.071  -0.619092  -0.040939  2.313145  -0.061  -0.327441  -0.554368  -0.055989  2.328103  -0.076
O  O84  1  0.36232217  0.61234554  0.57471403  1  -0.621354  0.07098  2.053192  0.093  -0.57969  0.050461  2.32074  0.071  -0.618744  0.040938  2.312158  0.061  -0.327223  -0.554054  0.056055  2.326931  0.076
O  O85  1  0.75018689  0.38776957  0.92510851  1  -0.62197  -0.070853  2.054568  -0.093  -0.57995  -0.050479  2.321826  -0.071  -0.61905  -0.04094  2.313122  -0.061  -0.327443  -0.554331  -0.055985  2.328083  -0.076
O  O86  1  0.13929470  0.99993276  0.74999066  1  -0.899067  3.8e-05  1.809435  0.0  -0.860634  2.8e-05  1.995763  0.0  -0.875121  1.6e-05  1.959437  0.0  -0.657903  -0.849919  1e-06  2.020882  0.0
O  O87  1  0.86070364  0.00006681  0.25000965  1  -0.899078  4.1e-05  1.809423  0.0  -0.86063  2.8e-05  1.995722  0.0  -0.875118  1.5e-05  1.959399  0.0  -0.657909  -0.84992  1e-06  2.02084  0.0
O  O88  1  0.69059190  0.13738517  0.53044742  1  -0.910133  6.7e-05  1.784077  0.0  -0.869109  7.1e-05  1.960145  0.0  -0.885194  4e-05  1.928252  0.0  -0.682976  -0.857706  0.000134  1.98309  0.0
O  O89  1  0.55311366  0.86256230  0.96968481  1  -0.90928  -8.1e-05  1.784359  0.0  -0.868375  -8.3e-05  1.961971  0.0  -0.88447  -4.9e-05  1.929994  0.0  -0.682658  -0.856802  -0.000133  1.983987  0.0
O  O90  1  0.30940518  0.86261441  0.46955369  1  -0.910209  6.6e-05  1.783952  0.0  -0.869186  7e-05  1.960048  0.0  -0.885263  4e-05  1.928167  0.0  -0.682996  -0.857786  0.000134  1.982989  0.0
O  O91  1  0.44689091  0.13743970  0.03031566  1  -0.909334  -8e-05  1.784329  0.0  -0.868412  -8.3e-05  1.961914  0.0  -0.884508  -4.9e-05  1.929939  0.0  -0.682705  -0.856838  -0.000133  1.98393  0.0
