# generated using pymatgen
data_Zn2H28C42N7O11
_symmetry_space_group_name_H-M   'P 1'
_cell_length_a   16.48960370
_cell_length_b   17.87382435
_cell_length_c   31.33309373
_cell_angle_alpha   90.24646087
_cell_angle_beta   90.06335981
_cell_angle_gamma   89.95184973
_symmetry_Int_Tables_number   1
_chemical_formula_structural   Zn2H28C42N7O11
_chemical_formula_sum   'Zn4 H56 C84 N14 O22'
_cell_volume   9234.77984573
_cell_formula_units_Z   2
loop_
 _symmetry_equiv_pos_site_id
 _symmetry_equiv_pos_as_xyz
  1  'x, y, z'
loop_
 _atom_site_type_symbol
 _atom_site_label
 _atom_site_symmetry_multiplicity
 _atom_site_fract_x
 _atom_site_fract_y
 _atom_site_fract_z
 _atom_site_occupancy
 _atom_site_pbe_bader_charge
 _atom_site_pbe_bader_spin_density
 _atom_site_pbe_cm5_charge
 _atom_site_pbe_ddec_charge
 _atom_site_pbe_ddec_spin_density
 _atom_site_pbe_ddec_sum_bond_order
 _atom_site_pbe_magmom
Zn  Zn0  1  0.58212132  0.49868814  0.50276487  1  1.292871  0  0.665672  0.817041  0  2.406413  0
Zn  Zn1  1  0.41304711  0.50016380  0.49741243  1  1.298967  0  0.673721  0.820144  0  2.464469  0
Zn  Zn2  1  0.41786440  0.50086145  0.92601437  1  1.294413  0  0.665666  0.816695  0  2.407487  0
Zn  Zn3  1  0.58688298  0.50205117  0.93135636  1  1.294184  0  0.673873  0.820316  0  2.464488  0
H  H4  1  0.28811829  0.57603322  0.55042177  1  0.150201  0  0.129211  0.113132  0  0.979965  0
H  H5  1  0.13527660  0.58164378  0.55283694  1  0.094941  0  0.112645  0.120299  0  0.983336  0
H  H6  1  0.28417628  0.41726344  0.45391490  1  0.100447  0  0.128027  0.113069  0  0.974483  0
H  H7  1  0.71208861  0.58212626  0.54790379  1  0.114689  0  0.129083  0.114594  0  0.972493  0
H  H8  1  0.70810143  0.41741904  0.45463697  1  0.122412  0  0.125874  0.107444  0  0.979754  0
H  H9  1  0.86090689  0.41307786  0.45147327  1  0.079052  0  0.111377  0.118829  0  0.985734  0
H  H10  1  0.63026845  0.73278873  0.50258764  1  0.082208  0  0.096356  0.103843  0  1.018885  0
H  H11  1  0.63500552  0.87311282  0.50278610  1  0.044692  0  0.097269  0.097879  0  0.999764  0
H  H12  1  0.37028654  0.74004342  0.50113255  1  0.085819  0  0.102497  0.117738  0  1.007444  0
H  H13  1  0.62681795  0.26308773  0.50305186  1  0.088585  0  0.101441  0.11655  0  1.009873  0
H  H14  1  0.36669603  0.26143101  0.50174952  1  0.129216  0  0.098545  0.107654  0  1.015065  0
H  H15  1  0.36762849  0.12109260  0.50189073  1  0.014535  0  0.097986  0.098789  0  0.997976  0
H  H16  1  0.36585442  0.50413778  0.06358957  1  0.099985  0  0.098349  0.106752  0  1.014062  0
H  H17  1  0.36380362  0.50676807  0.14370273  1  0.071071  0  0.097052  0.09776  0  0.998721  0
H  H18  1  0.62585781  0.50467000  0.06545189  1  0.076972  0  0.100224  0.115463  0  1.012847  0
H  H19  1  0.37402084  0.50195264  0.36331922  1  0.08183  0  0.100327  0.11552  0  1.012974  0
H  H20  1  0.63402561  0.50186721  0.36526207  1  0.105616  0  0.098217  0.106672  0  1.014291  0
H  H21  1  0.63615540  0.50570454  0.28518272  1  0.064177  0  0.097446  0.098068  0  0.999518  0
H  H22  1  0.71160185  0.57756489  0.87851667  1  0.128008  0  0.128937  0.112662  0  0.980262  0
H  H23  1  0.86441171  0.58335827  0.87614919  1  0.074467  0  0.112594  0.120127  0  0.983502  0
H  H24  1  0.71597005  0.41973518  0.97473823  1  0.110027  0  0.128116  0.112906  0  0.974253  0
H  H25  1  0.28768945  0.58387836  0.88096952  1  0.121201  0  0.129107  0.114465  0  0.972469  0
H  H26  1  0.29211040  0.42014298  0.97397538  1  0.130066  0  0.12574  0.107018  0  0.979723  0
H  H27  1  0.13932494  0.41561690  0.97708762  1  0.086731  0  0.111179  0.118686  0  0.986417  0
H  H28  1  0.36983547  0.73518195  0.92543076  1  0.064783  0  0.096453  0.104427  0  1.018395  0
H  H29  1  0.36541085  0.87550151  0.92483070  1  0.084781  0  0.097548  0.09901  0  0.998109  0
H  H30  1  0.62983429  0.74160044  0.92684136  1  0.086304  0  0.10225  0.117552  0  1.007701  0
H  H31  1  0.37313050  0.26538478  0.92532900  1  0.099532  0  0.101667  0.117418  0  1.008679  0
H  H32  1  0.63323758  0.26322196  0.92704945  1  0.0792  0  0.098599  0.10758  0  1.014383  0
H  H33  1  0.63226172  0.12290092  0.92630789  1  0.053956  0  0.097936  0.099137  0  0.998347  0
H  H34  1  0.06207533  0.40874071  0.44373516  1  0.443939  0  0.308075  0.303267  0  0.959193  0
H  H35  1  0.15321067  0.37568525  0.42424343  1  0.446399  0  0.322393  0.317908  0  0.923592  0
H  H36  1  0.93496923  0.59808624  0.55375985  1  0.436752  0  0.312456  0.309084  0  0.953877  0
H  H37  1  0.84349768  0.63202013  0.57340477  1  0.469209  0  0.329038  0.326836  0  0.915887  0
H  H38  1  0.36242345  0.94493099  0.49646643  1  0.429517  0  0.296562  0.291022  0  0.977673  0
H  H39  1  0.30635508  0.86429160  0.49349232  1  0.439549  0  0.308682  0.302525  0  0.941471  0
H  H40  1  0.64309258  0.05859457  0.49663949  1  0.429405  0  0.297421  0.291913  0  0.975376  0
H  H41  1  0.69600663  0.14113871  0.49498830  1  0.437845  0  0.308356  0.301375  0  0.944359  0
H  H42  1  0.63772906  0.49807626  0.18228837  1  0.428332  0  0.295459  0.289383  0  0.980145  0
H  H43  1  0.69235642  0.49263583  0.13582618  1  0.405411  0  0.306755  0.300066  0  0.945524  0
H  H44  1  0.36226434  0.49732371  0.24643099  1  0.41732  0  0.295598  0.289418  0  0.979997  0
H  H45  1  0.30764785  0.49098031  0.29282669  1  0.441223  0  0.306531  0.298619  0  0.947164  0
H  H46  1  0.93807235  0.41156911  0.98494782  1  0.441285  0  0.308007  0.303044  0  0.958979  0
H  H47  1  0.84703531  0.37865212  0.00438392  1  0.457611  0  0.322321  0.317505  0  0.924041  0
H  H48  1  0.06488044  0.59985588  0.87515016  1  0.432644  0  0.312525  0.309651  0  0.953801  0
H  H49  1  0.15635882  0.63351477  0.85562054  1  0.462192  0  0.32866  0.326739  0  0.915469  0
H  H50  1  0.63802824  0.94662887  0.93090250  1  0.460818  0  0.297021  0.291103  0  0.976964  0
H  H51  1  0.69403622  0.86595940  0.93417677  1  0.429516  0  0.308665  0.302263  0  0.941856  0
H  H52  1  0.35676466  0.06094031  0.93094214  1  0.467124  0  0.297422  0.291602  0  0.975309  0
H  H53  1  0.30389345  0.14357840  0.93293318  1  0.440692  0  0.308423  0.302206  0  0.942649  0
H  H54  1  0.28989030  0.50059865  0.64641547  1  0.617316  0  0.320591  0.355502  0  0.915166  0
H  H55  1  0.31445929  0.50074338  0.73973605  1  0.66818  0  0.309933  0.369692  0  0.952344  0
H  H56  1  0.38094637  0.50027947  0.81703202  1  0.632243  0  0.296284  0.353805  0  0.994241  0
H  H57  1  0.71003121  0.50085598  0.78231670  1  0.618362  0  0.320748  0.355694  0  0.91437  0
H  H58  1  0.68547171  0.50027317  0.68900527  1  0.655461  0  0.309891  0.369676  0  0.952009  0
H  H59  1  0.61894408  0.49907597  0.61168040  1  0.651878  0  0.29654  0.354005  0  0.993917  0
C  C60  1  0.49611861  0.64542904  0.50138840  1  1.565398  0  0.214475  0.593262  0  4.159742  0
C  C61  1  0.49619478  0.50210745  0.58593609  1  1.54903  0  0.216111  0.62063  0  4.128917  0
C  C62  1  0.49648314  0.35331928  0.50150385  1  1.495799  0  0.214789  0.593513  0  4.160155  0
C  C63  1  0.50046916  0.49850193  0.41619820  1  1.604249  0  0.212973  0.594078  0  4.163507  0
C  C64  1  0.50388091  0.64742028  0.92699379  1  1.532164  0  0.215329  0.59493  0  4.156514  0
C  C65  1  0.50366819  0.50265708  0.84280251  1  1.551428  0  0.215303  0.621291  0  4.127731  0
C  C66  1  0.50364161  0.35536652  0.92736904  1  1.540522  0  0.214821  0.594064  0  4.159353  0
C  C67  1  0.49934231  0.50150708  0.01258853  1  1.583978  0  0.212861  0.592808  0  4.165357  0
C  C68  1  0.25018794  0.54273807  0.52915193  1  0.477877  0  0.04069  0.065473  0  3.950733  0
C  C69  1  0.16628490  0.54467720  0.53044755  1  -0.022437  0  -0.076853  -0.158254  0  3.975597  0
C  C70  1  0.12059388  0.49887241  0.50275186  1  0.110239  0  -0.002001  0.046305  0  4.10442  0
C  C71  1  0.16283782  0.45007925  0.47432803  1  0.422651  0  0.114016  0.229934  0  4.081663  0
C  C72  1  0.24801353  0.45275039  0.47508478  1  0.594325  0  0.047994  -0.025113  0  3.892376  0
C  C73  1  0.03518459  0.49999127  0.50238447  1  -0.440456  0  -0.038906  -0.094872  0  4.130167  0
C  C74  1  0.96108934  0.49777320  0.50011966  1  0.009244  0  -0.039613  -0.098571  0  4.13263  0
C  C75  1  0.87569454  0.49828730  0.50013506  1  0.103996  0  -0.002259  0.046006  0  4.102098  0
C  C76  1  0.83341768  0.54769530  0.52828942  1  0.445967  0  0.118568  0.238355  0  4.083101  0
C  C77  1  0.74807344  0.54549076  0.52730088  1  0.589474  0  0.047726  -0.025456  0  3.883487  0
C  C78  1  0.74602149  0.45284569  0.47477866  1  0.472417  0  0.034359  0.050338  0  3.977357  0
C  C79  1  0.82990497  0.45108669  0.47329774  1  -0.002692  0  -0.079915  -0.160472  0  3.9913  0
C  C80  1  0.49970048  0.72915823  0.50195235  1  -0.050219  0  -0.019032  -0.006056  0  3.997854  0
C  C81  1  0.57494447  0.76604683  0.50256808  1  -0.0798  0  -0.108437  -0.138971  0  4.051957  0
C  C82  1  0.57714786  0.84355349  0.50263614  1  0.019311  0  -0.093548  -0.12059  0  4.026732  0
C  C83  1  0.50508208  0.88625335  0.50233511  1  0.124617  0  -0.017122  0.025791  0  4.099027  0
C  C84  1  0.42863772  0.84867782  0.50203342  1  0.296693  0  0.101293  0.266456  0  4.069074  0
C  C85  1  0.42771841  0.77028371  0.50162483  1  0.09451  0  -0.101381  -0.220836  0  3.94945  0
C  C86  1  0.50602530  0.96513302  0.50201178  1  -0.546779  0  -0.052461  -0.112875  0  4.157312  0
C  C87  1  0.49951265  0.03350994  0.50183965  1  0.101056  0  -0.051553  -0.111076  0  4.157788  0
C  C88  1  0.49800266  0.11238534  0.50203506  1  0.121073  0  -0.017493  0.023647  0  4.101316  0
C  C89  1  0.57284943  0.15250718  0.50236129  1  0.347362  0  0.100918  0.267034  0  4.072037  0
C  C90  1  0.57063707  0.23091937  0.50240293  1  -0.048635  0  -0.102255  -0.222703  0  3.954069  0
C  C91  1  0.49705748  0.26953230  0.50194058  1  0.099773  0  -0.019568  -0.006906  0  3.999283  0
C  C92  1  0.42331738  0.23009241  0.50176055  1  -0.092738  0  -0.106268  -0.137679  0  4.048007  0
C  C93  1  0.42426023  0.15259899  0.50188749  1  0.067678  0  -0.093673  -0.120101  0  4.0252  0
C  C94  1  0.45022578  0.50256038  0.76819567  1  0.535694  0  0.079358  0.267715  0  4.034747  0
C  C95  1  0.59669156  0.50294414  0.77807318  1  0.540407  0  0.06143  0.19386  0  4.072541  0
C  C96  1  0.60728540  0.50243082  0.73409809  1  0.446667  0  0.044635  0.121819  0  4.107955  0
C  C97  1  0.54025830  0.50244839  0.70564677  1  0.087868  0  -0.033053  -0.116146  0  4.066393  0
C  C98  1  0.54970038  0.50204189  0.66053964  1  0.473974  0  0.080236  0.268258  0  4.032866  0
C  C99  1  0.40322943  0.50277542  0.65066675  1  0.523054  0  0.061351  0.193148  0  4.074234  0
C  C100  1  0.39263924  0.50253847  0.69463810  1  0.449356  0  0.044517  0.122281  0  4.106363  0
C  C101  1  0.45966930  0.50261657  0.72309125  1  0.02019  0  -0.033124  -0.116689  0  4.06647  0
C  C102  1  0.51721812  0.50292097  0.79612675  1  0.003353  0  -0.04836  -0.275424  0  3.980521  0
C  C103  1  0.48270007  0.50251549  0.63261186  1  0.063048  0  -0.048957  -0.275117  0  3.980642  0
C  C104  1  0.49640816  0.50349678  0.06040928  1  -0.058552  0  -0.019577  -0.005562  0  3.997798  0
C  C105  1  0.42182495  0.50451263  0.08206481  1  0.030407  0  -0.107016  -0.1387  0  4.046312  0
C  C106  1  0.42109975  0.50612976  0.12632063  1  -0.134012  0  -0.093808  -0.121002  0  4.022653  0
C  C107  1  0.49399038  0.50676478  0.15002429  1  0.210377  0  -0.018288  0.023607  0  4.102634  0
C  C108  1  0.56968633  0.50636872  0.12794321  1  0.300687  0  0.09953  0.265982  0  4.073521  0
C  C109  1  0.56909067  0.50463806  0.08327583  1  0.087181  0  -0.103437  -0.223814  0  3.959493  0
C  C110  1  0.49516386  0.50695742  0.19500725  1  -0.180875  0  -0.051967  -0.112202  0  4.15453  0
C  C111  1  0.50483780  0.50661903  0.23384575  1  -0.388427  0  -0.05164  -0.111213  0  4.154293  0
C  C112  1  0.50596435  0.50561718  0.27882296  1  0.211327  0  -0.018911  0.023577  0  4.103899  0
C  C113  1  0.43024998  0.50473090  0.30087541  1  0.414548  0  0.099485  0.265121  0  4.073623  0
C  C114  1  0.43081268  0.50227272  0.34551959  1  -0.032584  0  -0.103429  -0.222762  0  3.959094  0
C  C115  1  0.50346819  0.50093382  0.36839515  1  -0.059858  0  -0.019539  -0.007847  0  3.998822  0
C  C116  1  0.57807853  0.50240543  0.34677340  1  0.02199  0  -0.107011  -0.137806  0  4.046312  0
C  C117  1  0.57883691  0.50469964  0.30253628  1  -0.130366  0  -0.093872  -0.121402  0  4.024533  0
C  C118  1  0.74962156  0.54449197  0.89972615  1  0.487008  0  0.041608  0.066488  0  3.95041  0
C  C119  1  0.83352193  0.54653075  0.89845133  1  0.004984  0  -0.077597  -0.158826  0  3.974396  0
C  C120  1  0.87934801  0.50103469  0.92607038  1  0.109359  0  -0.001874  0.046799  0  4.103154  0
C  C121  1  0.83722049  0.45246556  0.95439591  1  0.416877  0  0.114313  0.228778  0  4.083255  0
C  C122  1  0.75204279  0.45503901  0.95363493  1  0.601884  0  0.047786  -0.023979  0  3.890973  0
C  C123  1  0.96477051  0.50217222  0.92641802  1  -0.216381  0  -0.038061  -0.093724  0  4.12958  0
C  C124  1  0.03887722  0.49989317  0.92862312  1  -0.213198  0  -0.040538  -0.100029  0  4.132582  0
C  C125  1  0.12428564  0.50040795  0.92858372  1  0.147543  0  -0.002008  0.046967  0  4.100325  0
C  C126  1  0.16646571  0.54957967  0.90053442  1  0.402053  0  0.118357  0.237876  0  4.083349  0
C  C127  1  0.25181419  0.54742640  0.90151945  1  0.581461  0  0.048129  -0.024476  0  3.882472  0
C  C128  1  0.25408165  0.45530568  0.95388191  1  0.465735  0  0.034457  0.051505  0  3.975494  0
C  C129  1  0.17019321  0.45347560  0.95533948  1  -0.014401  0  -0.079817  -0.161013  0  3.990136  0
C  C130  1  0.50041307  0.73113354  0.92611321  1  0.083662  0  -0.018865  -0.007258  0  3.999412  0
C  C131  1  0.42523704  0.76823594  0.92536143  1  -0.037305  0  -0.108661  -0.139242  0  4.051369  0
C  C132  1  0.42319659  0.84574564  0.92507115  1  -0.105927  0  -0.094107  -0.12255  0  4.026309  0
C  C133  1  0.49532965  0.88823089  0.92529927  1  0.141793  0  -0.01722  0.025959  0  4.098345  0
C  C134  1  0.57171059  0.85043630  0.92565516  1  0.398426  0  0.101128  0.265994  0  4.06919  0
C  C135  1  0.57247144  0.77204554  0.92628073  1  0.013848  0  -0.101071  -0.220223  0  3.950154  0
C  C136  1  0.49438875  0.96712642  0.92557274  1  -0.508967  0  -0.051958  -0.111255  0  4.156744  0
C  C137  1  0.50047700  0.03552550  0.92585085  1  -0.049661  0  -0.0521  -0.112723  0  4.158659  0
C  C138  1  0.50189822  0.11441805  0.92594740  1  0.218774  0  -0.017507  0.024634  0  4.098193  0
C  C139  1  0.42706439  0.15469498  0.92569086  1  0.450799  0  0.101416  0.267009  0  4.071126  0
C  C140  1  0.42930649  0.23310802  0.92596184  1  -0.072968  0  -0.10224  -0.223716  0  3.952796  0
C  C141  1  0.50292006  0.27156720  0.92670220  1  -0.009415  0  -0.0191  -0.006547  0  3.998962  0
C  C142  1  0.57662254  0.23198409  0.92684620  1  0.03477  0  -0.10736  -0.138175  0  4.048237  0
C  C143  1  0.57564769  0.15450305  0.92637665  1  -0.103404  0  -0.093101  -0.120335  0  4.025385  0
N  N144  1  0.28935641  0.49780000  0.50128957  1  -1.232066  0  -0.31615  -0.163947  0  3.571966  0
N  N145  1  0.70664033  0.49952478  0.50164763  1  -1.227288  0  -0.31811  -0.168292  0  3.579663  0
N  N146  1  0.71057700  0.49976175  0.92748935  1  -1.240449  0  -0.316579  -0.164641  0  3.571417  0
N  N147  1  0.29334688  0.50175360  0.92710483  1  -1.226189  0  -0.318265  -0.168941  0  3.579987  0
N  N148  1  0.12242206  0.40134986  0.44806618  1  -1.234607  0  -0.583505  -0.608042  0  3.350948  0
N  N149  1  0.87386128  0.59420421  0.55545931  1  -1.252723  0  -0.578139  -0.605732  0  3.364481  0
N  N150  1  0.35778117  0.88973124  0.50354752  1  -1.224173  0  -0.596897  -0.619306  0  3.337591  0
N  N151  1  0.64522832  0.11385419  0.50414361  1  -1.208105  0  -0.596632  -0.619057  0  3.341206  0
N  N152  1  0.64129595  0.51015418  0.15071372  1  -1.189454  0  -0.598639  -0.620131  0  3.341299  0
N  N153  1  0.35865144  0.50881065  0.27813190  1  -1.21914  0  -0.598263  -0.618207  0  3.342167  0
N  N154  1  0.87776226  0.40402625  0.98057620  1  -1.241911  0  -0.583608  -0.60743  0  3.351868  0
N  N155  1  0.12598225  0.59585761  0.87344919  1  -1.237303  0  -0.577706  -0.606183  0  3.364535  0
N  N156  1  0.64263159  0.89124355  0.92402213  1  -1.248043  0  -0.597126  -0.618943  0  3.337861  0
N  N157  1  0.35466869  0.11618243  0.92366699  1  -1.271555  0  -0.597103  -0.619767  0  3.339965  0
O  O158  1  0.56348170  0.61061803  0.50550023  1  -1.168669  0  -0.322599  -0.555666  0  2.349926  0
O  O159  1  0.42691048  0.61510014  0.49683170  1  -1.16394  0  -0.317502  -0.544228  0  2.318563  0
O  O160  1  0.43580470  0.50439481  0.56128926  1  -1.174128  0  -0.303996  -0.514859  0  2.395024  0
O  O161  1  0.57078492  0.49935020  0.57214919  1  -1.162989  0  -0.318063  -0.55769  0  2.310093  0
O  O162  1  0.42787000  0.38537671  0.49849895  1  -1.169286  0  -0.316725  -0.546333  0  2.330658  0
O  O163  1  0.56502281  0.38649019  0.50412431  1  -1.162704  0  -0.322617  -0.552854  0  2.339831  0
O  O164  1  0.56760240  0.49815730  0.43633351  1  -1.173654  0  -0.319774  -0.555242  0  2.308018  0
O  O165  1  0.43007817  0.49716830  0.43308912  1  -1.1691  0  -0.323654  -0.552642  0  2.336446  0
O  O166  1  0.43641379  0.61266808  0.92332681  1  -1.168272  0  -0.322311  -0.55569  0  2.348305  0
O  O167  1  0.57310662  0.61703076  0.93138446  1  -1.166494  0  -0.317952  -0.544511  0  2.317652  0
O  O168  1  0.56406350  0.50433645  0.86747233  1  -1.164235  0  -0.3036  -0.51515  0  2.393985  0
O  O169  1  0.42905165  0.50063579  0.85656477  1  -1.16428  0  -0.318089  -0.558274  0  2.310004  0
O  O170  1  0.57226690  0.38722665  0.93080844  1  -1.163416  0  -0.31683  -0.546628  0  2.328933  0
O  O171  1  0.43520486  0.38870853  0.92448368  1  -1.169287  0  -0.322531  -0.55281  0  2.341779  0
O  O172  1  0.43218438  0.50080876  0.99247246  1  -1.175759  0  -0.319894  -0.555035  0  2.308371  0
O  O173  1  0.56971535  0.50079796  0.99566688  1  -1.171535  0  -0.323437  -0.552116  0  2.336857  0
O  O174  1  0.33470168  0.50277053  0.62585864  1  -1.111071  0  -0.354636  -0.427693  0  2.304075  0
O  O175  1  0.31307602  0.50213997  0.70809149  1  -1.182453  0  -0.383488  -0.489698  0  2.294519  0
O  O176  1  0.37305149  0.50196784  0.78408169  1  -1.15888  0  -0.357132  -0.478057  0  2.320094  0
O  O177  1  0.66521616  0.50309561  0.80288260  1  -1.115716  0  -0.354899  -0.42817  0  2.302522  0
O  O178  1  0.68684577  0.50191793  0.72065080  1  -1.174005  0  -0.383537  -0.489362  0  2.295211  0
O  O179  1  0.62686200  0.50102984  0.64463506  1  -1.183162  0  -0.357796  -0.478822  0  2.319714  0
