# generated using pymatgen
data_CuSbH8C8(N2F3)2
_symmetry_space_group_name_H-M   'P 1'
_cell_length_a   7.99198723
_cell_length_b   8.35346614
_cell_length_c   10.74339524
_cell_angle_alpha   88.37955537
_cell_angle_beta   84.36832206
_cell_angle_gamma   65.29493233
_symmetry_Int_Tables_number   1
_chemical_formula_structural   CuSbH8C8(N2F3)2
_chemical_formula_sum   'Cu2 Sb2 H16 C16 N8 F12'
_cell_volume   648.38034045
_cell_formula_units_Z   2
loop_
 _symmetry_equiv_pos_site_id
 _symmetry_equiv_pos_as_xyz
  1  'x, y, z'
loop_
 _atom_site_type_symbol
 _atom_site_label
 _atom_site_symmetry_multiplicity
 _atom_site_fract_x
 _atom_site_fract_y
 _atom_site_fract_z
 _atom_site_occupancy
 _atom_site_hle17_bader_spin_density
 _atom_site_hle17_ddec_charge
 _atom_site_hle17_ddec_spin_density
 _atom_site_hle17_ddec_sum_bond_order
 _atom_site_hle17_magmom
 _atom_site_hse06_10hf_bader_spin_density
 _atom_site_hse06_10hf_ddec_charge
 _atom_site_hse06_10hf_ddec_spin_density
 _atom_site_hse06_10hf_ddec_sum_bond_order
 _atom_site_hse06_10hf_magmom
 _atom_site_hse06_bader_spin_density
 _atom_site_hse06_ddec_charge
 _atom_site_hse06_ddec_spin_density
 _atom_site_hse06_ddec_sum_bond_order
 _atom_site_hse06_magmom
 _atom_site_pbe_bader_spin_density
 _atom_site_pbe_cm5_charge
 _atom_site_pbe_ddec_charge
 _atom_site_pbe_ddec_spin_density
 _atom_site_pbe_ddec_sum_bond_order
 _atom_site_pbe_magmom
Cu  Cu0  1  0.72864899  0.57928872  0.26667078  1  0  0.505835  0  1.842521  0  0  0.387905  0  2.298057  0  0  0.371436  0  2.2653  0  0  0.616002  0.404407  0  2.316332  0
Cu  Cu1  1  0.27133979  0.42071580  0.73332231  1  0  0.505779  0  1.84276  0  0  0.387876  0  2.298223  0  0  0.371394  0  2.265466  0  0  0.616054  0.404358  0  2.316516  0
Sb  Sb2  1  0.57248332  0.17818255  0.21182146  1  0  2.182866  0  4.028738  0  0  2.013855  0  4.714667  0  0  2.100978  0  4.612537  0  0  0.929388  1.949938  0  4.788439  0
Sb  Sb3  1  0.42753528  0.82181714  0.78817429  1  0  2.182612  0  4.029067  0  0  2.013552  0  4.715108  0  0  2.100595  0  4.613108  0  0  0.929269  1.949553  0  4.789011  0
H  H4  1  0.40203142  0.68088279  0.11653061  1  0  0.10531  0  0.94068  0  0  0.108713  0  1.009321  0  0  0.112469  0  1.005385  0  0  0.116226  0.105979  0  1.012299  0
H  H5  1  0.59795463  0.31910818  0.88347494  1  0  0.105365  0  0.940674  0  0  0.108727  0  1.009368  0  0  0.112486  0  1.005424  0  0  0.116211  0.105995  0  1.012338  0
H  H6  1  0.07672755  0.91789038  0.14367222  1  0  0.094564  0  0.94754  0  0  0.099426  0  1.012937  0  0  0.102445  0  1.011027  0  0  0.110029  0.097207  0  1.014515  0
H  H7  1  0.92326811  0.08211544  0.85632970  1  0  0.094511  0  0.947355  0  0  0.099394  0  1.012742  0  0  0.102414  0  1.010824  0  0  0.109991  0.097174  0  1.014317  0
H  H8  1  0.16805571  0.03981183  0.49620049  1  0  0.082974  0  0.965246  0  0  0.087188  0  1.035802  0  0  0.089316  0  1.035263  0  0  0.108763  0.085552  0  1.036545  0
H  H9  1  0.83194331  0.96017278  0.50380238  1  0  0.082992  0  0.965049  0  0  0.08721  0  1.035575  0  0  0.089338  0  1.035036  0  0  0.108763  0.085602  0  1.03627  0
H  H10  1  0.49201508  0.80723708  0.46888505  1  0  0.095594  0  0.953104  0  0  0.099679  0  1.022569  0  0  0.103456  0  1.018887  0  0  0.113608  0.096899  0  1.025395  0
H  H11  1  0.50796695  0.19273793  0.53111724  1  0  0.095699  0  0.953225  0  0  0.099768  0  1.022679  0  0  0.103543  0  1.018999  0  0  0.113688  0.096989  0  1.025501  0
H  H12  1  0.80689911  0.34139820  0.48740426  1  0  0.093625  0  0.951039  0  0  0.101168  0  1.014814  0  0  0.103626  0  1.013643  0  0  0.118486  0.099574  0  1.015887  0
H  H13  1  0.19309031  0.65860737  0.51260646  1  0  0.093576  0  0.951092  0  0  0.101114  0  1.014881  0  0  0.103571  0  1.013712  0  0  0.118461  0.09952  0  1.015956  0
H  H14  1  0.98453982  0.71628977  0.34064817  1  0  0.090716  0  0.958089  0  0  0.096413  0  1.02604  0  0  0.099207  0  1.024066  0  0  0.117355  0.094769  0  1.02723  0
H  H15  1  0.01543888  0.28370882  0.65937082  1  0  0.090761  0  0.958053  0  0  0.09646  0  1.02598  0  0  0.099268  0  1.024007  0  0  0.117372  0.094794  0  1.027206  0
H  H16  1  0.74699531  0.78845557  0.04460320  1  0  0.104321  0  0.946469  0  0  0.105671  0  1.02001  0  0  0.11016  0  1.014837  0  0  0.118102  0.102587  0  1.023941  0
H  H17  1  0.25301762  0.21154015  0.95538554  1  0  0.104275  0  0.946588  0  0  0.105646  0  1.020121  0  0  0.110131  0  1.01496  0  0  0.118091  0.102568  0  1.024033  0
H  H18  1  0.02422566  0.26187094  0.14320137  1  0  0.103489  0  0.933482  0  0  0.108758  0  0.999854  0  0  0.112214  0  0.996927  0  0  0.12385  0.106454  0  1.001916  0
H  H19  1  0.97580814  0.73814215  0.85680341  1  0  0.1037  0  0.933393  0  0  0.108922  0  0.999808  0  0  0.112388  0  0.99687  0  0  0.123897  0.106625  0  1.001866  0
C  C20  1  0.34903694  0.76155562  0.20137272  1  0  0.091752  0  3.636707  0  0  0.062041  0  3.887901  0  0  0.064737  0  3.903681  0  0  0.052798  0.060187  0  3.877502  0
C  C21  1  0.65094232  0.23843920  0.79863418  1  0  0.091728  0  3.636718  0  0  0.062076  0  3.887832  0  0  0.06476  0  3.903642  0  0  0.052919  0.06023  0  3.877416  0
C  C22  1  0.16905016  0.89268815  0.21730909  1  0  0.065053  0  3.693819  0  0  0.044342  0  3.952351  0  0  0.043927  0  3.971207  0  0  0.048665  0.044556  0  3.939609  0
C  C23  1  0.83092804  0.10731745  0.78268751  1  0  0.065049  0  3.694066  0  0  0.044332  0  3.952546  0  0  0.043923  0  3.971406  0  0  0.048676  0.044545  0  3.939804  0
C  C24  1  0.21853770  0.96185746  0.40993305  1  0  0.072361  0  3.712534  0  0  0.050166  0  3.972049  0  0  0.049867  0  3.992012  0  0  0.048152  0.050252  0  3.958724  0
C  C25  1  0.78144609  0.03814664  0.59007994  1  0  0.072319  0  3.712835  0  0  0.050201  0  3.972285  0  0  0.049901  0  3.992256  0  0  0.048218  0.050298  0  3.958929  0
C  C26  1  0.39869702  0.83175832  0.39615899  1  0  0.068697  0  3.666293  0  0  0.040393  0  3.916569  0  0  0.043058  0  3.93139  0  0  0.044763  0.038487  0  3.907028  0
C  C27  1  0.60128834  0.16822893  0.60382989  1  0  0.068488  0  3.666325  0  0  0.040138  0  3.916687  0  0  0.042806  0  3.931508  0  0  0.044554  0.038223  0  3.907165  0
C  C28  1  0.89288174  0.41268640  0.49346537  1  0  0.095825  0  3.64255  0  0  0.066042  0  3.89401  0  0  0.069363  0  3.906746  0  0  0.052428  0.063288  0  3.88637  0
C  C29  1  0.10710888  0.58731637  0.50655555  1  0  0.095903  0  3.642225  0  0  0.066075  0  3.893683  0  0  0.069402  0  3.906408  0  0  0.052412  0.063312  0  3.886041  0
C  C30  1  0.99169124  0.61925990  0.41204423  1  0  0.079506  0  3.652489  0  0  0.049714  0  3.906607  0  0  0.053563  0  3.918358  0  0  0.047186  0.046509  0  3.899676  0
C  C31  1  0.00829993  0.38073894  0.58797390  1  0  0.079585  0  3.652482  0  0  0.049753  0  3.90655  0  0  0.053577  0  3.918331  0  0  0.047224  0.046535  0  3.899633  0
C  C32  1  0.86115544  0.65986230  0.02554113  1  0  0.080679  0  3.65227  0  0  0.05187  0  3.905765  0  0  0.054999  0  3.918295  0  0  0.048153  0.048688  0  3.899203  0
C  C33  1  0.13886736  0.34012830  0.97444606  1  0  0.080836  0  3.652009  0  0  0.051959  0  3.905567  0  0  0.0551  0  3.918073  0  0  0.048223  0.048778  0  3.899006  0
C  C34  1  0.01286965  0.36801768  0.07863911  1  0  0.088506  0  3.638911  0  0  0.060366  0  3.887378  0  0  0.063316  0  3.900664  0  0  0.052407  0.057909  0  3.879601  0
C  C35  1  0.98715464  0.63198614  0.92135434  1  0  0.088481  0  3.638904  0  0  0.060349  0  3.887283  0  0  0.063275  0  3.900618  0  0  0.052469  0.057888  0  3.879508  0
N  N36  1  0.46498008  0.73151072  0.29111578  1  0  -0.261964  0  3.395196  0  0  -0.193723  0  3.698328  0  0  -0.198552  0  3.705307  0  0  -0.35728  -0.191177  0  3.693474  0
N  N37  1  0.53500661  0.26848178  0.70887853  1  0  -0.261825  0  3.394783  0  0  -0.193628  0  3.697932  0  0  -0.198462  0  3.704916  0  0  -0.35725  -0.191087  0  3.693091  0
N  N38  1  0.10251595  0.99419957  0.32092084  1  0  -0.260476  0  3.042421  0  0  -0.232201  0  3.317199  0  0  -0.238678  0  3.33329  0  0  -0.303404  -0.227571  0  3.306158  0
N  N39  1  0.89747352  0.00580887  0.67907681  1  0  -0.260401  0  3.042808  0  0  -0.232154  0  3.317566  0  0  -0.238629  0  3.333651  0  0  -0.303451  -0.227543  0  3.306559  0
N  N40  1  0.88284983  0.53275871  0.40428690  1  0  -0.245566  0  3.345327  0  0  -0.180617  0  3.649549  0  0  -0.180809  0  3.652156  0  0  -0.356088  -0.181624  0  3.647921  0
N  N41  1  0.11713935  0.46723353  0.59572586  1  0  -0.245609  0  3.345197  0  0  -0.18055  0  3.6493  0  0  -0.180742  0  3.651904  0  0  -0.356054  -0.181536  0  3.647645  0
N  N42  1  0.87321097  0.52819034  0.10555438  1  0  -0.255613  0  3.365472  0  0  -0.190096  0  3.670221  0  0  -0.191006  0  3.674448  0  0  -0.358005  -0.190692  0  3.667515  0
N  N43  1  0.12681955  0.47181346  0.89444702  1  0  -0.255758  0  3.365254  0  0  -0.190194  0  3.669978  0  0  -0.191103  0  3.674184  0  0  -0.358038  -0.190788  0  3.667259  0
F  F44  1  0.68123741  0.30693539  0.29661219  1  0  -0.51996  0  0.945083  0  0  -0.480653  0  1.154823  0  0  -0.494701  0  1.12892  0  0  -0.248769  -0.47078  0  1.17313  0
F  F45  1  0.31879312  0.69306885  0.70336221  1  0  -0.519935  0  0.945102  0  0  -0.48059  0  1.154805  0  0  -0.494639  0  1.128932  0  0  -0.248761  -0.470717  0  1.173142  0
F  F46  1  0.36995096  0.25623318  0.34091219  1  0  -0.514126  0  0.872114  0  0  -0.472758  0  1.041245  0  0  -0.490628  0  1.022767  0  0  -0.256744  -0.459581  0  1.054455  0
F  F47  1  0.63007722  0.74381459  0.65907860  1  0  -0.514048  0  0.872105  0  0  -0.472685  0  1.041261  0  0  -0.490558  0  1.022814  0  0  -0.256729  -0.459507  0  1.054497  0
F  F48  1  0.70071713  0.97115898  0.30703509  1  0  -0.520064  0  0.89517  0  0  -0.482009  0  1.085635  0  0  -0.498476  0  1.064406  0  0  -0.247088  -0.469793  0  1.100509  0
F  F49  1  0.29925369  0.02885163  0.69297220  1  0  -0.520063  0  0.895179  0  0  -0.481962  0  1.085619  0  0  -0.498409  0  1.064392  0  0  -0.247077  -0.469707  0  1.100509  0
F  F50  1  0.77979230  0.10079322  0.08626348  1  0  -0.509944  0  0.866481  0  0  -0.468208  0  1.039878  0  0  -0.486394  0  1.019905  0  0  -0.245018  -0.454736  0  1.053938  0
F  F51  1  0.22023549  0.89916136  0.91373776  1  0  -0.509871  0  0.866459  0  0  -0.468128  0  1.039855  0  0  -0.486313  0  1.019912  0  0  -0.24501  -0.454663  0  1.053951  0
F  F52  1  0.44595540  0.38156654  0.11411582  1  0  -0.508652  0  0.870124  0  0  -0.46942  0  1.043246  0  0  -0.486556  0  1.022167  0  0  -0.249342  -0.456708  0  1.058212  0
F  F53  1  0.55409037  0.61841829  0.88584287  1  0  -0.508643  0  0.870247  0  0  -0.469376  0  1.043371  0  0  -0.486475  0  1.022292  0  0  -0.249311  -0.45664  0  1.058342  0
F  F54  1  0.46163933  0.05140154  0.13019864  1  0  -0.505453  0  0.904438  0  0  -0.464161  0  1.082773  0  0  -0.482452  0  1.063816  0  0  -0.244748  -0.450696  0  1.096179  0
F  F55  1  0.53832004  0.94863134  0.86981568  1  0  -0.505358  0  0.904567  0  0  -0.464147  0  1.082999  0  0  -0.482425  0  1.064057  0  0  -0.244685  -0.450683  0  1.096435  0
