# generated using pymatgen
data_CdH8C10S2(NO)2
_symmetry_space_group_name_H-M   'P 1'
_cell_length_a   7.52426339
_cell_length_b   10.02395929
_cell_length_c   15.88042673
_cell_angle_alpha   89.99852020
_cell_angle_beta   90.00196366
_cell_angle_gamma   98.79879506
_symmetry_Int_Tables_number   1
_chemical_formula_structural   CdH8C10S2(NO)2
_chemical_formula_sum   'Cd4 H32 C40 S8 N8 O8'
_cell_volume   1183.65241518
_cell_formula_units_Z   4
loop_
 _symmetry_equiv_pos_site_id
 _symmetry_equiv_pos_as_xyz
  1  'x, y, z'
loop_
 _atom_site_type_symbol
 _atom_site_label
 _atom_site_symmetry_multiplicity
 _atom_site_fract_x
 _atom_site_fract_y
 _atom_site_fract_z
 _atom_site_occupancy
 _atom_site_pbe_bader_spin_density
 _atom_site_pbe_cm5_charge
 _atom_site_pbe_ddec_charge
 _atom_site_pbe_ddec_spin_density
 _atom_site_pbe_ddec_sum_bond_order
 _atom_site_pbe_magmom
Cd  Cd0  1  0.74039692  0.97426718  0.03736414  1  0  0.608032  0.715352  0  2.476808  0
Cd  Cd1  1  0.75959563  0.52572535  0.53735902  1  0  0.608111  0.715516  0  2.476626  0
Cd  Cd2  1  0.25958757  0.02573049  0.96265680  1  0  0.608149  0.715508  0  2.476836  0
Cd  Cd3  1  0.24040956  0.47426878  0.46264052  1  0  0.608097  0.715502  0  2.47677  0
H  H4  1  0.30357710  0.80670466  0.08755137  1  0  0.116802  0.113174  0  1.045818  0
H  H5  1  0.19641379  0.69329657  0.58754806  1  0  0.116784  0.113162  0  1.045808  0
H  H6  1  0.69641659  0.19328418  0.91244313  1  0  0.116847  0.1133  0  1.045627  0
H  H7  1  0.80355937  0.30669682  0.41244895  1  0  0.116753  0.11313  0  1.045831  0
H  H8  1  0.33234543  0.56656797  0.12274473  1  0  0.100439  0.112095  0  1.022125  0
H  H9  1  0.16766106  0.93343243  0.62274765  1  0  0.100429  0.112025  0  1.022052  0
H  H10  1  0.66765625  0.43342910  0.87725480  1  0  0.100485  0.112148  0  1.021965  0
H  H11  1  0.83231712  0.06655103  0.37726511  1  0  0.100449  0.112028  0  1.022041  0
H  H12  1  0.04530858  0.39454032  0.12703271  1  0  0.090706  0.092295  0  1.062048  0
H  H13  1  0.45471366  0.10545388  0.62704839  1  0  0.090717  0.092405  0  1.061807  0
H  H14  1  0.95470779  0.60545709  0.87296241  1  0  0.090728  0.092363  0  1.061802  0
H  H15  1  0.54526237  0.89452449  0.37297696  1  0  0.090746  0.092448  0  1.061715  0
H  H16  1  0.75667710  0.46977713  0.09061139  1  0  0.10164  0.120089  0  1.010263  0
H  H17  1  0.74333934  0.03020573  0.59063300  1  0  0.101656  0.120097  0  1.010332  0
H  H18  1  0.24334765  0.53019837  0.90935792  1  0  0.101652  0.120114  0  1.010343  0
H  H19  1  0.25663852  0.96977570  0.40938920  1  0  0.101633  0.12016  0  1.010342  0
H  H20  1  0.83885853  0.92879072  0.85607885  1  0  0.120227  0.117529  0  1.02605  0
H  H21  1  0.66115734  0.57122568  0.35609695  1  0  0.120252  0.117598  0  1.02605  0
H  H22  1  0.16113255  0.07123927  0.14390053  1  0  0.120167  0.117408  0  1.026178  0
H  H23  1  0.33889588  0.42877762  0.64389314  1  0  0.120177  0.117377  0  1.026061  0
H  H24  1  0.87999671  0.73737437  0.75861679  1  0  0.102149  0.112091  0  1.023386  0
H  H25  1  0.61996387  0.76264607  0.25864360  1  0  0.102043  0.11187  0  1.023616  0
H  H26  1  0.11995600  0.26265673  0.24135252  1  0  0.102066  0.111852  0  1.023609  0
H  H27  1  0.38008784  0.23736424  0.74135657  1  0  0.102045  0.111793  0  1.023758  0
H  H28  1  0.60279373  0.57685078  0.71395141  1  0  0.093026  0.086601  0  1.060295  0
H  H29  1  0.89714663  0.92317070  0.21395117  1  0  0.092943  0.086389  0  1.060453  0
H  H30  1  0.39715150  0.42316708  0.28605442  1  0  0.092912  0.086377  0  1.060403  0
H  H31  1  0.10291175  0.07683976  0.78605277  1  0  0.092942  0.086331  0  1.060511  0
H  H32  1  0.30188642  0.62778686  0.75831820  1  0  0.107251  0.125982  0  0.99091  0
H  H33  1  0.19806931  0.87222783  0.25829662  1  0  0.107221  0.125972  0  0.990854  0
H  H34  1  0.69806518  0.37222110  0.24170274  1  0  0.107247  0.12596  0  0.990853  0
H  H35  1  0.80197609  0.12776825  0.74170229  1  0  0.107311  0.126031  0  0.990863  0
C  C36  1  0.18959004  0.72550101  0.08800008  1  0  0.025049  -0.043674  0  3.901525  0
C  C37  1  0.31039905  0.77449715  0.58799228  1  0  0.025043  -0.043646  0  3.901006  0
C  C38  1  0.81040664  0.27448992  0.91198938  1  0  0.024998  -0.043906  0  3.901514  0
C  C39  1  0.68956877  0.22549611  0.41199970  1  0  0.02514  -0.043496  0  3.901177  0
C  C40  1  0.20089175  0.59390566  0.10906620  1  0  -0.094439  -0.117539  0  4.026839  0
C  C41  1  0.29913054  0.90609960  0.60906986  1  0  -0.094336  -0.117415  0  4.026817  0
C  C42  1  0.79912213  0.40608466  0.89092578  1  0  -0.094494  -0.117452  0  4.026972  0
C  C43  1  0.70084877  0.09389896  0.39093660  1  0  -0.094386  -0.117359  0  4.026921  0
C  C44  1  0.04288246  0.49986285  0.11132443  1  0  -0.087321  -0.049112  0  4.00223  0
C  C45  1  0.45712979  0.00011759  0.61132994  1  0  -0.08733  -0.04921  0  4.002902  0
C  C46  1  0.95712293  0.50011622  0.88867322  1  0  -0.087392  -0.04925  0  4.002647  0
C  C47  1  0.54284821  0.99987289  0.38868345  1  0  -0.087487  -0.0495  0  4.002861  0
C  C48  1  0.88121445  0.54123478  0.09108726  1  0  -0.092287  -0.155257  0  3.974955  0
C  C49  1  0.61878502  0.95876111  0.59109712  1  0  -0.092289  -0.155253  0  3.975241  0
C  C50  1  0.11879642  0.45875346  0.90889528  1  0  -0.09224  -0.155363  0  3.975393  0
C  C51  1  0.38118764  0.04122925  0.40891501  1  0  -0.092168  -0.155256  0  3.975105  0
C  C52  1  0.86990163  0.67549557  0.06792168  1  0  0.100293  0.144624  0  4.002812  0
C  C53  1  0.63009437  0.82449701  0.56791634  1  0  0.100275  0.144518  0  4.00287  0
C  C54  1  0.13009941  0.32448942  0.93207030  1  0  0.100301  0.144799  0  4.002843  0
C  C55  1  0.36988511  0.17550255  0.43208382  1  0  0.100299  0.144659  0  4.00259  0
C  C56  1  0.72739399  0.85728601  0.83150362  1  0  0.02724  -0.04011  0  3.896903  0
C  C57  1  0.77260846  0.64273192  0.33150789  1  0  0.027237  -0.040256  0  3.897081  0
C  C58  1  0.27258827  0.14273875  0.16849277  1  0  0.027273  -0.040164  0  3.896989  0
C  C59  1  0.22744193  0.35727031  0.66848535  1  0  0.027212  -0.040126  0  3.896776  0
C  C60  1  0.74596211  0.75109552  0.77896766  1  0  -0.093555  -0.121039  0  4.029501  0
C  C61  1  0.75401028  0.74892349  0.27897425  1  0  -0.093438  -0.120683  0  4.029333  0
C  C62  1  0.25400647  0.24892691  0.22102180  1  0  -0.093496  -0.120639  0  4.029398  0
C  C63  1  0.24604294  0.25107981  0.72101961  1  0  -0.093558  -0.120728  0  4.029358  0
C  C64  1  0.59171784  0.66403072  0.75357484  1  0  -0.083124  -0.041618  0  3.996312  0
C  C65  1  0.90824709  0.83598597  0.25357310  1  0  -0.082922  -0.041155  0  3.996124  0
C  C66  1  0.40824191  0.33598648  0.24642595  1  0  -0.082826  -0.041137  0  3.996081  0
C  C67  1  0.09181332  0.16401248  0.74642203  1  0  -0.082787  -0.040986  0  3.996197  0
C  C68  1  0.42500901  0.69128540  0.77853540  1  0  -0.090468  -0.156296  0  3.97001  0
C  C69  1  0.07496302  0.80873099  0.27852354  1  0  -0.090635  -0.156627  0  3.970397  0
C  C70  1  0.57495259  0.30872681  0.22147421  1  0  -0.090691  -0.15663  0  3.970413  0
C  C71  1  0.92508856  0.19126222  0.72147096  1  0  -0.090716  -0.156616  0  3.970302  0
C  C72  1  0.40569719  0.80235255  0.83047372  1  0  0.101529  0.145488  0  4.008792  0
C  C73  1  0.09429917  0.69766867  0.33045963  1  0  0.101713  0.145738  0  4.00843  0
C  C74  1  0.59428324  0.19766915  0.16954029  1  0  0.101668  0.145637  0  4.008722  0
C  C75  1  0.90574806  0.30233047  0.66953990  1  0  0.101657  0.145523  0  4.008831  0
S  S76  1  0.66727624  0.72100839  0.03960740  1  0  -0.197891  -0.358774  0  2.403972  0
S  S77  1  0.83270945  0.77898190  0.53959737  1  0  -0.197858  -0.358721  0  2.404088  0
S  S78  1  0.33272328  0.27898360  0.96039339  1  0  -0.197899  -0.358817  0  2.404015  0
S  S79  1  0.16726471  0.22100950  0.46039586  1  0  -0.197878  -0.35877  0  2.403946  0
S  S80  1  0.19703018  0.83570726  0.85814477  1  0  -0.179033  -0.354635  0  2.495885  0
S  S81  1  0.30297949  0.66430228  0.35812652  1  0  -0.179124  -0.354753  0  2.495442  0
S  S82  1  0.80295626  0.16431056  0.14186735  1  0  -0.179124  -0.354691  0  2.495542  0
S  S83  1  0.69706872  0.33570292  0.64187680  1  0  -0.179061  -0.354635  0  2.495483  0
N  N84  1  0.02906380  0.76549889  0.06860095  1  0  -0.128226  0.255189  0  3.872795  0
N  N85  1  0.47092370  0.73450592  0.56858829  1  0  -0.12827  0.255152  0  3.872551  0
N  N86  1  0.97093055  0.23449399  0.93139859  1  0  -0.128201  0.255162  0  3.872694  0
N  N87  1  0.52904862  0.26549046  0.43140557  1  0  -0.128254  0.255139  0  3.873117  0
N  N88  1  0.56237485  0.88089136  0.85775827  1  0  -0.128392  0.25793  0  3.87175  0
N  N89  1  0.93763313  0.61912480  0.35775497  1  0  -0.128454  0.257846  0  3.871449  0
N  N90  1  0.43761211  0.11912145  0.14224945  1  0  -0.128444  0.257824  0  3.871739  0
N  N91  1  0.06241743  0.38087844  0.64224519  1  0  -0.128488  0.257862  0  3.872016  0
O  O92  1  0.02970169  0.89635373  0.05173633  1  0  -0.260612  -0.481082  0  2.208723  0
O  O93  1  0.47028374  0.60364558  0.55172208  1  0  -0.260671  -0.481154  0  2.208484  0
O  O94  1  0.97029032  0.10364110  0.94828020  1  0  -0.260664  -0.48116  0  2.208692  0
O  O95  1  0.52969927  0.39634302  0.44827557  1  0  -0.260742  -0.481245  0  2.208966  0
O  O96  1  0.55687769  0.98216333  0.91220743  1  0  -0.25909  -0.479382  0  2.181971  0
O  O97  1  0.94313779  0.51784311  0.41221095  1  0  -0.259079  -0.479407  0  2.181704  0
O  O98  1  0.44310678  0.01784238  0.08780092  1  0  -0.258956  -0.479195  0  2.18192  0
O  O99  1  0.05689758  0.48215676  0.58779173  1  0  -0.258969  -0.479244  0  2.181926  0
