# generated using pymatgen
data_ZnH20C20S2(NO3)2
_symmetry_space_group_name_H-M   'P 1'
_cell_length_a   7.85998856
_cell_length_b   11.92857527
_cell_length_c   12.07690000
_cell_angle_alpha   64.05004328
_cell_angle_beta   89.34273060
_cell_angle_gamma   89.34581899
_symmetry_Int_Tables_number   1
_chemical_formula_structural   ZnH20C20S2(NO3)2
_chemical_formula_sum   'Zn2 H40 C40 S4 N4 O12'
_cell_volume   1018.05532015
_cell_formula_units_Z   2
loop_
 _symmetry_equiv_pos_site_id
 _symmetry_equiv_pos_as_xyz
  1  'x, y, z'
loop_
 _atom_site_type_symbol
 _atom_site_label
 _atom_site_symmetry_multiplicity
 _atom_site_fract_x
 _atom_site_fract_y
 _atom_site_fract_z
 _atom_site_occupancy
 _atom_site_hle17_bader_spin_density
 _atom_site_hle17_ddec_charge
 _atom_site_hle17_ddec_spin_density
 _atom_site_hle17_ddec_sum_bond_order
 _atom_site_hle17_magmom
 _atom_site_hse06_10hf_bader_spin_density
 _atom_site_hse06_10hf_ddec_charge
 _atom_site_hse06_10hf_ddec_spin_density
 _atom_site_hse06_10hf_ddec_sum_bond_order
 _atom_site_hse06_10hf_magmom
 _atom_site_hse06_bader_spin_density
 _atom_site_hse06_ddec_charge
 _atom_site_hse06_ddec_spin_density
 _atom_site_hse06_ddec_sum_bond_order
 _atom_site_hse06_magmom
 _atom_site_pbe_bader_charge
 _atom_site_pbe_bader_spin_density
 _atom_site_pbe_cm5_charge
 _atom_site_pbe_ddec_charge
 _atom_site_pbe_ddec_spin_density
 _atom_site_pbe_ddec_sum_bond_order
 _atom_site_pbe_magmom
Zn  Zn0  1  0.24883624  0.22495474  0.77468558  1  0  1.058209  0  1.776859  0  0  0.883251  0  2.216654  0  0  0.931218  0  2.162406  0  1.314892  0  0.669861  0.849714  0  2.253818  0
Zn  Zn1  1  0.75116609  0.77504208  0.22531900  1  0  1.05815  0  1.77689  0  0  0.883205  0  2.216686  0  0  0.931174  0  2.162441  0  1.314987  0  0.66985  0.849668  0  2.253848  0
H  H2  1  0.12351998  0.98123428  0.87287374  1  0  0.423555  0  0.884965  0  0  0.388416  0  0.955821  0  0  0.399888  0  0.939235  0  0.648121  0  0.28317  0.380328  0  0.967506  0
H  H3  1  0.37618815  0.12761961  0.01618010  1  0  0.423613  0  0.883938  0  0  0.389356  0  0.953533  0  0  0.400708  0  0.937097  0  0.632713  0  0.283611  0.381336  0  0.965127  0
H  H4  1  0.87647980  0.01876441  0.12712509  1  0  0.423559  0  0.884957  0  0  0.388421  0  0.955819  0  0  0.399895  0  0.93923  0  0.648129  0  0.283154  0.380333  0  0.967505  0
H  H5  1  0.62381164  0.87237721  0.98382285  1  0  0.423583  0  0.883987  0  0  0.389373  0  0.953516  0  0  0.400707  0  0.937091  0  0.632768  0  0.283609  0.381354  0  0.965109  0
H  H6  1  0.31651875  0.00681266  0.83507447  1  0  0.400922  0  0.923158  0  0  0.368214  0  0.991578  0  0  0.379371  0  0.975484  0  0.646754  0  0.281788  0.360374  0  1.002873  0
H  H7  1  0.18282567  0.16465895  0.99051186  1  0  0.401886  0  0.921588  0  0  0.3693  0  0.989708  0  0  0.380526  0  0.973524  0  0.64344  0  0.282403  0.361418  0  1.001059  0
H  H8  1  0.68347978  0.99318324  0.16492392  1  0  0.400916  0  0.923164  0  0  0.368207  0  0.991575  0  0  0.379366  0  0.97548  0  0.646756  0  0.281789  0.360367  0  1.002869  0
H  H9  1  0.81717537  0.83533974  0.00949193  1  0  0.401799  0  0.921713  0  0  0.36924  0  0.98981  0  0  0.380467  0  0.973623  0  0.643434  0  0.282353  0.361357  0  1.001162  0
H  H10  1  0.40481739  0.41102037  0.86581038  1  0  0.081348  0  0.965867  0  0  0.085112  0  1.040158  0  0  0.087547  0  1.037924  0  0.144182  0  0.112742  0.083218  0  1.04194  0
H  H11  1  0.09093009  0.13151869  0.59172496  1  0  0.079986  0  0.968236  0  0  0.082979  0  1.043841  0  0  0.085339  0  1.04161  0  0.133796  0  0.111886  0.08114  0  1.045629  0
H  H12  1  0.59518872  0.58898111  0.13419216  1  0  0.081234  0  0.965821  0  0  0.084995  0  1.040138  0  0  0.087429  0  1.037905  0  0.143955  0  0.112687  0.083105  0  1.041915  0
H  H13  1  0.90908243  0.86847814  0.40827872  1  0  0.080046  0  0.968227  0  0  0.082996  0  1.043882  0  0  0.085357  0  1.041649  0  0.133834  0  0.111909  0.081156  0  1.04567  0
H  H14  1  0.51414396  0.63168166  0.76696879  1  0  0.1023  0  0.958309  0  0  0.110836  0  1.021452  0  0  0.1135  0  1.021163  0  0.086379  0  0.104364  0.108896  0  1.02184  0
H  H15  1  0.98684208  0.23012088  0.37248985  1  0  0.101689  0  0.959634  0  0  0.110676  0  1.022404  0  0  0.113353  0  1.022054  0  0.084168  0  0.104031  0.108714  0  1.022865  0
H  H16  1  0.48586471  0.36831796  0.23303371  1  0  0.102376  0  0.958299  0  0  0.11088  0  1.021473  0  0  0.113544  0  1.021184  0  0.086318  0  0.104371  0.108941  0  1.02186  0
H  H17  1  0.01317682  0.76987409  0.62751044  1  0  0.10176  0  0.959579  0  0  0.110707  0  1.022369  0  0  0.113383  0  1.022023  0  0.083815  0  0.104074  0.108746  0  1.022827  0
H  H18  1  0.48457361  0.75481109  0.53680194  1  0  0.100894  0  0.943646  0  0  0.111161  0  1.002881  0  0  0.1127  0  1.003596  0  0.13233  0  0.107606  0.109932  0  1.00253  0
H  H19  1  0.02178406  0.46237683  0.24851923  1  0  0.102465  0  0.941033  0  0  0.112839  0  0.999753  0  0  0.114602  0  1.000126  0  0.114502  0  0.108292  0.111557  0  0.999458  0
H  H20  1  0.51541975  0.24519226  0.46320155  1  0  0.100926  0  0.94353  0  0  0.111151  0  1.002818  0  0  0.112714  0  1.003503  0  0.132308  0  0.107602  0.109923  0  1.002464  0
H  H21  1  0.97822719  0.53762000  0.75148363  1  0  0.10238  0  0.941075  0  0  0.112762  0  0.999781  0  0  0.114526  0  1.000154  0  0.114406  0  0.108265  0.111469  0  0.999518  0
H  H22  1  0.34585764  0.65856215  0.41851539  1  0  0.121236  0  0.974503  0  0  0.127547  0  1.039593  0  0  0.132009  0  1.036506  0  0.121434  0  0.107899  0.124288  0  1.041984  0
H  H23  1  0.15983048  0.58289662  0.34316660  1  0  0.120073  0  0.972861  0  0  0.12691  0  1.03745  0  0  0.131204  0  1.034559  0  0.114023  0  0.108324  0.123785  0  1.039695  0
H  H24  1  0.65412685  0.34143841  0.58149268  1  0  0.121152  0  0.974481  0  0  0.127486  0  1.039571  0  0  0.131952  0  1.036475  0  0.121561  0  0.107857  0.124226  0  1.041963  0
H  H25  1  0.84016295  0.41710114  0.65683931  1  0  0.120116  0  0.972809  0  0  0.126919  0  1.037439  0  0  0.131207  0  1.034563  0  0.11387  0  0.10831  0.123794  0  1.039682  0
H  H26  1  0.85534701  0.04605140  0.81773141  1  0  0.144646  0  0.925351  0  0  0.162795  0  0.975562  0  0  0.164882  0  0.975245  0  0.119389  0  0.114952  0.161258  0  0.975947  0
H  H27  1  0.64384927  0.18114470  0.95228436  1  0  0.144431  0  0.925513  0  0  0.162509  0  0.975942  0  0  0.164574  0  0.975633  0  0.109418  0  0.114826  0.160987  0  0.976318  0
H  H28  1  0.14465275  0.95394916  0.18225999  1  0  0.144682  0  0.925302  0  0  0.162792  0  0.975575  0  0  0.164882  0  0.975251  0  0.119276  0  0.114925  0.161256  0  0.975958  0
H  H29  1  0.35614918  0.81885865  0.04771081  1  0  0.144386  0  0.925594  0  0  0.162503  0  0.975978  0  0  0.164571  0  0.975673  0  0.109339  0  0.114828  0.160981  0  0.976354  0
H  H30  1  0.80378214  0.15811294  0.66630538  1  0  0.111554  0  0.953798  0  0  0.122626  0  1.019435  0  0  0.12512  0  1.018729  0  0.081207  0  0.096575  0.120876  0  1.020026  0
H  H31  1  0.69518903  0.33505743  0.84291200  1  0  0.112105  0  0.951877  0  0  0.122734  0  1.018286  0  0  0.125285  0  1.017453  0  0.081367  0  0.09662  0.120989  0  1.018885  0
H  H32  1  0.19621125  0.84188761  0.33368689  1  0  0.111617  0  0.953844  0  0  0.122621  0  1.01954  0  0  0.125113  0  1.018838  0  0.08091  0  0.096585  0.120878  0  1.020121  0
H  H33  1  0.30481453  0.66494499  0.15708271  1  0  0.111993  0  0.951924  0  0  0.122647  0  1.018312  0  0  0.125197  0  1.017482  0  0.081423  0  0.096571  0.120902  0  1.01891  0
H  H34  1  0.43138536  0.90079514  0.72388815  1  0  0.0967  0  0.993931  0  0  0.100958  0  1.066748  0  0  0.104157  0  1.065149  0  0.133761  0  0.095713  0.098662  0  1.067972  0
H  H35  1  0.06597154  0.27304052  0.10219933  1  0  0.095604  0  0.995487  0  0  0.099641  0  1.068636  0  0  0.102824  0  1.067005  0  0.100025  0  0.095152  0.097353  0  1.069844  0
H  H36  1  0.56860930  0.09920635  0.27610537  1  0  0.096712  0  0.993825  0  0  0.100986  0  1.066633  0  0  0.104185  0  1.065037  0  0.133663  0  0.095726  0.098691  0  1.067856  0
H  H37  1  0.93402565  0.72696283  0.89779833  1  0  0.095553  0  0.995561  0  0  0.099616  0  1.06868  0  0  0.1028  0  1.067051  0  0.099956  0  0.095148  0.097329  0  1.069888  0
H  H38  1  0.79899556  0.05420850  0.42800496  1  0  0.089726  0  0.966108  0  0  0.09648  0  1.037226  0  0  0.099998  0  1.034563  0  0.086596  0  0.097132  0.093956  0  1.039203  0
H  H39  1  0.70202999  0.57409713  0.94311977  1  0  0.089678  0  0.966188  0  0  0.095729  0  1.038201  0  0  0.099275  0  1.035549  0  0.088317  0  0.096665  0.093194  0  1.040169  0
H  H40  1  0.20099908  0.94579392  0.57198899  1  0  0.089743  0  0.966097  0  0  0.0965  0  1.037206  0  0  0.100018  0  1.034544  0  0.086412  0  0.097118  0.093973  0  1.039186  0
H  H41  1  0.29796718  0.42590715  0.05687500  1  0  0.089681  0  0.966179  0  0  0.095679  0  1.03826  0  0  0.099226  0  1.035605  0  0.088364  0  0.096627  0.093144  0  1.040228  0
C  C42  1  0.39239131  0.47027660  0.76728974  1  0  0.135991  0  3.690337  0  0  0.105579  0  3.94154  0  0  0.111625  0  3.960749  0  0.504091  0  0.051272  0.101689  0  3.928549  0
C  C43  1  0.10555755  0.23091430  0.53239419  1  0  0.136519  0  3.691867  0  0  0.106307  0  3.943259  0  0  0.112417  0  3.962543  0  0.540509  0  0.051478  0.102379  0  3.930193  0
C  C44  1  0.60761481  0.52972396  0.23271652  1  0  0.136241  0  3.690243  0  0  0.105809  0  3.941458  0  0  0.111857  0  3.960667  0  0.503897  0  0.051396  0.101917  0  3.928471  0
C  C45  1  0.89444860  0.76908346  0.46760914  1  0  0.136491  0  3.691901  0  0  0.106318  0  3.943265  0  0  0.112424  0  3.962554  0  0.540598  0  0.051441  0.102391  0  3.930198  0
C  C46  1  0.45270234  0.59222475  0.71176887  1  0  -0.122769  0  3.722612  0  0  -0.133886  0  3.970845  0  0  -0.14161  0  3.994056  0  -0.018028  0  -0.082386  -0.128919  0  3.955227  0
C  C47  1  0.04812129  0.28631994  0.41116470  1  0  -0.122057  0  3.722872  0  0  -0.133809  0  3.971304  0  0  -0.141496  0  3.994506  0  -0.122204  0  -0.082534  -0.128875  0  3.955712  0
C  C48  1  0.54729869  0.40777487  0.28823452  1  0  -0.12294  0  3.722636  0  0  -0.134011  0  3.970872  0  0  -0.141737  0  3.99409  0  -0.017488  0  -0.08244  -0.129046  0  3.95526  0
C  C49  1  0.95188997  0.71367502  0.58883979  1  0  -0.122155  0  3.722797  0  0  -0.133871  0  3.971213  0  0  -0.141558  0  3.99442  0  -0.12194  0  -0.082573  -0.128936  0  3.955618  0
C  C50  1  0.43493751  0.66051821  0.58472179  1  0  0.009338  0  3.704315  0  0  -0.009021  0  3.953544  0  0  -0.005436  0  3.973116  0  -0.10901  0  -0.064918  -0.011058  0  3.940104  0
C  C51  1  0.06879264  0.41451854  0.34246148  1  0  0.007495  0  3.704054  0  0  -0.010805  0  3.953805  0  0  -0.007282  0  3.973114  0  -0.026549  0  -0.064802  -0.012843  0  3.940566  0
C  C52  1  0.56506095  0.33948421  0.41528455  1  0  0.009348  0  3.704174  0  0  -0.008975  0  3.953425  0  0  -0.005409  0  3.972995  0  -0.109212  0  -0.064882  -0.011011  0  3.939986  0
C  C53  1  0.93121352  0.58547829  0.65754142  1  0  0.007605  0  3.703979  0  0  -0.010681  0  3.953698  0  0  -0.00716  0  3.973012  0  -0.026417  0  -0.0648  -0.012722  0  3.940451  0
C  C54  1  0.35440663  0.60640667  0.51815844  1  0  -0.144488  0  3.688159  0  0  -0.165523  0  3.940291  0  0  -0.172544  0  3.959907  0  -0.025554  0  -0.081419  -0.160959  0  3.927133  0
C  C55  1  0.14900020  0.48227124  0.39568078  1  0  -0.141518  0  3.686848  0  0  -0.162966  0  3.939824  0  0  -0.169827  0  3.959424  0  0.012298  0  -0.080893  -0.158542  0  3.926716  0
C  C56  1  0.64558420  0.39359668  0.48184755  1  0  -0.14429  0  3.688064  0  0  -0.165362  0  3.940225  0  0  -0.172383  0  3.959848  0  -0.025558  0  -0.081349  -0.160798  0  3.927066  0
C  C57  1  0.85099958  0.51772652  0.60432590  1  0  -0.141617  0  3.686701  0  0  -0.163069  0  3.939697  0  0  -0.169935  0  3.959299  0  0.012226  0  -0.08093  -0.158642  0  3.926587  0
C  C58  1  0.29409259  0.48450607  0.58047924  1  0  0.172228  0  3.766153  0  0  0.169826  0  4.003548  0  0  0.176176  0  4.024286  0  0.498942  0  0.121788  0.165621  0  3.989447  0
C  C59  1  0.20639453  0.41991496  0.51695039  1  0  0.174317  0  3.764335  0  0  0.170434  0  4.002952  0  0  0.176949  0  4.023468  0  0.462669  0  0.121924  0.166161  0  3.988934  0
C  C60  1  0.70590464  0.51549262  0.41952954  1  0  0.172235  0  3.766031  0  0  0.169818  0  4.003453  0  0  0.176167  0  4.024192  0  0.498914  0  0.121765  0.165613  0  3.989353  0
C  C61  1  0.79360013  0.58008653  0.48305389  1  0  0.174368  0  3.764401  0  0  0.170542  0  4.002925  0  0  0.177061  0  4.023429  0  0.462673  0  0.122008  0.166268  0  3.988911  0
C  C62  1  0.58588968  0.07949188  0.78518775  1  0  0.706964  0  3.844532  0  0  0.657622  0  4.142621  0  0  0.690155  0  4.137409  0  1.584756  0  0.210568  0.635589  0  4.145368  0
C  C63  1  0.91321093  0.21468401  0.91988495  1  0  0.708692  0  3.841178  0  0  0.657752  0  4.141372  0  0  0.690423  0  4.136007  0  1.587603  0  0.210246  0.635643  0  4.144202  0
C  C64  1  0.41411010  0.92050681  0.21481273  1  0  0.706976  0  3.844544  0  0  0.657676  0  4.142593  0  0  0.690213  0  4.137379  0  1.584764  0  0.210536  0.635643  0  4.145342  0
C  C65  1  0.08679138  0.78531561  0.08010931  1  0  0.70856  0  3.841274  0  0  0.657649  0  4.141423  0  0  0.690319  0  4.136063  0  1.587296  0  0.210162  0.635541  0  4.144251  0
C  C66  1  0.76581411  0.06899738  0.74154710  1  0  -0.297111  0  3.608072  0  0  -0.332081  0  3.864612  0  0  -0.336791  0  3.869116  0  -0.150129  0  -0.154127  -0.328862  0  3.861459  0
C  C67  1  0.73305377  0.25831690  0.93058801  1  0  -0.297889  0  3.608011  0  0  -0.331929  0  3.86428  0  0  -0.336604  0  3.868643  0  -0.141902  0  -0.153833  -0.328739  0  3.861222  0
C  C68  1  0.23418057  0.93100224  0.25844722  1  0  -0.297203  0  3.608183  0  0  -0.332131  0  3.864813  0  0  -0.336845  0  3.869315  0  -0.149561  0  -0.154073  -0.328916  0  3.861658  0
C  C69  1  0.26694851  0.74168552  0.06940671  1  0  -0.297682  0  3.608  0  0  -0.331781  0  3.864266  0  0  -0.336464  0  3.868643  0  -0.142115  0  -0.153749  -0.328592  0  3.861212  0
C  C70  1  0.63040536  0.97610917  0.58625706  1  0  0.025728  0  3.782621  0  0  0.051619  0  4.027557  0  0  0.050809  0  4.052353  0  -0.146114  0  -0.014869  0.052061  0  4.010749  0
C  C71  1  0.86883002  0.41319554  0.02405537  1  0  0.026992  0  3.780812  0  0  0.052426  0  4.025887  0  0  0.051547  0  4.050773  0  -0.109342  0  -0.0146  0.052911  0  4.009042  0
C  C72  1  0.36958802  0.02389325  0.41373606  1  0  0.025711  0  3.782493  0  0  0.051734  0  4.027269  0  0  0.050924  0  4.052067  0  -0.1461  0  -0.014906  0.052176  0  4.010462  0
C  C73  1  0.13116716  0.58680781  0.97594147  1  0  0.027074  0  3.780944  0  0  0.052527  0  4.025991  0  0  0.05165  0  4.050877  0  -0.10919  0  -0.014524  0.053013  0  4.009147  0
C  C74  1  0.46147721  0.94513382  0.62589933  1  0  -0.095438  0  3.738954  0  0  -0.113146  0  3.979684  0  0  -0.115279  0  4.000825  0  -0.033107  0  -0.09168  -0.111625  0  3.96534  0
C  C75  1  0.03703199  0.37235223  0.05681056  1  0  -0.096303  0  3.742692  0  0  -0.11368  0  3.982963  0  0  -0.11587  0  4.004266  0  0.006308  0  -0.092446  -0.112079  0  3.968468  0
C  C76  1  0.53851997  0.05486953  0.37409419  1  0  -0.095632  0  3.738533  0  0  -0.113401  0  3.97926  0  0  -0.115538  0  4.000401  0  -0.033196  0  -0.091807  -0.11188  0  3.964917  0
C  C77  1  0.96296518  0.62765206  0.94318753  1  0  -0.096316  0  3.742673  0  0  -0.113748  0  3.982992  0  0  -0.115923  0  4.004261  0  0.006531  0  -0.09249  -0.112149  0  3.968496  0
C  C78  1  0.66799615  0.03031152  0.45977042  1  0  -0.10494  0  3.761455  0  0  -0.1222  0  4.004945  0  0  -0.124539  0  4.026077  0  -0.082346  0  -0.0908  -0.120478  0  3.990553  0
C  C79  1  0.83262422  0.54145101  0.96793082  1  0  -0.104623  0  3.761469  0  0  -0.121348  0  4.004669  0  0  -0.123764  0  4.025867  0  -0.123169  0  -0.090944  -0.119587  0  3.990252  0
C  C80  1  0.33199977  0.96969183  0.54022228  1  0  -0.104961  0  3.761645  0  0  -0.122273  0  4.005125  0  0  -0.124613  0  4.026254  0  -0.082196  0  -0.090731  -0.12055  0  3.990731  0
C  C81  1  0.16737297  0.45855234  0.03206684  1  0  -0.104731  0  3.761619  0  0  -0.121419  0  4.004775  0  0  -0.123844  0  4.025987  0  -0.12302  0  -0.090973  -0.119656  0  3.99035  0
S  S82  1  0.79641834  0.94368961  0.69532185  1  0  -0.023828  0  2.344267  0  0  -0.025862  0  2.676986  0  0  -0.025521  0  2.675243  0  0.036343  0  -0.009987  -0.025819  0  2.678246  0
S  S83  1  0.70210806  0.30334925  0.05553741  1  0  -0.024871  0  2.342875  0  0  -0.026986  0  2.675372  0  0  -0.026531  0  2.673554  0  0.03209  0  -0.011311  -0.02705  0  2.676724  0
S  S84  1  0.20357761  0.05631001  0.30467330  1  0  -0.023753  0  2.344406  0  0  -0.025798  0  2.677066  0  0  -0.025455  0  2.675324  0  0.036031  0  -0.009956  -0.025754  0  2.678328  0
S  S85  1  0.29789040  0.69665317  0.94445651  1  0  -0.024916  0  2.342852  0  0  -0.027026  0  2.675351  0  0  -0.026574  0  2.673537  0  0.032214  0  -0.011334  -0.027091  0  2.676703  0
N  N86  1  0.31617720  0.41790016  0.70290775  1  0  -0.338143  0  3.245659  0  0  -0.266792  0  3.504677  0  0  -0.284523  0  3.520663  0  -1.23847  0  -0.313182  -0.2548  0  3.493734  0
N  N87  1  0.18176023  0.29639021  0.58379311  1  0  -0.340622  0  3.244325  0  0  -0.268008  0  3.502196  0  0  -0.285749  0  3.518092  0  -1.237348  0  -0.313278  -0.256017  0  3.491291  0
N  N88  1  0.68382256  0.58210040  0.29709939  1  0  -0.338332  0  3.245435  0  0  -0.266982  0  3.504509  0  0  -0.284716  0  3.520496  0  -1.238263  0  -0.313275  -0.25499  0  3.49357  0
N  N89  1  0.81823954  0.70360848  0.41621235  1  0  -0.340596  0  3.244398  0  0  -0.267992  0  3.502224  0  0  -0.285734  0  3.518124  0  -1.237315  0  -0.313244  -0.256003  0  3.491319  0
O  O90  1  0.19927887  0.04079390  0.80624971  1  0  -0.839251  0  1.9269  0  0  -0.778682  0  2.144807  0  0  -0.80048  0  2.109514  0  -1.290308  0  -0.588597  -0.763302  0  2.169191  0
O  O91  1  0.29996226  0.19372486  0.95644194  1  0  -0.839079  0  1.924109  0  0  -0.778805  0  2.139782  0  0  -0.800504  0  2.104528  0  -1.272292  0  -0.589128  -0.763487  0  2.164162  0
O  O92  1  0.80072091  0.95920386  0.19374869  1  0  -0.839221  0  1.926908  0  0  -0.77862  0  2.144779  0  0  -0.800424  0  2.109487  0  -1.290285  0  -0.588574  -0.76324  0  2.169161  0
O  O93  1  0.70004007  0.80627197  0.04356265  1  0  -0.838956  0  1.924256  0  0  -0.778751  0  2.139812  0  0  -0.800432  0  2.104615  0  -1.272424  0  -0.589048  -0.763434  0  2.164192  0
O  O94  1  0.51353534  0.18531975  0.73258699  1  0  -0.629166  0  1.990035  0  0  -0.563859  0  2.239565  0  0  -0.590992  0  2.231277  0  -1.176461  0  -0.310357  -0.54481  0  2.244552  0
O  O95  1  0.98462368  0.26714157  0.81492544  1  0  -0.630936  0  1.98792  0  0  -0.565128  0  2.23879  0  0  -0.592261  0  2.230358  0  -1.179464  0  -0.310526  -0.546108  0  2.243929  0
O  O96  1  0.48646316  0.81467894  0.26741433  1  0  -0.629105  0  1.990022  0  0  -0.563852  0  2.239591  0  0  -0.590964  0  2.23126  0  -1.176455  0  -0.310336  -0.544803  0  2.244579  0
O  O97  1  0.01537869  0.73285246  0.18507208  1  0  -0.63083  0  1.98776  0  0  -0.565047  0  2.238618  0  0  -0.59219  0  2.230208  0  -1.179358  0  -0.310482  -0.546029  0  2.243757  0
O  O98  1  0.51786389  0.98313813  0.87003995  1  0  -0.657688  0  2.044637  0  0  -0.590103  0  2.263922  0  0  -0.616642  0  2.254727  0  -1.201357  0  -0.31801  -0.571663  0  2.269803  0
O  O99  1  0.98237376  0.12986750  0.01525109  1  0  -0.656105  0  2.050858  0  0  -0.586943  0  2.269552  0  0  -0.613861  0  2.260646  0  -1.199367  0  -0.316237  -0.56833  0  2.275349  0
O  O100  1  0.48213590  0.01685869  0.12995885  1  0  -0.657733  0  2.044648  0  0  -0.590129  0  2.263918  0  0  -0.616677  0  2.254728  0  -1.201354  0  -0.317986  -0.571692  0  2.269807  0
O  O101  1  0.01762727  0.87013305  0.98474941  1  0  -0.656059  0  2.050983  0  0  -0.586911  0  2.269648  0  0  -0.613831  0  2.260747  0  -1.19908  0  -0.316229  -0.568296  0  2.275441  0
