# generated using pymatgen
data_BaH6C6NClO4
_symmetry_space_group_name_H-M   'P 1'
_cell_length_a   5.76952770
_cell_length_b   6.81103375
_cell_length_c   11.49849968
_cell_angle_alpha   105.27245682
_cell_angle_beta   100.24803885
_cell_angle_gamma   94.62713330
_symmetry_Int_Tables_number   1
_chemical_formula_structural   BaH6C6NClO4
_chemical_formula_sum   'Ba2 H12 C12 N2 Cl2 O8'
_cell_volume   425.05027139
_cell_formula_units_Z   2
loop_
 _symmetry_equiv_pos_site_id
 _symmetry_equiv_pos_as_xyz
  1  'x, y, z'
loop_
 _atom_site_type_symbol
 _atom_site_label
 _atom_site_symmetry_multiplicity
 _atom_site_fract_x
 _atom_site_fract_y
 _atom_site_fract_z
 _atom_site_occupancy
 _atom_site_hle17_bader_spin_density
 _atom_site_hle17_ddec_charge
 _atom_site_hle17_ddec_spin_density
 _atom_site_hle17_ddec_sum_bond_order
 _atom_site_hle17_magmom
 _atom_site_hse06_10hf_bader_spin_density
 _atom_site_hse06_10hf_ddec_charge
 _atom_site_hse06_10hf_ddec_spin_density
 _atom_site_hse06_10hf_ddec_sum_bond_order
 _atom_site_hse06_10hf_magmom
 _atom_site_hse06_bader_spin_density
 _atom_site_hse06_ddec_charge
 _atom_site_hse06_ddec_spin_density
 _atom_site_hse06_ddec_sum_bond_order
 _atom_site_hse06_magmom
 _atom_site_pbe_bader_spin_density
 _atom_site_pbe_cm5_charge
 _atom_site_pbe_ddec_charge
 _atom_site_pbe_ddec_spin_density
 _atom_site_pbe_ddec_sum_bond_order
 _atom_site_pbe_magmom
Ba  Ba0  1  0.78243580  0.81721087  0.09125122  1  0  1.579579  0  1.202273  0  0  1.433404  0  1.6028  0  0  1.472552  0  1.562299  0  0  0.799896  1.404924  0  1.631176  0
Ba  Ba1  1  0.21757398  0.18278439  0.90874836  1  0  1.579552  0  1.202241  0  0  1.433396  0  1.602749  0  0  1.472544  0  1.562251  0  0  0.799882  1.404903  0  1.631148  0
H  H2  1  0.51260995  0.29751155  0.68523918  1  0  0.092019  0  0.975689  0  0  0.102125  0  1.037415  0  0  0.105141  0  1.034718  0  0  0.120003  0.09988  0  1.039325  0
H  H3  1  0.48737912  0.70248665  0.31475642  1  0  0.091958  0  0.975662  0  0  0.102119  0  1.037332  0  0  0.105132  0  1.034638  0  0  0.119988  0.099874  0  1.039242  0
H  H4  1  0.83791444  0.39154891  0.58352295  1  0  0.123393  0  0.948572  0  0  0.133217  0  1.007155  0  0  0.137054  0  1.006456  0  0  0.109216  0.130347  0  1.008069  0
H  H5  1  0.16207506  0.60845227  0.41648013  1  0  0.123384  0  0.948518  0  0  0.133195  0  1.007131  0  0  0.137085  0  1.006365  0  0  0.109229  0.130327  0  1.008041  0
H  H6  1  0.74520382  0.31325684  0.35181854  1  0  0.104295  0  0.958522  0  0  0.114038  0  1.021584  0  0  0.1178  0  1.016806  0  0  0.115002  0.111258  0  1.024964  0
H  H7  1  0.25480531  0.68674606  0.64818395  1  0  0.104336  0  0.958541  0  0  0.114049  0  1.021624  0  0  0.117811  0  1.016843  0  0  0.115013  0.111262  0  1.025019  0
H  H8  1  0.15249111  0.11730024  0.56447724  1  0  0.304389  0  0.906248  0  0  0.282741  0  0.972371  0  0  0.292656  0  0.964308  0  0  0.314358  0.275728  0  0.978147  0
H  H9  1  0.84749356  0.88270400  0.43552329  1  0  0.304387  0  0.906435  0  0  0.282757  0  0.972526  0  0  0.292675  0  0.964459  0  0  0.314389  0.275747  0  0.978304  0
H  H10  1  0.73553430  0.38355630  0.18550081  1  0  0.422565  0  0.880972  0  0  0.394264  0  0.942109  0  0  0.404393  0  0.927222  0  0  0.300704  0.3871  0  0.952631  0
H  H11  1  0.26445785  0.61643875  0.81450239  1  0  0.422535  0  0.881039  0  0  0.394242  0  0.942153  0  0  0.404372  0  0.927266  0  0  0.300726  0.387077  0  0.95268  0
H  H12  1  0.99398196  0.47559899  0.18967632  1  0  0.40963  0  0.87745  0  0  0.382144  0  0.949705  0  0  0.391666  0  0.935744  0  0  0.290802  0.375344  0  0.959688  0
H  H13  1  0.00601239  0.52439917  0.81032583  1  0  0.409618  0  0.877406  0  0  0.382128  0  0.949716  0  0  0.391651  0  0.935753  0  0  0.290789  0.375329  0  0.959704  0
C  C14  1  0.38922896  0.17522862  0.32950581  1  0  -0.258489  0  3.682856  0  0  -0.237596  0  3.935233  0  0  -0.257359  0  3.956317  0  0  -0.022139  -0.225133  0  3.921311  0
C  C15  1  0.61077930  0.82478043  0.67049585  1  0  -0.258352  0  3.682626  0  0  -0.237513  0  3.934918  0  0  -0.25728  0  3.955997  0  0  -0.022136  -0.225062  0  3.921016  0
C  C16  1  0.21082090  0.10926472  0.38994379  1  0  0.544937  0  3.812067  0  0  0.497521  0  4.093323  0  0  0.525994  0  4.097439  0  0  0.232664  0.478634  0  4.089866  0
C  C17  1  0.78916883  0.89073801  0.61005869  1  0  0.544482  0  3.81235  0  0  0.497235  0  4.093412  0  0  0.525721  0  4.097515  0  0  0.232527  0.478352  0  4.089955  0
C  C18  1  0.48824540  0.26489190  0.58540494  1  0  0.174832  0  3.658058  0  0  0.131551  0  3.917126  0  0  0.144203  0  3.931766  0  0  0.06173  0.12358  0  3.906851  0
C  C19  1  0.51172844  0.73509838  0.41459847  1  0  0.174793  0  3.658193  0  0  0.131477  0  3.917297  0  0  0.144134  0  3.931953  0  0  0.061661  0.123513  0  3.907022  0
C  C20  1  0.66480749  0.31617055  0.52838188  1  0  -0.173544  0  3.756799  0  0  -0.192691  0  4.031165  0  0  -0.205767  0  4.052822  0  0  -0.107296  -0.184372  0  4.016545  0
C  C21  1  0.33521421  0.68383402  0.47161938  1  0  -0.173522  0  3.757431  0  0  -0.192674  0  4.031828  0  0  -0.205792  0  4.053473  0  0  -0.107274  -0.184355  0  4.017204  0
C  C22  1  0.61128478  0.27035624  0.39969200  1  0  0.029758  0  3.719763  0  0  -0.005671  0  3.979813  0  0  0.0073  0  3.992494  0  0  -0.058604  -0.01354  0  3.970663  0
C  C23  1  0.38871134  0.72964201  0.60030510  1  0  0.029765  0  3.719442  0  0  -0.005633  0  3.979477  0  0  0.00734  0  3.992167  0  0  -0.058596  -0.013494  0  3.970327  0
C  C24  1  0.34228602  0.15114993  0.19391789  1  0  0.693843  0  3.920417  0  0  0.639195  0  4.217116  0  0  0.675041  0  4.208686  0  0  0.21975  0.614865  0  4.222333  0
C  C25  1  0.65776213  0.84885485  0.80608576  1  0  0.69365  0  3.920679  0  0  0.639077  0  4.217256  0  0  0.674919  0  4.208832  0  0  0.219696  0.614749  0  4.222472  0
N  N26  1  0.27394612  0.16782143  0.51803745  1  0  -0.36045  0  3.382053  0  0  -0.287875  0  3.610734  0  0  -0.309766  0  3.622164  0  0  -0.364933  -0.273415  0  3.602765  0
N  N27  1  0.72606192  0.83218618  0.48195700  1  0  -0.360221  0  3.381642  0  0  -0.287721  0  3.610303  0  0  -0.309623  0  3.621724  0  0  -0.36488  -0.273272  0  3.602351  0
Cl  Cl28  1  0.28019415  0.63121056  0.10291337  1  0  -0.738939  0  0.79205  0  0  -0.670198  0  1.034613  0  0  -0.687858  0  1.016721  0  0  -0.289751  -0.657182  0  1.047076  0
Cl  Cl29  1  0.71980683  0.36879691  0.89708652  1  0  -0.738939  0  0.792018  0  0  -0.67019  0  1.034596  0  0  -0.687851  0  1.016705  0  0  -0.289743  -0.657172  0  1.04706  0
O  O30  1  0.52097684  0.15574530  0.14165921  1  0  -0.734335  0  2.002049  0  0  -0.667715  0  2.24296  0  0  -0.694594  0  2.232578  0  0  -0.366018  -0.648886  0  2.249711  0
O  O31  1  0.47901398  0.84425276  0.85834869  1  0  -0.734486  0  2.001565  0  0  -0.667866  0  2.242391  0  0  -0.694755  0  2.23201  0  0  -0.366041  -0.649024  0  2.249138  0
O  O32  1  0.12943655  0.13600981  0.13539677  1  0  -0.721807  0  2.018045  0  0  -0.656175  0  2.266098  0  0  -0.6828  0  2.255782  0  0  -0.402841  -0.637573  0  2.272815  0
O  O33  1  0.87054875  0.86397461  0.86459194  1  0  -0.721434  0  2.018857  0  0  -0.655836  0  2.266856  0  0  -0.682448  0  2.256541  0  0  -0.402675  -0.637244  0  2.273577  0
O  O34  1  0.01126021  0.00074166  0.33978651  1  0  -0.63189  0  1.991219  0  0  -0.577337  0  2.23115  0  0  -0.601988  0  2.22507  0  0  -0.339209  -0.559969  0  2.234666  0
O  O35  1  0.98874231  0.99926432  0.66021153  1  0  -0.631726  0  1.991224  0  0  -0.577289  0  2.231125  0  0  -0.601949  0  2.225042  0  0  -0.339179  -0.559913  0  2.234635  0
O  O36  1  0.84962195  0.51146810  0.21969644  1  0  -0.859794  0  1.818096  0  0  -0.814957  0  1.999408  0  0  -0.833689  0  1.970729  0  0  -0.613343  -0.801604  0  2.019498  0
O  O37  1  0.15038365  0.48853478  0.78030573  1  0  -0.859772  0  1.818123  0  0  -0.81494  0  1.999472  0  0  -0.833666  0  1.970785  0  0  -0.613368  -0.801582  0  2.019562  0
