# generated using pymatgen
data_CdH16C13N4O7
_symmetry_space_group_name_H-M   'P 1'
_cell_length_a   7.75432525
_cell_length_b   10.37277951
_cell_length_c   11.88706041
_cell_angle_alpha   100.69384197
_cell_angle_beta   102.53219542
_cell_angle_gamma   105.30338204
_symmetry_Int_Tables_number   1
_chemical_formula_structural   CdH16C13N4O7
_chemical_formula_sum   'Cd2 H32 C26 N8 O14'
_cell_volume   869.79326973
_cell_formula_units_Z   2
loop_
 _symmetry_equiv_pos_site_id
 _symmetry_equiv_pos_as_xyz
  1  'x, y, z'
loop_
 _atom_site_type_symbol
 _atom_site_label
 _atom_site_symmetry_multiplicity
 _atom_site_fract_x
 _atom_site_fract_y
 _atom_site_fract_z
 _atom_site_occupancy
 _atom_site_hle17_bader_spin_density
 _atom_site_hle17_ddec_charge
 _atom_site_hle17_ddec_spin_density
 _atom_site_hle17_ddec_sum_bond_order
 _atom_site_hle17_magmom
 _atom_site_hse06_10hf_bader_spin_density
 _atom_site_hse06_10hf_ddec_charge
 _atom_site_hse06_10hf_ddec_spin_density
 _atom_site_hse06_10hf_ddec_sum_bond_order
 _atom_site_hse06_10hf_magmom
 _atom_site_hse06_bader_spin_density
 _atom_site_hse06_ddec_charge
 _atom_site_hse06_ddec_spin_density
 _atom_site_hse06_ddec_sum_bond_order
 _atom_site_hse06_magmom
 _atom_site_pbe_bader_spin_density
 _atom_site_pbe_cm5_charge
 _atom_site_pbe_ddec_charge
 _atom_site_pbe_ddec_spin_density
 _atom_site_pbe_ddec_sum_bond_order
 _atom_site_pbe_magmom
Cd  Cd0  1  0.86978414  0.77538427  0.10369475  1  0  1.069192  0  1.729286  0  0  0.869425  0  2.179547  0  0  0.925109  0  2.129521  0  0  0.772928  0.829592  0  2.213962  0
Cd  Cd1  1  0.13021413  0.22461588  0.89630591  1  0  1.069262  0  1.72923  0  0  0.869386  0  2.179568  0  0  0.925071  0  2.129544  0  0  0.772891  0.829554  0  2.213984  0
H  H2  1  0.93745308  0.81903754  0.37903180  1  0  0.083337  0  0.939811  0  0  0.094417  0  1.000054  0  0  0.09678  0  0.9977  0  0  0.115929  0.092558  0  1.001992  0
H  H3  1  0.06254873  0.18096161  0.62096922  1  0  0.083366  0  0.939784  0  0  0.09445  0  1.00004  0  0  0.096813  0  0.997685  0  0  0.115952  0.092591  0  1.001979  0
H  H4  1  0.77204500  0.82768460  0.53811739  1  0  0.115537  0  0.983528  0  0  0.117913  0  1.055501  0  0  0.122406  0  1.052572  0  0  0.102399  0.114661  0  1.057662  0
H  H5  1  0.22795551  0.17231144  0.46188378  1  0  0.115439  0  0.983576  0  0  0.117854  0  1.055502  0  0  0.122364  0  1.052558  0  0  0.102352  0.114602  0  1.057661  0
H  H6  1  0.28015854  0.79439988  0.26673969  1  0  0.123783  0  0.971778  0  0  0.133495  0  1.032403  0  0  0.136573  0  1.031424  0  0  0.107807  0.131178  0  1.033497  0
H  H7  1  0.71984721  0.20560239  0.73326240  1  0  0.123792  0  0.971793  0  0  0.133482  0  1.032445  0  0  0.136561  0  1.031469  0  0  0.107784  0.131164  0  1.033539  0
H  H8  1  0.45842167  0.77813790  0.11861980  1  0  0.077873  0  0.953896  0  0  0.0839  0  1.023878  0  0  0.086421  0  1.021396  0  0  0.111802  0.082012  0  1.025673  0
H  H9  1  0.54158059  0.22186229  0.88137977  1  0  0.077864  0  0.953911  0  0  0.083885  0  1.023905  0  0  0.086406  0  1.021423  0  0  0.111795  0.081998  0  1.025699  0
H  H10  1  0.30480424  0.86652072  0.49015256  1  0  0.081133  0  0.925569  0  0  0.10085  0  0.981043  0  0  0.101536  0  0.981605  0  0  0.094754  0.100335  0  0.98067  0
H  H11  1  0.69519493  0.13347841  0.50984722  1  0  0.081116  0  0.925587  0  0  0.10084  0  0.981065  0  0  0.101526  0  0.981629  0  0  0.094754  0.100326  0  0.980691  0
H  H12  1  0.50123503  0.85989101  0.59593799  1  0  0.084451  0  0.941698  0  0  0.098251  0  1.0079  0  0  0.099528  0  1.008072  0  0  0.09289  0.097271  0  1.007895  0
H  H13  1  0.49876416  0.14010502  0.40406215  1  0  0.084444  0  0.941706  0  0  0.098252  0  1.007911  0  0  0.09953  0  1.008082  0  0  0.092888  0.097274  0  1.007908  0
H  H14  1  0.39161979  0.59649753  0.50300758  1  0  0.064371  0  0.932729  0  0  0.085043  0  0.989467  0  0  0.085877  0  0.99005  0  0  0.090003  0.0846  0  0.988634  0
H  H15  1  0.60838117  0.40349955  0.49699213  1  0  0.06442  0  0.932707  0  0  0.085095  0  0.989437  0  0  0.085929  0  0.990018  0  0  0.090033  0.084652  0  0.988604  0
H  H16  1  0.18819074  0.61334976  0.41480397  1  0  0.079315  0  0.953427  0  0  0.092639  0  1.021815  0  0  0.09469  0  1.020534  0  0  0.090483  0.091041  0  1.022871  0
H  H17  1  0.81181198  0.38664836  0.58519533  1  0  0.079326  0  0.953386  0  0  0.092625  0  1.021805  0  0  0.094675  0  1.020524  0  0  0.090479  0.091031  0  1.022861  0
H  H18  1  0.60393372  0.92649035  0.97739811  1  0  0.075262  0  0.943993  0  0  0.087782  0  1.004333  0  0  0.089701  0  1.002622  0  0  0.115252  0.086299  0  1.005718  0
H  H19  1  0.39606365  0.07351393  0.02260056  1  0  0.075226  0  0.943956  0  0  0.087804  0  1.004221  0  0  0.089726  0  1.002505  0  0  0.11525  0.086322  0  1.005608  0
H  H20  1  0.39800189  0.47932208  0.68082980  1  0  0.103538  0  0.955023  0  0  0.114376  0  1.015868  0  0  0.116623  0  1.017263  0  0  0.106027  0.112876  0  1.015017  0
H  H21  1  0.60199678  0.52067911  0.31917361  1  0  0.103582  0  0.954982  0  0  0.114428  0  1.015811  0  0  0.116675  0  1.017206  0  0  0.106074  0.112931  0  1.014951  0
H  H22  1  0.64695756  0.53512412  0.87084993  1  0  0.085758  0  0.94911  0  0  0.095548  0  1.011948  0  0  0.097545  0  1.010054  0  0  0.117088  0.094041  0  1.013426  0
H  H23  1  0.35303711  0.46487704  0.12915542  1  0  0.085775  0  0.949157  0  0  0.095567  0  1.01198  0  0  0.097563  0  1.010086  0  0  0.11709  0.094059  0  1.013457  0
H  H24  1  0.34828181  0.88526189  0.79332715  1  0  0.109493  0  0.944822  0  0  0.118516  0  1.006603  0  0  0.121551  0  1.006405  0  0  0.106735  0.116437  0  1.006815  0
H  H25  1  0.65171558  0.11474239  0.20666984  1  0  0.109549  0  0.944813  0  0  0.118545  0  1.006608  0  0  0.121579  0  1.006411  0  0  0.106741  0.116468  0  1.006822  0
H  H26  1  0.12331630  0.71840605  0.61060954  1  0  0.087816  0  0.921809  0  0  0.106807  0  0.976872  0  0  0.10809  0  0.976409  0  0  0.097191  0.105852  0  0.977305  0
H  H27  1  0.87668291  0.28159309  0.38938688  1  0  0.087799  0  0.921835  0  0  0.106807  0  0.976883  0  0  0.108093  0  0.976419  0  0  0.097181  0.105851  0  0.977317  0
H  H28  1  0.11177892  0.54260834  0.58570240  1  0  0.088144  0  0.936097  0  0  0.106569  0  0.994972  0  0  0.107339  0  0.995163  0  0  0.100232  0.106031  0  0.994855  0
H  H29  1  0.88822247  0.45738978  0.41429755  1  0  0.088134  0  0.93608  0  0  0.106561  0  0.994959  0  0  0.107331  0  0.995152  0  0  0.10022  0.106022  0  0.994842  0
H  H30  1  0.07895995  0.70644631  0.95171880  1  0  0.407133  0  0.905225  0  0  0.37082  0  0.979313  0  0  0.382573  0  0.962371  0  0  0.28463  0.362396  0  0.991451  0
H  H31  1  0.92103880  0.29355179  0.04827992  1  0  0.4071  0  0.905263  0  0  0.370798  0  0.979334  0  0  0.382553  0  0.962389  0  0  0.284639  0.362374  0  0.991472  0
H  H32  1  0.09467472  0.86163451  0.96448179  1  0  0.409994  0  0.89965  0  0  0.375501  0  0.970532  0  0  0.387164  0  0.95364  0  0  0.283179  0.36726  0  0.982451  0
H  H33  1  0.90532355  0.13836564  0.03551803  1  0  0.409951  0  0.899709  0  0  0.375504  0  0.970525  0  0  0.387168  0  0.953633  0  0  0.283206  0.367264  0  0.982443  0
C  C34  1  0.79106304  0.81265070  0.35813028  1  0  0.122378  0  3.743713  0  0  0.089295  0  3.997199  0  0  0.097098  0  4.016212  0  0  0.034651  0.084155  0  3.984586  0
C  C35  1  0.20894050  0.18735258  0.64187081  1  0  0.122364  0  3.743707  0  0  0.089237  0  3.997279  0  0  0.097041  0  4.016293  0  0  0.03459  0.084097  0  3.984664  0
C  C36  1  0.69906881  0.81834614  0.44608533  1  0  -0.183047  0  3.70859  0  0  -0.197713  0  3.955633  0  0  -0.206194  0  3.975379  0  0  -0.090133  -0.192265  0  3.942345  0
C  C37  1  0.30093479  0.18165095  0.55391562  1  0  -0.182938  0  3.708639  0  0  -0.19765  0  3.955653  0  0  -0.206143  0  3.975385  0  0  -0.09007  -0.1922  0  3.942363  0
C  C38  1  0.51097335  0.81108287  0.41546797  1  0  0.167571  0  3.70235  0  0  0.183372  0  3.938405  0  0  0.188928  0  3.960453  0  0  0.019863  0.179816  0  3.923413  0
C  C39  1  0.48902980  0.18891629  0.58453241  1  0  0.16745  0  3.702573  0  0  0.183399  0  3.938461  0  0  0.188956  0  3.960509  0  0  0.019879  0.179843  0  3.923469  0
C  C40  1  0.42526669  0.79959661  0.29592045  1  0  -0.161909  0  3.673499  0  0  -0.179737  0  3.914685  0  0  -0.187874  0  3.935939  0  0  -0.084205  -0.174709  0  3.90084  0
C  C41  1  0.57473821  0.20040359  0.70408035  1  0  -0.161818  0  3.673485  0  0  -0.179674  0  3.914646  0  0  -0.187816  0  3.935905  0  0  -0.084144  -0.174646  0  3.900801  0
C  C42  1  0.52545254  0.79148573  0.21261526  1  0  0.128616  0  3.727408  0  0  0.099439  0  3.978238  0  0  0.106852  0  3.99733  0  0  0.041268  0.094692  0  3.965328  0
C  C43  1  0.47454928  0.20851342  0.78738491  1  0  0.128613  0  3.727284  0  0  0.09943  0  3.978141  0  0  0.106842  0  3.997232  0  0  0.04125  0.094681  0  3.965234  0
C  C44  1  0.40401938  0.80855130  0.50659469  1  0  -0.161825  0  3.683893  0  0  -0.203427  0  3.932443  0  0  -0.205307  0  3.945056  0  0  -0.158663  -0.201969  0  3.923476  0
C  C45  1  0.59597980  0.19144783  0.49340426  1  0  -0.161774  0  3.683958  0  0  -0.203437  0  3.932517  0  0  -0.205322  0  3.945138  0  0  -0.158661  -0.201982  0  3.923555  0
C  C46  1  0.29610582  0.65862783  0.50078099  1  0  -0.095794  0  3.653072  0  0  -0.133674  0  3.910224  0  0  -0.135482  0  3.924147  0  0  -0.158726  -0.13207  0  3.900277  0
C  C47  1  0.70389558  0.34137029  0.49921812  1  0  -0.095869  0  3.653081  0  0  -0.133718  0  3.910249  0  0  -0.135526  0  3.924173  0  0  -0.158764  -0.132119  0  3.900308  0
C  C48  1  0.55242748  0.82805149  0.90971742  1  0  0.130871  0  3.725788  0  0  0.098937  0  3.976971  0  0  0.106749  0  3.996306  0  0  0.042074  0.093929  0  3.96377  0
C  C49  1  0.44757032  0.17195382  0.09028148  1  0  0.130965  0  3.725494  0  0  0.099006  0  3.976649  0  0  0.106819  0  3.995983  0  0  0.042127  0.093996  0  3.963452  0
C  C50  1  0.35174400  0.67822925  0.72040750  1  0  0.172828  0  3.704923  0  0  0.186295  0  3.945493  0  0  0.192448  0  3.966892  0  0  0.020964  0.182347  0  3.930991  0
C  C51  1  0.64825470  0.32177193  0.27959339  1  0  0.172925  0  3.70484  0  0  0.186321  0  3.945523  0  0  0.192513  0  3.966867  0  0  0.020956  0.182374  0  3.931019  0
C  C52  1  0.43850273  0.57981549  0.74452026  1  0  -0.160922  0  3.683802  0  0  -0.179955  0  3.932463  0  0  -0.188652  0  3.954031  0  0  -0.083494  -0.174513  0  3.918298  0
C  C53  1  0.56149284  0.42018464  0.25548421  1  0  -0.16098  0  3.683813  0  0  -0.179996  0  3.932524  0  0  -0.188702  0  3.954076  0  0  -0.083515  -0.174555  0  3.91836  0
C  C54  1  0.57724894  0.60976577  0.85017610  1  0  0.142465  0  3.711047  0  0  0.108655  0  3.964456  0  0  0.117468  0  3.982127  0  0  0.045374  0.102951  0  3.952451  0
C  C55  1  0.42275102  0.39023852  0.14982800  1  0  0.14237  0  3.711174  0  0  0.108565  0  3.964567  0  0  0.117378  0  3.982239  0  0  0.045297  0.102861  0  3.952563  0
C  C56  1  0.41187416  0.80507862  0.80623161  1  0  -0.163501  0  3.694347  0  0  -0.181389  0  3.94364  0  0  -0.189672  0  3.964514  0  0  -0.082983  -0.176031  0  3.92955  0
C  C57  1  0.58812236  0.19492359  0.19376576  1  0  -0.163654  0  3.694259  0  0  -0.1815  0  3.943595  0  0  -0.189794  0  3.964457  0  0  -0.083042  -0.176147  0  3.929509  0
C  C58  1  0.20716995  0.64818564  0.60402924  1  0  -0.162476  0  3.690118  0  0  -0.20738  0  3.945016  0  0  -0.208604  0  3.956267  0  0  -0.155424  -0.20641  0  3.937061  0
C  C59  1  0.79282881  0.35181246  0.39596864  1  0  -0.162455  0  3.690183  0  0  -0.207354  0  3.945095  0  0  -0.208592  0  3.956339  0  0  -0.155378  -0.206383  0  3.937138  0
N  N60  1  0.06012575  0.07053490  0.22065606  1  0  0.689936  0  4.125756  0  0  0.729785  0  4.405333  0  0  0.758391  0  4.411207  0  0  0.095461  0.710519  0  4.400807  0
N  N61  1  0.93987651  0.92946528  0.77934351  1  0  0.690873  0  4.125297  0  0  0.729903  0  4.405308  0  0  0.758507  0  4.411184  0  0  0.095483  0.710635  0  4.400784  0
N  N62  1  0.93720340  0.52571025  0.14821813  1  0  0.694254  0  4.131932  0  0  0.719662  0  4.43187  0  0  0.746839  0  4.4396  0  0  0.095779  0.700428  0  4.42612  0
N  N63  1  0.06279578  0.47428888  0.85178082  1  0  0.694194  0  4.132302  0  0  0.719755  0  4.432054  0  0  0.746848  0  4.439882  0  0  0.095848  0.70052  0  4.426304  0
N  N64  1  0.70579220  0.79770207  0.24265046  1  0  -0.364144  0  3.318394  0  0  -0.285775  0  3.588364  0  0  -0.308091  0  3.609736  0  0  -0.344555  -0.270758  0  3.57375  0
N  N65  1  0.29421005  0.20229811  0.75734995  1  0  -0.364187  0  3.318362  0  0  -0.285795  0  3.588358  0  0  -0.308111  0  3.609729  0  0  -0.344548  -0.270778  0  3.573746  0
N  N66  1  0.63370561  0.73211708  0.93217807  1  0  -0.354789  0  3.290123  0  0  -0.273082  0  3.557863  0  0  -0.29549  0  3.577633  0  0  -0.340422  -0.257819  0  3.543904  0
N  N67  1  0.36628641  0.26788715  0.06782486  1  0  -0.35475  0  3.289974  0  0  -0.273039  0  3.557715  0  0  -0.295448  0  3.577484  0  0  -0.340376  -0.257777  0  3.543757  0
O  O68  1  0.11640626  0.98123198  0.26445101  1  0  -0.465529  0  1.767321  0  0  -0.453339  0  1.987049  0  0  -0.471162  0  1.981325  0  0  -0.186016  -0.440842  0  1.990872  0
O  O69  1  0.88359423  0.01876715  0.73554897  1  0  -0.465963  0  1.767316  0  0  -0.453405  0  1.987099  0  0  -0.471229  0  1.981375  0  0  -0.186028  -0.440908  0  1.990922  0
O  O70  1  0.92574044  0.02448493  0.12128193  1  0  -0.534794  0  1.830421  0  0  -0.504463  0  2.056615  0  0  -0.526044  0  2.048407  0  0  -0.21199  -0.489105  0  2.061672  0
O  O71  1  0.07425916  0.97551523  0.87871893  1  0  -0.535176  0  1.830363  0  0  -0.504503  0  2.0566  0  0  -0.526092  0  2.048406  0  0  -0.211996  -0.489141  0  2.061657  0
O  O72  1  0.99213220  0.64093227  0.22760640  1  0  -0.484278  0  1.822418  0  0  -0.457877  0  2.054185  0  0  -0.476731  0  2.047628  0  0  -0.190624  -0.444082  0  2.058439  0
O  O73  1  0.00786963  0.35906688  0.77239294  1  0  -0.484215  0  1.822467  0  0  -0.457855  0  2.054206  0  0  -0.476682  0  2.04768  0  0  -0.190618  -0.44406  0  2.058461  0
O  O74  1  0.82899044  0.51400978  0.04722737  1  0  -0.474304  0  1.758324  0  0  -0.458408  0  1.980502  0  0  -0.475384  0  1.974959  0  0  -0.194919  -0.44585  0  1.983723  0
O  O75  1  0.17100784  0.48599037  0.95277246  1  0  -0.474376  0  1.758561  0  0  -0.458528  0  1.980704  0  0  -0.475476  0  1.975188  0  0  -0.195001  -0.445969  0  1.983927  0
O  O76  1  0.12650929  0.19645042  0.26884347  1  0  -0.390304  0  1.733191  0  0  -0.390654  0  1.926204  0  0  -0.401683  0  1.921463  0  0  -0.154919  -0.382964  0  1.92952  0
O  O77  1  0.87349296  0.80354976  0.73115694  1  0  -0.390624  0  1.73313  0  0  -0.390657  0  1.926204  0  0  -0.40167  0  1.92144  0  0  -0.154896  -0.382968  0  1.929522  0
O  O78  1  0.99082444  0.42720798  0.17162365  1  0  -0.419294  0  1.806883  0  0  -0.405087  0  2.018746  0  0  -0.41876  0  2.012513  0  0  -0.155068  -0.395246  0  2.023044  0
O  O79  1  0.00917694  0.57279323  0.82837427  1  0  -0.419208  0  1.806877  0  0  -0.405083  0  2.018726  0  0  -0.418724  0  2.012522  0  0  -0.155053  -0.39524  0  2.023024  0
O  O80  1  0.10618717  0.79451529  0.01360616  1  0  -0.818054  0  1.88637  0  0  -0.755343  0  2.084961  0  0  -0.779166  0  2.051061  0  0  -0.592639  -0.738653  0  2.108676  0
O  O81  1  0.89380895  0.20548279  0.98639133  1  0  -0.817999  0  1.886436  0  0  -0.755297  0  2.084972  0  0  -0.779124  0  2.051076  0  0  -0.592654  -0.738607  0  2.108687  0
