# generated using pymatgen
data_Gd2P2H14C9NO18
_symmetry_space_group_name_H-M   'P 1'
_cell_length_a   8.29653863
_cell_length_b   9.51938505
_cell_length_c   30.97228910
_cell_angle_alpha   89.99948256
_cell_angle_beta   89.99994051
_cell_angle_gamma   99.96571649
_symmetry_Int_Tables_number   1
_chemical_formula_structural   Gd2P2H14C9NO18
_chemical_formula_sum   'Gd8 P8 H56 C36 N4 O72'
_cell_volume   2409.21932416
_cell_formula_units_Z   4
loop_
 _symmetry_equiv_pos_site_id
 _symmetry_equiv_pos_as_xyz
  1  'x, y, z'
loop_
 _atom_site_type_symbol
 _atom_site_label
 _atom_site_symmetry_multiplicity
 _atom_site_fract_x
 _atom_site_fract_y
 _atom_site_fract_z
 _atom_site_occupancy
 _atom_site_pbe_bader_charge
 _atom_site_pbe_bader_spin_density
 _atom_site_pbe_cm5_charge
 _atom_site_pbe_ddec_charge
 _atom_site_pbe_ddec_spin_density
 _atom_site_pbe_ddec_sum_bond_order
 _atom_site_pbe_magmom
Gd  Gd0  1  0.57767776  0.16766424  0.78558838  1  2.182701  0  1.470401  2.023438  0  2.253035  0
Gd  Gd1  1  0.92231256  0.33233334  0.28558857  1  2.182651  0  1.470321  2.023243  0  2.253154  0
Gd  Gd2  1  0.42231296  0.83232317  0.21441271  1  2.182752  0  1.470332  2.023306  0  2.253117  0
Gd  Gd3  1  0.07767725  0.66766256  0.71440993  1  2.182575  0  1.470379  2.023344  0  2.253064  0
Gd  Gd4  1  0.23060589  0.68214048  0.02319718  1  2.189581  0  1.464253  2.067679  0  2.169658  0
Gd  Gd5  1  0.26939133  0.81786612  0.52320006  1  2.189483  0  1.4643  2.067808  0  2.16946  0
Gd  Gd6  1  0.76938906  0.31786401  0.97680552  1  2.189384  0  1.464235  2.067644  0  2.169377  0
Gd  Gd7  1  0.73061043  0.18214273  0.47680070  1  2.189481  0  1.464243  2.067793  0  2.169432  0
P  P8  1  0.26424755  0.40320890  0.76863907  1  3.425546  0  0.39095  1.322369  0  5.295134  0
P  P9  1  0.23574960  0.09677818  0.26864288  1  3.425185  0  0.390926  1.322364  0  5.295243  0
P  P10  1  0.73575506  0.59677763  0.23135782  1  3.425146  0  0.39084  1.322217  0  5.295049  0
P  P11  1  0.76425453  0.90321689  0.73135789  1  3.42553  0  0.391003  1.322473  0  5.294843  0
P  P12  1  0.08820051  0.57547937  0.91740377  1  3.376706  0  0.393026  1.379983  0  5.312349  0
P  P13  1  0.41181184  0.92453451  0.41740533  1  3.37707  0  0.393143  1.380343  0  5.311854  0
P  P14  1  0.91180049  0.42452521  0.08259505  1  3.376695  0  0.393183  1.38025  0  5.312034  0
P  P15  1  0.58819380  0.07546909  0.58259931  1  3.377452  0  0.393153  1.38021  0  5.311914  0
H  H16  1  0.07447576  0.71457771  0.85947309  1  0.647591  0  0.357833  0.430437  0  0.826789  0
H  H17  1  0.42553332  0.78542301  0.35947373  1  0.647674  0  0.357844  0.430443  0  0.826721  0
H  H18  1  0.92553033  0.28542164  0.14052509  1  0.647695  0  0.357797  0.430327  0  0.826876  0
H  H19  1  0.57447761  0.21457642  0.64052703  1  0.647636  0  0.357912  0.430572  0  0.826879  0
H  H20  1  0.46498724  0.90130780  0.98195032  1  0.632607  0  0.325867  0.420381  0  0.879579  0
H  H21  1  0.03500772  0.59870488  0.48194901  1  0.632481  0  0.325902  0.420495  0  0.879413  0
H  H22  1  0.53501090  0.09864676  0.01804043  1  0.632248  0  0.325829  0.420335  0  0.879637  0
H  H23  1  0.96499006  0.40136983  0.51804336  1  0.632238  0  0.325742  0.420289  0  0.87968  0
H  H24  1  0.29575685  0.88121278  0.95920714  1  0.624487  0  0.322488  0.419577  0  0.87911  0
H  H25  1  0.20424053  0.61878576  0.45920734  1  0.624483  0  0.322483  0.419631  0  0.879038  0
H  H26  1  0.70422579  0.11881065  0.04079556  1  0.624508  0  0.322452  0.419514  0  0.879195  0
H  H27  1  0.79577610  0.38119144  0.54079988  1  0.624325  0  0.322408  0.419533  0  0.879151  0
H  H28  1  0.94658747  0.84299407  0.03374855  1  0.61631  0  0.337536  0.423009  0  0.858633  0
H  H29  1  0.55341717  0.65701494  0.53374774  1  0.616358  0  0.337523  0.423051  0  0.858595  0
H  H30  1  0.05341765  0.15702015  0.96625125  1  0.616271  0  0.33752  0.423084  0  0.858538  0
H  H31  1  0.44658866  0.34298972  0.46625173  1  0.616328  0  0.337523  0.422998  0  0.858659  0
H  H32  1  0.87487158  0.71637175  0.00188154  1  0.674195  0  0.309433  0.412831  0  0.90274  0
H  H33  1  0.62512836  0.78363710  0.50188068  1  0.674136  0  0.309412  0.412829  0  0.902755  0
H  H34  1  0.12513074  0.28364030  0.99811890  1  0.674101  0  0.30945  0.412836  0  0.902703  0
H  H35  1  0.37486984  0.21636531  0.49811847  1  0.674144  0  0.309437  0.412842  0  0.902741  0
H  H36  1  0.33732785  0.34673897  0.85700620  1  0.5369  0  0.31097  0.251986  0  0.980482  0
H  H37  1  0.16267850  0.15326150  0.35700599  1  0.536896  0  0.311012  0.252043  0  0.980531  0
H  H38  1  0.66267322  0.65325924  0.14299586  1  0.536914  0  0.310973  0.251995  0  0.980498  0
H  H39  1  0.83731773  0.84673662  0.64299219  1  0.536923  0  0.311007  0.252049  0  0.980398  0
H  H40  1  0.38271360  0.57632075  0.82218894  1  0.11308  0  0.137703  0.170811  0  0.934096  0
H  H41  1  0.11729808  0.92368009  0.32219122  1  0.11311  0  0.137751  0.170844  0  0.93419  0
H  H42  1  0.61729574  0.42367653  0.17780956  1  0.113093  0  0.137728  0.170823  0  0.93416  0
H  H43  1  0.88270650  0.07631073  0.67780825  1  0.113102  0  0.137747  0.170837  0  0.934346  0
H  H44  1  0.16563595  0.56679086  0.81690910  1  0.154814  0  0.127549  0.145937  0  1.066281  0
H  H45  1  0.33436688  0.93321425  0.31691001  1  0.154964  0  0.127585  0.145904  0  1.066289  0
H  H46  1  0.83437129  0.43321489  0.18308908  1  0.154951  0  0.127561  0.145859  0  1.066332  0
H  H47  1  0.66563616  0.06678824  0.68308914  1  0.15493  0  0.1276  0.145959  0  1.066204  0
H  H48  1  0.36610087  0.56980501  0.89559328  1  0.087659  0  0.13658  0.164992  0  0.945123  0
H  H49  1  0.13389421  0.93020607  0.39559586  1  0.087678  0  0.136522  0.165012  0  0.945129  0
H  H50  1  0.63389586  0.43020270  0.10440393  1  0.087626  0  0.136559  0.165023  0  0.945134  0
H  H51  1  0.86610209  0.06978568  0.60440232  1  0.087897  0  0.136558  0.16504  0  0.945228  0
H  H52  1  0.27732520  0.41512572  0.92398857  1  0.117663  0  0.129083  0.150673  0  0.995184  0
H  H53  1  0.22269345  0.08488459  0.42398853  1  0.117613  0  0.129057  0.150658  0  0.995193  0
H  H54  1  0.72268464  0.58488114  0.07601220  1  0.117647  0  0.12908  0.150686  0  0.995188  0
H  H55  1  0.77730305  0.91510822  0.57600997  1  0.117588  0  0.129093  0.150595  0  0.995139  0
H  H56  1  0.98082144  0.36365207  0.84951197  1  0.135585  0  0.125518  0.124288  0  0.991738  0
H  H57  1  0.51918526  0.13635125  0.34951249  1  0.135817  0  0.125485  0.124178  0  0.991826  0
H  H58  1  0.01918178  0.63635149  0.15048654  1  0.135832  0  0.125522  0.124277  0  0.991711  0
H  H59  1  0.48081618  0.86364909  0.65048892  1  0.135826  0  0.125485  0.124165  0  0.991862  0
H  H60  1  0.06382596  0.23826745  0.88198678  1  0.092662  0  0.123027  0.114366  0  0.966929  0
H  H61  1  0.43618306  0.26174186  0.38198781  1  0.092587  0  0.123022  0.114308  0  0.967017  0
H  H62  1  0.93617606  0.76173609  0.11801366  1  0.092688  0  0.122983  0.114308  0  0.966987  0
H  H63  1  0.56381038  0.73825409  0.61801198  1  0.092694  0  0.123002  0.114289  0  0.966973  0
H  H64  1  0.18598863  0.14509189  0.81570700  1  0.096637  0  0.113756  0.081823  0  1.022512  0
H  H65  1  0.31401311  0.35490871  0.31570877  1  0.096639  0  0.113722  0.08179  0  1.022513  0
H  H66  1  0.81400620  0.85490516  0.18429377  1  0.096599  0  0.113735  0.081813  0  1.022445  0
H  H67  1  0.68598433  0.64508944  0.68429231  1  0.096268  0  0.113707  0.08178  0  1.022551  0
H  H68  1  0.96938960  0.13085449  0.81192514  1  0.151531  0  0.126705  0.121365  0  0.98869  0
H  H69  1  0.53061227  0.36914778  0.31192502  1  0.1514  0  0.12672  0.121356  0  0.988655  0
H  H70  1  0.03061344  0.86914800  0.18807594  1  0.15152  0  0.12669  0.121293  0  0.988711  0
H  H71  1  0.46938778  0.63085147  0.68807607  1  0.15143  0  0.126694  0.121321  0  0.988724  0
C  C72  1  0.26478244  0.50470339  0.81857324  1  -0.345714  0  -0.070125  -0.406745  0  3.781791  0
C  C73  1  0.23521617  0.99529841  0.31857917  1  -0.345506  0  -0.07023  -0.406644  0  3.781931  0
C  C74  1  0.73521946  0.49529270  0.18142268  1  -0.345677  0  -0.070186  -0.40662  0  3.782085  0
C  C75  1  0.76479820  0.00470001  0.68142450  1  -0.345828  0  -0.070243  -0.406806  0  3.781996  0
C  C76  1  0.25531412  0.48844716  0.89815053  1  -0.245289  0  -0.063132  -0.390608  0  3.779055  0
C  C77  1  0.24467666  0.01155498  0.39814844  1  -0.244927  0  -0.063017  -0.390616  0  3.779137  0
C  C78  1  0.74467746  0.51155195  0.10185249  1  -0.244963  0  -0.06305  -0.390573  0  3.779104  0
C  C79  1  0.75532981  0.98844650  0.60185426  1  -0.245428  0  -0.063131  -0.390626  0  3.779122  0
C  C80  1  0.08115756  0.30264786  0.85244383  1  0.17581  0  -0.059541  -0.114478  0  3.767787  0
C  C81  1  0.41884737  0.19735804  0.35244504  1  0.175488  0  -0.059462  -0.114151  0  3.767722  0
C  C82  1  0.91884408  0.69735355  0.14755661  1  0.175604  0  -0.059517  -0.114342  0  3.767807  0
C  C83  1  0.58115166  0.80264226  0.64755604  1  0.175536  0  -0.059447  -0.114168  0  3.767833  0
C  C84  1  0.08515313  0.20615444  0.81355759  1  0.351265  0  -0.053294  0.023102  0  3.825887  0
C  C85  1  0.41484940  0.29385049  0.31355789  1  0.352032  0  -0.05324  0.023164  0  3.825866  0
C  C86  1  0.91484265  0.79384793  0.18644285  1  0.351026  0  -0.053234  0.023241  0  3.825648  0
C  C87  1  0.58515364  0.70615200  0.68644320  1  0.351671  0  -0.053259  0.023102  0  3.82592  0
C  C88  1  0.79616168  0.39923394  0.72518758  1  1.598129  0  0.215472  0.501693  0  4.239062  0
C  C89  1  0.70383365  0.10074962  0.22519171  1  1.597772  0  0.215319  0.501507  0  4.239288  0
C  C90  1  0.20384074  0.60075152  0.27481189  1  1.59786  0  0.215301  0.501468  0  4.239487  0
C  C91  1  0.29616189  0.89923787  0.77481035  1  1.598069  0  0.21537  0.501494  0  4.239377  0
C  C92  1  0.83494333  0.45170826  0.77227928  1  1.61525  0  0.216447  0.499528  0  4.247964  0
C  C93  1  0.66504311  0.04828754  0.27228162  1  1.614794  0  0.216323  0.499467  0  4.24836  0
C  C94  1  0.16505222  0.54827923  0.22771955  1  1.614857  0  0.216286  0.499424  0  4.248087  0
C  C95  1  0.33495123  0.95169993  0.72771817  1  1.615216  0  0.216408  0.499507  0  4.24827  0
C  C96  1  0.57314411  0.25844324  0.88836270  1  1.602713  0  0.225083  0.505235  0  4.19482  0
C  C97  1  0.92685064  0.24154806  0.38836024  1  1.60243  0  0.225039  0.505296  0  4.195135  0
C  C98  1  0.42684074  0.74154513  0.11163774  1  1.602613  0  0.225072  0.505203  0  4.194898  0
C  C99  1  0.07315081  0.75845228  0.61163568  1  1.602733  0  0.225061  0.505331  0  4.194971  0
C  C100  1  0.70395603  0.16072702  0.88636297  1  1.607748  0  0.218856  0.501721  0  4.253045  0
C  C101  1  0.79604282  0.33926016  0.38636415  1  1.607839  0  0.21886  0.501802  0  4.25301  0
C  C102  1  0.29604153  0.83927857  0.11363973  1  1.607884  0  0.218979  0.502002  0  4.252535  0
C  C103  1  0.20395719  0.66072527  0.61363403  1  1.607593  0  0.218907  0.501902  0  4.253164  0
C  C104  1  0.43801265  0.42986549  0.00437906  1  1.60157  0  0.220007  0.512791  0  4.206406  0
C  C105  1  0.06199607  0.07014584  0.50437979  1  1.581601  0  0.220011  0.512834  0  4.20679  0
C  C106  1  0.56199171  0.57014446  0.99562105  1  1.581756  0  0.219914  0.512638  0  4.207003  0
C  C107  1  0.93800626  0.92986621  0.49562162  1  1.601987  0  0.220042  0.512934  0  4.206401  0
N  N108  1  0.23870162  0.40721547  0.85676042  1  -1.025723  0  -0.337634  0.070886  0  3.603552  0
N  N109  1  0.26130319  0.09279667  0.35676294  1  -1.02587  0  -0.337664  0.070619  0  3.604075  0
N  N110  1  0.76130032  0.59279444  0.14323905  1  -1.025952  0  -0.33765  0.070675  0  3.604125  0
N  N111  1  0.73869330  0.90719614  0.64323912  1  -1.02601  0  -0.337586  0.070817  0  3.603814  0
O  O112  1  0.41094403  0.33010461  0.76902724  1  -1.455359  0  -0.450346  -0.829817  0  2.299844  0
O  O113  1  0.08905981  0.16987938  0.26902636  1  -1.455285  0  -0.450194  -0.829763  0  2.299912  0
O  O114  1  0.58905749  0.66988935  0.23097223  1  -1.455287  0  -0.450274  -0.829711  0  2.299701  0
O  O115  1  0.91094738  0.83011255  0.73097279  1  -1.455294  0  -0.450294  -0.829813  0  2.299891  0
O  O116  1  0.09833540  0.28722618  0.77352039  1  -1.282505  0  -0.204714  -0.397009  0  2.412398  0
O  O117  1  0.40165385  0.21277763  0.27352286  1  -1.283026  0  -0.204773  -0.397071  0  2.412614  0
O  O118  1  0.90166586  0.71277309  0.22648005  1  -1.282151  0  -0.204663  -0.396994  0  2.41233  0
O  O119  1  0.59833894  0.78722150  0.72647855  1  -1.282356  0  -0.204711  -0.396994  0  2.412244  0
O  O120  1  0.24106031  0.50046983  0.73178632  1  -1.450026  0  -0.433676  -0.797298  0  2.246847  0
O  O121  1  0.25892818  0.99952703  0.23178674  1  -1.449969  0  -0.433767  -0.797387  0  2.246786  0
O  O122  1  0.75894102  0.49952306  0.26821348  1  -1.449817  0  -0.433674  -0.797287  0  2.246905  0
O  O123  1  0.74107123  0.00047541  0.76821306  1  -1.449976  0  -0.433773  -0.797362  0  2.246585  0
O  O124  1  0.17424071  0.68611765  0.94875260  1  -1.466939  0  -0.449395  -0.870755  0  2.291972  0
O  O125  1  0.32577197  0.81389209  0.44874899  1  -1.467112  0  -0.449492  -0.871013  0  2.29188  0
O  O126  1  0.82576449  0.31389020  0.05124784  1  -1.466873  0  -0.449429  -0.870865  0  2.292083  0
O  O127  1  0.67423545  0.18611473  0.55125145  1  -1.467417  0  -0.449431  -0.870879  0  2.291766  0
O  O128  1  0.00731326  0.64373566  0.87784026  1  -1.371708  0  -0.355145  -0.609032  0  2.181096  0
O  O129  1  0.49268792  0.85626862  0.37784230  1  -1.371979  0  -0.355165  -0.609093  0  2.181013  0
O  O130  1  0.99268989  0.35627428  0.12215889  1  -1.371936  0  -0.355115  -0.608942  0  2.181227  0
O  O131  1  0.50732358  0.14373401  0.62216169  1  -1.371744  0  -0.355221  -0.609225  0  2.18141  0
O  O132  1  0.95461710  0.46561171  0.93663907  1  -1.466145  0  -0.465687  -0.872109  0  2.316632  0
O  O133  1  0.54539463  0.03440178  0.43664374  1  -1.466519  0  -0.465769  -0.872249  0  2.316638  0
O  O134  1  0.04539089  0.53439830  0.06335976  1  -1.466327  0  -0.465795  -0.872204  0  2.316576  0
O  O135  1  0.45459942  0.96561120  0.56335734  1  -1.466216  0  -0.465774  -0.872177  0  2.316514  0
O  O136  1  0.70290983  0.28057516  0.72055588  1  -1.180524  0  -0.357403  -0.575251  0  2.302841  0
O  O137  1  0.79707142  0.21941044  0.22055513  1  -1.180226  0  -0.357179  -0.575052  0  2.302884  0
O  O138  1  0.29707706  0.71941112  0.27944618  1  -1.180355  0  -0.357204  -0.575064  0  2.303018  0
O  O139  1  0.20291846  0.78057908  0.77944434  1  -1.180416  0  -0.357349  -0.575157  0  2.30301  0
O  O140  1  0.86258163  0.47933082  0.69496432  1  -1.190963  0  -0.390832  -0.627653  0  2.260536  0
O  O141  1  0.63741655  0.02066116  0.19496449  1  -1.190816  0  -0.39083  -0.62765  0  2.260333  0
O  O142  1  0.13741838  0.52065461  0.30503580  1  -1.190913  0  -0.390824  -0.627617  0  2.260576  0
O  O143  1  0.36258282  0.97932745  0.80503466  1  -1.190883  0  -0.390821  -0.627632  0  2.260465  0
O  O144  1  0.76420787  0.37541253  0.80263298  1  -1.190431  0  -0.389988  -0.612296  0  2.314857  0
O  O145  1  0.73578571  0.12458351  0.30263315  1  -1.190447  0  -0.389973  -0.612254  0  2.315006  0
O  O146  1  0.23578945  0.62457817  0.19736649  1  -1.190391  0  -0.389969  -0.612265  0  2.314796  0
O  O147  1  0.26420735  0.87541031  0.69736438  1  -1.190699  0  -0.389947  -0.612216  0  2.315012  0
O  O148  1  0.93662119  0.56554621  0.77670726  1  -1.173278  0  -0.368668  -0.57821  0  2.34798  0
O  O149  1  0.56338049  0.93444573  0.27670888  1  -1.172924  0  -0.368548  -0.578148  0  2.348042  0
O  O150  1  0.06338123  0.43443926  0.22329286  1  -1.172944  0  -0.368498  -0.578008  0  2.348011  0
O  O151  1  0.43662065  0.06554610  0.72329414  1  -1.173144  0  -0.368646  -0.578211  0  2.347984  0
O  O152  1  0.57035051  0.33494166  0.92163363  1  -1.18804  0  -0.370012  -0.599923  0  2.283399  0
O  O153  1  0.92964058  0.16505707  0.42163267  1  -1.187762  0  -0.369962  -0.599951  0  2.283535  0
O  O154  1  0.42964444  0.66506282  0.07836552  1  -1.187803  0  -0.369989  -0.599929  0  2.283691  0
O  O155  1  0.07035637  0.83493150  0.57836454  1  -1.187881  0  -0.369939  -0.599891  0  2.2839  0
O  O156  1  0.47789658  0.25392417  0.85604868  1  -1.182931  0  -0.329933  -0.553322  0  2.34699  0
O  O157  1  0.02210203  0.24606663  0.35604760  1  -1.183003  0  -0.329884  -0.553245  0  2.347075  0
O  O158  1  0.52209202  0.74607171  0.14395273  1  -1.182974  0  -0.329965  -0.553284  0  2.346852  0
O  O159  1  0.97789994  0.75392308  0.64395219  1  -1.182926  0  -0.329988  -0.553417  0  2.346629  0
O  O160  1  0.78566548  0.15413917  0.92108852  1  -1.187752  0  -0.40262  -0.639986  0  2.259113  0
O  O161  1  0.71432071  0.34586588  0.42109003  1  -1.187993  0  -0.402674  -0.640061  0  2.258934  0
O  O162  1  0.21431923  0.84586196  0.07891288  1  -1.187916  0  -0.402789  -0.640218  0  2.258606  0
O  O163  1  0.28569238  0.65413890  0.57890847  1  -1.188007  0  -0.402768  -0.640159  0  2.259075  0
O  O164  1  0.71956333  0.09934621  0.85126135  1  -1.157084  0  -0.32996  -0.542481  0  2.257863  0
O  O165  1  0.78044052  0.40064106  0.35126333  1  -1.156893  0  -0.329993  -0.542552  0  2.258031  0
O  O166  1  0.28042414  0.90064327  0.14873973  1  -1.157199  0  -0.329966  -0.542545  0  2.258116  0
O  O167  1  0.21957003  0.59935624  0.64873485  1  -1.156802  0  -0.329885  -0.542491  0  2.258153  0
O  O168  1  0.28774997  0.44231781  0.00768977  1  -1.182029  0  -0.34769  -0.609114  0  2.285262  0
O  O169  1  0.21224477  0.05769638  0.50768532  1  -1.182224  0  -0.347701  -0.609203  0  2.285894  0
O  O170  1  0.71223917  0.55770146  0.99231325  1  -1.1823  0  -0.347666  -0.609054  0  2.285952  0
O  O171  1  0.78775253  0.94231453  0.49231221  1  -1.18246  0  -0.347644  -0.6091  0  2.285414  0
O  O172  1  0.49552305  0.31629635  0.00714072  1  -1.174953  0  -0.357762  -0.59942  0  2.294177  0
O  O173  1  0.00448193  0.18372121  0.50714050  1  -1.175193  0  -0.357741  -0.599477  0  2.293904  0
O  O174  1  0.50447621  0.68371884  0.99285908  1  -1.175203  0  -0.357684  -0.599394  0  2.294002  0
O  O175  1  0.99552515  0.81629729  0.49285768  1  -1.174914  0  -0.357835  -0.599636  0  2.294154  0
O  O176  1  0.35159832  0.91522046  0.98618636  1  -1.218284  0  -0.600825  -0.799077  0  1.958348  0
O  O177  1  0.14839686  0.58478678  0.48618700  1  -1.218135  0  -0.600846  -0.799224  0  1.958215  0
O  O178  1  0.64842335  0.08479191  0.01381117  1  -1.217888  0  -0.600765  -0.798908  0  1.958518  0
O  O179  1  0.85157346  0.41522156  0.51381538  1  -1.21773  0  -0.600673  -0.798966  0  1.958356  0
O  O180  1  0.97612976  0.78063128  0.01134021  1  -1.262774  0  -0.610152  -0.816267  0  2.010157  0
O  O181  1  0.52387148  0.71937836  0.51133892  1  -1.262797  0  -0.610118  -0.816301  0  2.010148  0
O  O182  1  0.02387657  0.21938296  0.98866088  1  -1.262618  0  -0.610146  -0.816339  0  2.010055  0
O  O183  1  0.47612970  0.28062729  0.48866184  1  -1.26269  0  -0.610153  -0.816265  0  2.010163  0
