# generated using pymatgen
data_Zn3H68C76(N7O9)2
_symmetry_space_group_name_H-M   'P 1'
_cell_length_a   11.39501944
_cell_length_b   18.80433891
_cell_length_c   23.92218530
_cell_angle_alpha   90.00016295
_cell_angle_beta   89.99999486
_cell_angle_gamma   90.00010471
_symmetry_Int_Tables_number   1
_chemical_formula_structural   Zn3H68C76(N7O9)2
_chemical_formula_sum   'Zn6 H136 C152 N28 O36'
_cell_volume   5125.94556990
_cell_formula_units_Z   2
loop_
 _symmetry_equiv_pos_site_id
 _symmetry_equiv_pos_as_xyz
  1  'x, y, z'
loop_
 _atom_site_type_symbol
 _atom_site_label
 _atom_site_symmetry_multiplicity
 _atom_site_fract_x
 _atom_site_fract_y
 _atom_site_fract_z
 _atom_site_occupancy
 _atom_site_pbe_bader_charge
 _atom_site_pbe_bader_spin_density
 _atom_site_pbe_cm5_charge
 _atom_site_pbe_ddec_charge
 _atom_site_pbe_ddec_spin_density
 _atom_site_pbe_ddec_sum_bond_order
 _atom_site_pbe_magmom
Zn  Zn0  1  0.46410961  0.50000066  0.49999960  1  1.362027  0  0.699847  0.887531  0  2.263408  0
Zn  Zn1  1  0.53589352  0.99999982  0.00000110  1  1.36199  0  0.699808  0.887467  0  2.263461  0
Zn  Zn2  1  0.46970710  0.69961361  0.48188149  1  1.290891  0  0.681982  0.709645  0  2.396248  0
Zn  Zn3  1  0.46970299  0.30038879  0.51812021  1  1.290763  0  0.681952  0.709638  0  2.396264  0
Zn  Zn4  1  0.53029333  0.80038863  0.98187815  1  1.290709  0  0.681973  0.70968  0  2.39622  0
Zn  Zn5  1  0.53029601  0.19961330  0.01812188  1  1.290681  0  0.681953  0.709665  0  2.396218  0
H  H6  1  0.42141117  0.51835997  0.35800423  1  0.111836  0  0.113422  0.077167  0  1.018581  0
H  H7  1  0.42141285  0.48164184  0.64199748  1  0.111838  0  0.113423  0.077141  0  1.018646  0
H  H8  1  0.57858927  0.98164234  0.85800254  1  0.111789  0  0.113425  0.0771  0  1.018619  0
H  H9  1  0.57858350  0.01835804  0.14199623  1  0.111828  0  0.113393  0.077142  0  1.018654  0
H  H10  1  0.64754605  0.59418455  0.32028869  1  0.100269  0  0.090457  0.1378  0  1.045757  0
H  H11  1  0.64754925  0.40581645  0.67970924  1  0.100213  0  0.090444  0.137792  0  1.045769  0
H  H12  1  0.35245264  0.90581816  0.82028977  1  0.100227  0  0.090458  0.137749  0  1.045845  0
H  H13  1  0.35244972  0.09418410  0.17970901  1  0.1002  0  0.090452  0.137785  0  1.04581  0
H  H14  1  0.59799182  0.50982629  0.29575614  1  0.035215  0  0.091642  0.130356  0  0.995494  0
H  H15  1  0.59799790  0.49017465  0.70424347  1  0.035197  0  0.091637  0.13034  0  0.995538  0
H  H16  1  0.40200600  0.99017633  0.79575657  1  0.035169  0  0.091637  0.130347  0  0.995502  0
H  H17  1  0.40199843  0.00982545  0.20424096  1  0.035215  0  0.091637  0.130349  0  0.995543  0
H  H18  1  0.63786364  0.51989486  0.36678645  1  0.047719  0  0.090473  0.13063  0  1.037503  0
H  H19  1  0.63786443  0.48010719  0.63321274  1  0.047737  0  0.09044  0.130604  0  1.037539  0
H  H20  1  0.36213768  0.98010855  0.86678728  1  0.047585  0  0.090455  0.130585  0  1.037513  0
H  H21  1  0.36213367  0.01989426  0.13321109  1  0.047641  0  0.090443  0.130579  0  1.037563  0
H  H22  1  0.07910913  0.60600213  0.25163111  1  0.094849  0  0.106938  0.108919  0  1.007453  0
H  H23  1  0.07911316  0.39399983  0.74836978  1  0.094763  0  0.10694  0.108889  0  1.007389  0
H  H24  1  0.92089045  0.89399980  0.75163047  1  0.094879  0  0.10696  0.10893  0  1.007408  0
H  H25  1  0.92088580  0.10600150  0.24836829  1  0.094771  0  0.106957  0.108855  0  1.00743  0
H  H26  1  0.12720938  0.78703996  0.14253802  1  0.087638  0  0.10488  0.103876  0  1.029649  0
H  H27  1  0.12721284  0.21296152  0.85746329  1  0.087693  0  0.104869  0.103856  0  1.029661  0
H  H28  1  0.87278847  0.71296104  0.64253739  1  0.087651  0  0.104874  0.103851  0  1.029649  0
H  H29  1  0.87278434  0.28704127  0.35746095  1  0.087677  0  0.104873  0.10384  0  1.029708  0
H  H30  1  0.40409076  0.72116137  0.25280629  1  0.133342  0  0.112241  0.113588  0  1.050108  0
H  H31  1  0.40409357  0.27883882  0.74719542  1  0.133284  0  0.112256  0.113643  0  1.050087  0
H  H32  1  0.59590970  0.77883897  0.75280624  1  0.133343  0  0.112263  0.1136  0  1.050155  0
H  H33  1  0.59590539  0.22116144  0.24719211  1  0.133334  0  0.112235  0.113607  0  1.05022  0
H  H34  1  0.76590734  0.53654560  0.21453324  1  0.04195  0  0.091329  0.12881  0  0.993534  0
H  H35  1  0.76590542  0.46345446  0.78546804  1  0.041964  0  0.091341  0.128828  0  0.993472  0
H  H36  1  0.23409664  0.96345460  0.71453529  1  0.041967  0  0.091327  0.128815  0  0.993446  0
H  H37  1  0.23409090  0.03654275  0.28546685  1  0.041736  0  0.09131  0.128779  0  0.993508  0
H  H38  1  0.79238384  0.54769982  0.14166449  1  0.03463  0  0.087648  0.122517  0  0.999233  0
H  H39  1  0.79238012  0.45229389  0.85833762  1  0.0346  0  0.087634  0.122502  0  0.999186  0
H  H40  1  0.20762103  0.95229745  0.64166610  1  0.034532  0  0.087684  0.122575  0  0.999228  0
H  H41  1  0.20761619  0.04769986  0.35833604  1  0.034732  0  0.08766  0.122513  0  0.999308  0
H  H42  1  0.64733627  0.55927000  0.16972465  1  0.035925  0  0.083872  0.113115  0  1.031394  0
H  H43  1  0.64733516  0.44072409  0.83027454  1  0.035919  0  0.083886  0.113083  0  1.031518  0
H  H44  1  0.35266684  0.94072579  0.66972748  1  0.035893  0  0.083865  0.113087  0  1.031454  0
H  H45  1  0.35265940  0.05927222  0.33027465  1  0.03558  0  0.083896  0.113131  0  1.031442  0
H  H46  1  0.74856138  0.67674024  0.14844788  1  0.071135  0  0.106699  0.064823  0  0.991251  0
H  H47  1  0.74855815  0.32325395  0.85154796  1  0.070944  0  0.106701  0.064754  0  0.991205  0
H  H48  1  0.25143998  0.82325706  0.64845128  1  0.071207  0  0.106694  0.064766  0  0.991193  0
H  H49  1  0.25143114  0.17674031  0.35155127  1  0.071184  0  0.106651  0.064807  0  0.991186  0
H  H50  1  0.70419920  0.80203844  0.15642304  1  0.037934  0  0.091949  0.126018  0  1.016531  0
H  H51  1  0.70419824  0.19796155  0.84357824  1  0.037848  0  0.091937  0.125973  0  1.016556  0
H  H52  1  0.29579952  0.69796261  0.65642491  1  0.038058  0  0.091955  0.126044  0  1.016474  0
H  H53  1  0.29579720  0.30203906  0.34357764  1  0.037993  0  0.091937  0.125983  0  1.016549  0
H  H54  1  0.67732787  0.84640596  0.22061706  1  0.045039  0  0.099997  0.144595  0  0.977199  0
H  H55  1  0.67732679  0.15359347  0.77938505  1  0.04509  0  0.100011  0.144584  0  0.977231  0
H  H56  1  0.32266996  0.65359586  0.72061841  1  0.044959  0  0.09998  0.144565  0  0.977227  0
H  H57  1  0.32266778  0.34640531  0.27938288  1  0.045039  0  0.099976  0.144565  0  0.977214  0
H  H58  1  0.72706284  0.89584448  0.16164299  1  0.051186  0  0.096207  0.137246  0  0.991304  0
H  H59  1  0.72706335  0.10415555  0.83835829  1  0.051184  0  0.096227  0.137249  0  0.991251  0
H  H60  1  0.27293501  0.60415713  0.66164465  1  0.051199  0  0.096221  0.137224  0  0.991321  0
H  H61  1  0.27293384  0.39584505  0.33835665  1  0.051139  0  0.096221  0.137228  0  0.99126  0
H  H62  1  0.51486665  0.91687038  0.17438014  1  0.071636  0  0.115749  0.077425  0  0.984125  0
H  H63  1  0.51486535  0.08312941  0.82562114  1  0.071568  0  0.115793  0.077478  0  0.984063  0
H  H64  1  0.48513031  0.58312861  0.67438217  1  0.071625  0  0.115743  0.077419  0  0.984046  0
H  H65  1  0.48513097  0.41687061  0.32561786  1  0.071636  0  0.115781  0.077453  0  0.984025  0
H  H66  1  0.88773015  0.75396260  0.55742314  1  0.14555  0  0.109074  0.122562  0  1.040183  0
H  H67  1  0.88772150  0.24603600  0.44257646  1  0.145582  0  0.10906  0.122592  0  1.040075  0
H  H68  1  0.11227473  0.74603597  0.05741950  1  0.145698  0  0.108987  0.122476  0  1.040034  0
H  H69  1  0.11227918  0.25396444  0.94257721  1  0.145728  0  0.109053  0.122574  0  1.040033  0
H  H70  1  0.66802626  0.74588190  0.55623971  1  0.11238  0  0.118008  0.092233  0  1.0015  0
H  H71  1  0.66801763  0.25412072  0.44376073  1  0.112411  0  0.117986  0.092232  0  1.001586  0
H  H72  1  0.33197862  0.75411986  0.05623483  1  0.11259  0  0.118053  0.092328  0  1.001583  0
H  H73  1  0.33198305  0.24588079  0.94376354  1  0.112483  0  0.118031  0.092238  0  1.001618  0
H  H74  1  0.66773657  0.67405669  0.39234867  1  0.138997  0  0.120274  0.098208  0  1.031237  0
H  H75  1  0.66773603  0.32594274  0.60765303  1  0.138978  0  0.120258  0.09819  0  1.031273  0
H  H76  1  0.33226036  0.82594363  0.89234288  1  0.13895  0  0.120282  0.098195  0  1.031263  0
H  H77  1  0.33226120  0.17405702  0.10765465  1  0.138915  0  0.120317  0.098228  0  1.031275  0
H  H78  1  0.88374584  0.66930683  0.38905966  1  0.102323  0  0.114762  0.125097  0  0.98985  0
H  H79  1  0.88374532  0.33068911  0.61094035  1  0.102296  0  0.114758  0.125112  0  0.989901  0
H  H80  1  0.11625021  0.83069188  0.88905682  1  0.102193  0  0.114773  0.125188  0  0.989822  0
H  H81  1  0.11625103  0.16930747  0.11093988  1  0.102314  0  0.114728  0.125075  0  0.989854  0
H  H82  1  0.05981842  0.72863895  0.38683253  1  0.077316  0  0.114652  0.121909  0  0.988004  0
H  H83  1  0.05981596  0.27135554  0.61316711  1  0.077258  0  0.114705  0.121931  0  0.987902  0
H  H84  1  0.94017938  0.77135709  0.88683119  1  0.077214  0  0.114721  0.12196  0  0.98793  0
H  H85  1  0.94018302  0.22864583  0.11316464  1  0.077324  0  0.114719  0.121969  0  0.987834  0
H  H86  1  0.27764867  0.72079356  0.39361367  1  0.129801  0  0.119045  0.096644  0  1.012007  0
H  H87  1  0.27764535  0.27920384  0.60638429  1  0.12966  0  0.119044  0.096649  0  1.012055  0
H  H88  1  0.72234914  0.77920570  0.89361445  1  0.129576  0  0.119054  0.096691  0  1.012036  0
H  H89  1  0.72235363  0.22080017  0.10638265  1  0.129904  0  0.119072  0.096705  0  1.012021  0
H  H90  1  0.26336076  0.67633550  0.56270227  1  0.100939  0  0.115533  0.080704  0  1.037731  0
H  H91  1  0.26335586  0.32366294  0.43729652  1  0.100951  0  0.115547  0.080748  0  1.037696  0
H  H92  1  0.73664412  0.82366256  0.06270295  1  0.10098  0  0.115553  0.080747  0  1.037685  0
H  H93  1  0.73664307  0.17633216  0.93729582  1  0.100916  0  0.115528  0.080711  0  1.0377  0
H  H94  1  0.04621240  0.68293865  0.56399773  1  0.08338  0  0.113148  0.122863  0  1.00028  0
H  H95  1  0.04620835  0.31705903  0.43600274  1  0.083454  0  0.113142  0.12288  0  1.000332  0
H  H96  1  0.95379161  0.81705782  0.06399588  1  0.083395  0  0.113135  0.12285  0  1.000275  0
H  H97  1  0.95379058  0.18293714  0.93600204  1  0.083464  0  0.113186  0.122987  0  1.000299  0
H  H98  1  0.50931758  0.82615503  0.40442048  1  0.156801  0  0.13097  0.10887  0  0.962575  0
H  H99  1  0.50931834  0.17384848  0.59557955  1  0.157008  0  0.130988  0.108906  0  0.962559  0
H  H100  1  0.49068637  0.67384427  0.90441686  1  0.156876  0  0.130987  0.108945  0  0.962451  0
H  H101  1  0.49068416  0.32615975  0.09558317  1  0.156614  0  0.13102  0.108954  0  0.962502  0
H  H102  1  0.51068680  0.95897438  0.40955394  1  0.085225  0  0.116904  0.123941  0  0.987982  0
H  H103  1  0.51068716  0.04102965  0.59044526  1  0.08525  0  0.116898  0.123921  0  0.987979  0
H  H104  1  0.48932680  0.54102493  0.90955127  1  0.085274  0  0.116896  0.123939  0  0.98796  0
H  H105  1  0.48932060  0.45897908  0.09044667  1  0.085156  0  0.116915  0.123949  0  0.987998  0
H  H106  1  0.40800154  0.93936002  0.58314759  1  0.07769  0  0.112272  0.115992  0  1.029651  0
H  H107  1  0.40799146  0.06064337  0.41685370  1  0.077799  0  0.112274  0.115982  0  1.02958  0
H  H108  1  0.59200597  0.56064662  0.08314519  1  0.077882  0  0.112281  0.115987  0  1.029533  0
H  H109  1  0.59200747  0.43935432  0.91685400  1  0.077821  0  0.112291  0.116007  0  1.029545  0
H  H110  1  0.41584688  0.80782653  0.57095751  1  0.133111  0  0.12458  0.100967  0  0.998741  0
H  H111  1  0.41583631  0.19217634  0.42904462  1  0.133074  0  0.124548  0.100907  0  0.99871  0
H  H112  1  0.58415625  0.69217900  0.07095331  1  0.133265  0  0.124553  0.100909  0  0.998732  0
H  H113  1  0.58416086  0.30782246  0.92904756  1  0.132981  0  0.124575  0.100935  0  0.998641  0
H  H114  1  0.26536318  0.52663734  0.41535895  1  0.186135  0  0.115137  0.092268  0  1.051492  0
H  H115  1  0.26536397  0.47336377  0.58464234  1  0.186088  0  0.115115  0.092178  0  1.05154  0
H  H116  1  0.73464076  0.97335987  0.91535933  1  0.186148  0  0.115121  0.092203  0  1.051492  0
H  H117  1  0.73463941  0.02663484  0.08464278  1  0.186118  0  0.115116  0.092201  0  1.051506  0
H  H118  1  0.05027009  0.52738810  0.41195584  1  0.110715  0  0.11324  0.127724  0  0.98726  0
H  H119  1  0.05026911  0.47260957  0.58804546  1  0.110626  0  0.113248  0.12775  0  0.987322  0
H  H120  1  0.94973474  0.97260856  0.91195663  1  0.110655  0  0.113224  0.127683  0  0.987268  0
H  H121  1  0.94973426  0.02738958  0.08804548  1  0.110577  0  0.113239  0.127743  0  0.987264  0
H  H122  1  0.87865906  0.43520880  0.42505151  1  0.096278  0  0.111637  0.123069  0  0.993505  0
H  H123  1  0.87865924  0.56479140  0.57494599  1  0.096355  0  0.111657  0.123069  0  0.993517  0
H  H124  1  0.12134514  0.06479211  0.92505561  1  0.096405  0  0.111687  0.123092  0  0.993519  0
H  H125  1  0.12134476  0.93520458  0.07494612  1  0.096288  0  0.111656  0.123063  0  0.993596  0
H  H126  1  0.66363354  0.43555488  0.42914312  1  0.155507  0  0.117036  0.095546  0  1.058384  0
H  H127  1  0.66363460  0.56444294  0.57085398  1  0.155598  0  0.117052  0.095528  0  1.058444  0
H  H128  1  0.33636891  0.06444498  0.92914678  1  0.155589  0  0.117053  0.095549  0  1.05841  0
H  H129  1  0.33636853  0.93555248  0.07085576  1  0.15551  0  0.117021  0.095479  0  1.058441  0
H  H130  1  0.46428885  0.62798560  0.27126604  1  0.507777  0  0.298145  0.276  0  0.994945  0
H  H131  1  0.46429282  0.37201785  0.72873525  1  0.507741  0  0.298155  0.275873  0  0.995077  0
H  H132  1  0.53570985  0.87201640  0.77126495  1  0.507765  0  0.298146  0.275932  0  0.995041  0
H  H133  1  0.53570790  0.12798128  0.22873592  1  0.507762  0  0.298149  0.275936  0  0.99502  0
H  H134  1  0.89505693  0.66463957  0.24572743  1  0.449741  0  0.304166  0.262491  0  0.975019  0
H  H135  1  0.89506342  0.33536064  0.75427174  1  0.449668  0  0.304171  0.26249  0  0.975039  0
H  H136  1  0.10493827  0.83536181  0.74572962  1  0.449648  0  0.30415  0.262497  0  0.974983  0
H  H137  1  0.10493730  0.16463805  0.25427127  1  0.44966  0  0.304205  0.262546  0  0.975109  0
H  H138  1  0.50316657  0.76405833  0.19359143  1  0.525381  0  0.298093  0.278676  0  1.002471  0
H  H139  1  0.50316748  0.23594038  0.80640986  1  0.525446  0  0.298059  0.27863  0  1.002467  0
H  H140  1  0.49683478  0.73594073  0.69359338  1  0.525376  0  0.298118  0.278726  0  1.002415  0
H  H141  1  0.49682971  0.26405798  0.30640958  1  0.525392  0  0.29809  0.278653  0  1.002519  0
C  C142  1  0.46724626  0.61701017  0.39551596  1  1.503639  0  0.214498  0.57297  0  4.073968  0
C  C143  1  0.46724326  0.38299063  0.60448532  1  1.503715  0  0.214437  0.572884  0  4.073734  0
C  C144  1  0.53275594  0.88299228  0.89551448  1  1.503674  0  0.214404  0.572758  0  4.073898  0
C  C145  1  0.53275661  0.11700859  0.10448514  1  1.503693  0  0.214512  0.573013  0  4.073607  0
C  C146  1  0.46965689  0.56624786  0.34555099  1  0.319729  0  0.00806  0.064156  0  3.898363  0
C  C147  1  0.46966105  0.43375560  0.65445197  1  0.31945  0  0.008053  0.064297  0  3.898035  0
C  C148  1  0.53034180  0.93375654  0.84554836  1  0.319426  0  0.00811  0.064501  0  3.897991  0
C  C149  1  0.53033793  0.06624380  0.15445083  1  0.319446  0  0.008115  0.064276  0  3.89825  0
C  C150  1  0.59645787  0.54670614  0.33134867  1  -0.094149  0  -0.244956  -0.40866  0  3.883383  0
C  C151  1  0.59646121  0.45329480  0.66865094  1  -0.094159  0  -0.244925  -0.408679  0  3.883415  0
C  C152  1  0.40354170  0.95329661  0.83134901  1  -0.093959  0  -0.244971  -0.408673  0  3.883413  0
C  C153  1  0.40353601  0.04670465  0.16865102  1  -0.094092  0  -0.244961  -0.408658  0  3.883458  0
C  C154  1  0.29409955  0.60799549  0.29859128  1  1.392995  0  0.229672  0.467682  0  4.161474  0
C  C155  1  0.29410183  0.39200671  0.70141043  1  1.392639  0  0.22965  0.467693  0  4.161543  0
C  C156  1  0.70590002  0.89200661  0.79859023  1  1.392647  0  0.229706  0.467828  0  4.161372  0
C  C157  1  0.70589626  0.10799392  0.20140980  1  1.392642  0  0.229563  0.467571  0  4.161631  0
C  C158  1  0.24683863  0.65796364  0.25553382  1  0.013565  0  -0.014146  -0.014535  0  3.999664  0
C  C159  1  0.24684514  0.34203797  0.74446790  1  0.014006  0  -0.014127  -0.014474  0  3.999597  0
C  C160  1  0.75315832  0.84203777  0.75553348  1  0.013555  0  -0.014142  -0.014558  0  3.999626  0
C  C161  1  0.75315470  0.15796228  0.24446528  1  0.01368  0  -0.014137  -0.014503  0  3.999611  0
C  C162  1  0.13207796  0.64985531  0.23569909  1  -0.080029  0  -0.076512  -0.120396  0  3.932726  0
C  C163  1  0.13208273  0.35014565  0.76430305  1  -0.079603  0  -0.076499  -0.120393  0  3.932553  0
C  C164  1  0.86792075  0.85014550  0.73569751  1  -0.079977  0  -0.076502  -0.120381  0  3.932598  0
C  C165  1  0.86791535  0.14985574  0.26430125  1  -0.079629  0  -0.076557  -0.120324  0  3.932578  0
C  C166  1  0.08852128  0.69604029  0.19472086  1  0.006469  0  -0.014355  -0.023064  0  3.998607  0
C  C167  1  0.08852327  0.30396168  0.80528086  1  0.005965  0  -0.014453  -0.023155  0  3.99857  0
C  C168  1  0.91147831  0.80396090  0.69472001  1  0.00603  0  -0.014476  -0.023236  0  3.998661  0
C  C169  1  0.91147568  0.19603986  0.30527833  1  0.006226  0  -0.014335  -0.023165  0  3.998563  0
C  C170  1  0.16008333  0.75074416  0.17435238  1  -0.048319  0  -0.073798  -0.107779  0  3.927058  0
C  C171  1  0.16008604  0.24925789  0.82564934  1  -0.048522  0  -0.073787  -0.107751  0  3.926903  0
C  C172  1  0.83991539  0.74925696  0.67435141  1  -0.048375  0  -0.073712  -0.107609  0  3.926817  0
C  C173  1  0.83991116  0.25074372  0.32564693  1  -0.048452  0  -0.073838  -0.107813  0  3.927033  0
C  C174  1  0.27408490  0.75966667  0.19462687  1  -0.03514  0  -0.014888  -0.018373  0  4.00039  0
C  C175  1  0.27408758  0.24033551  0.80537526  1  -0.035275  0  -0.014797  -0.018273  0  4.000187  0
C  C176  1  0.72591469  0.74033452  0.69462547  1  -0.035291  0  -0.014862  -0.018355  0  4.000117  0
C  C177  1  0.72590874  0.25966550  0.30537288  1  -0.034986  0  -0.014813  -0.018129  0  4.000054  0
C  C178  1  0.31634628  0.71366090  0.23580659  1  -0.070906  0  -0.077273  -0.121289  0  3.923747  0
C  C179  1  0.31635086  0.28634080  0.76419471  1  -0.071234  0  -0.077323  -0.121429  0  3.923773  0
C  C180  1  0.68365243  0.78634045  0.73580655  1  -0.070724  0  -0.077286  -0.121317  0  3.923738  0
C  C181  1  0.68364635  0.21365953  0.26419222  1  -0.071152  0  -0.077237  -0.121378  0  3.923646  0
C  C182  1  0.96975539  0.68538575  0.16882938  1  1.412537  0  0.229612  0.472114  0  4.159903  0
C  C183  1  0.96975654  0.31461508  0.83117021  1  1.413072  0  0.229734  0.472285  0  4.15981  0
C  C184  1  0.03024420  0.81461429  0.66883069  1  1.412823  0  0.229683  0.472219  0  4.159931  0
C  C185  1  0.03023978  0.18538656  0.33116978  1  1.41265  0  0.22972  0.472412  0  4.159897  0
C  C186  1  0.74138264  0.56757719  0.17738282  1  -0.075914  0  -0.241915  -0.399187  0  3.932442  0
C  C187  1  0.74137799  0.43241806  0.82261720  1  -0.07601  0  -0.241927  -0.399199  0  3.932479  0
C  C188  1  0.25862047  0.93242075  0.67738522  1  -0.07596  0  -0.241912  -0.399259  0  3.932341  0
C  C189  1  0.25861482  0.06757609  0.32261775  1  -0.075478  0  -0.241941  -0.39918  0  3.932459  0
C  C190  1  0.76530198  0.64700623  0.18721604  1  0.316285  0  0.002124  0.064445  0  3.87079  0
C  C191  1  0.76530236  0.35299171  0.81277980  1  0.316594  0  0.002108  0.064673  0  3.870538  0
C  C192  1  0.23470025  0.85299175  0.68721993  1  0.316294  0  0.002069  0.064643  0  3.870411  0
C  C193  1  0.23469220  0.14700507  0.31278220  1  0.31623  0  0.002179  0.064558  0  3.870504  0
C  C194  1  0.68411830  0.67547204  0.23437314  1  1.612991  0  0.190111  0.558436  0  4.23449  0
C  C195  1  0.68412299  0.32452794  0.76562103  1  1.61267  0  0.189928  0.557961  0  4.234774  0
C  C196  1  0.31587953  0.82452770  0.73437738  1  1.613112  0  0.190014  0.558216  0  4.234602  0
C  C197  1  0.31587596  0.17547080  0.26562600  1  1.613341  0  0.190099  0.558369  0  4.234541  0
C  C198  1  0.34930382  0.81752353  0.17106889  1  1.418973  0  0.229697  0.462291  0  4.161394  0
C  C199  1  0.34930457  0.18247661  0.82893157  1  1.418925  0  0.229721  0.462387  0  4.161407  0
C  C200  1  0.65069578  0.68247598  0.67106945  1  1.418951  0  0.229744  0.462428  0  4.1613  0
C  C201  1  0.65068999  0.31752342  0.32893015  1  1.418977  0  0.229673  0.462265  0  4.161367  0
C  C202  1  0.67096019  0.85152916  0.17499874  1  -0.068617  0  -0.23499  -0.398606  0  3.894359  0
C  C203  1  0.67095820  0.14847080  0.82500170  1  -0.068533  0  -0.235018  -0.398572  0  3.894308  0
C  C204  1  0.32903941  0.64847196  0.67500092  1  -0.068728  0  -0.235019  -0.398612  0  3.894402  0
C  C205  1  0.32903724  0.35152975  0.32500163  1  -0.068684  0  -0.234989  -0.398558  0  3.894309  0
C  C206  1  0.54392489  0.86551785  0.15747988  1  0.367451  0  0.010668  0.066739  0  3.899086  0
C  C207  1  0.54392373  0.13448143  0.84252099  1  0.367416  0  0.010652  0.066781  0  3.898894  0
C  C208  1  0.45607208  0.63448320  0.65748244  1  0.367514  0  0.010657  0.066822  0  3.899  0
C  C209  1  0.45607258  0.36551705  0.34251969  1  0.367504  0  0.010635  0.066752  0  3.898925  0
C  C210  1  0.53616362  0.87234701  0.09330389  1  1.570822  0  0.221462  0.583317  0  4.13585  0
C  C211  1  0.53616419  0.12765333  0.90669781  1  1.570671  0  0.221498  0.583414  0  4.135736  0
C  C212  1  0.46383424  0.62765488  0.59330518  1  1.57076  0  0.221456  0.583255  0  4.135841  0
C  C213  1  0.46383475  0.37234964  0.40669527  1  1.570728  0  0.221573  0.583529  0  4.135561  0
C  C214  1  0.84167053  0.73293704  0.52099208  1  -0.019099  0  -0.079426  -0.171373  0  3.920115  0
C  C215  1  0.84166281  0.26706151  0.47900836  1  -0.018996  0  -0.079427  -0.171451  0  3.920049  0
C  C216  1  0.15833436  0.76706139  0.02098765  1  -0.019073  0  -0.079342  -0.171195  0  3.920001  0
C  C217  1  0.15833699  0.23293747  0.97900906  1  -0.019205  0  -0.079455  -0.171465  0  3.919963  0
C  C218  1  0.71995595  0.73035619  0.51997211  1  0.512342  0  0.046809  0.098716  0  3.942709  0
C  C219  1  0.71994999  0.26964436  0.48002792  1  0.512197  0  0.046884  0.098776  0  3.942799  0
C  C220  1  0.28004543  0.76964384  0.01996767  1  0.511891  0  0.046797  0.098623  0  3.942943  0
C  C221  1  0.28004981  0.23035622  0.98002986  1  0.511949  0  0.046806  0.098788  0  3.942826  0
C  C222  1  0.71887559  0.68843325  0.42902844  1  0.477555  0  0.051222  0.106619  0  3.919209  0
C  C223  1  0.71887326  0.31156570  0.57097241  1  0.477488  0  0.051203  0.106545  0  3.919363  0
C  C224  1  0.28112396  0.81156667  0.92902388  1  0.477597  0  0.051243  0.106699  0  3.919255  0
C  C225  1  0.28112485  0.18843286  0.07097365  1  0.477527  0  0.051235  0.106653  0  3.919214  0
C  C226  1  0.84062879  0.68759149  0.42707837  1  -0.055556  0  -0.076783  -0.165936  0  3.925076  0
C  C227  1  0.84062558  0.31240547  0.57292248  1  -0.055268  0  -0.07679  -0.165994  0  3.925111  0
C  C228  1  0.15936901  0.81240736  0.92707465  1  -0.05565  0  -0.076881  -0.166137  0  3.925173  0
C  C229  1  0.15937254  0.18759097  0.07292247  1  -0.055134  0  -0.076792  -0.16597  0  3.924942  0
C  C230  1  0.90456025  0.70915525  0.47412635  1  -0.069208  0  0.0138  0.104089  0  3.990545  0
C  C231  1  0.90455523  0.29084178  0.52587325  1  -0.069417  0  0.013768  0.104149  0  3.990352  0
C  C232  1  0.09544017  0.79084271  0.97412259  1  -0.069142  0  0.013782  0.104079  0  3.990606  0
C  C233  1  0.09544376  0.20915608  0.02587287  1  -0.069517  0  0.013796  0.104095  0  3.990326  0
C  C234  1  0.03358411  0.70595657  0.47513213  1  -0.055495  0  0.015069  0.104674  0  3.979485  0
C  C235  1  0.03357998  0.29404056  0.52486709  1  -0.055377  0  0.015149  0.104664  0  3.979382  0
C  C236  1  0.96641719  0.79404139  0.97513126  1  -0.05536  0  0.015059  0.104485  0  3.979604  0
C  C237  1  0.96641814  0.20595677  0.02486625  1  -0.055432  0  0.015053  0.104654  0  3.979367  0
C  C238  1  0.10094514  0.71659821  0.42683680  1  0.061651  0  -0.076392  -0.165866  0  3.939595  0
C  C239  1  0.10094185  0.28339792  0.57316283  1  0.061742  0  -0.076431  -0.165809  0  3.939458  0
C  C240  1  0.89905354  0.78339904  0.92683549  1  0.06172  0  -0.076391  -0.165726  0  3.939465  0
C  C241  1  0.89905714  0.21660224  0.07316160  1  0.061506  0  -0.076423  -0.165836  0  3.939369  0
C  C242  1  0.22236309  0.71279225  0.43018975  1  0.440218  0  0.047015  0.096111  0  3.943765  0
C  C243  1  0.22235893  0.28720509  0.56981030  1  0.440176  0  0.046989  0.096011  0  3.943831  0
C  C244  1  0.77763734  0.78720608  0.93018887  1  0.440295  0  0.046938  0.095925  0  3.943839  0
C  C245  1  0.77764006  0.21279560  0.06980864  1  0.440115  0  0.046972  0.096004  0  3.943772  0
C  C246  1  0.21475534  0.68761259  0.52462215  1  0.483797  0  0.047848  0.099204  0  3.940064  0
C  C247  1  0.21475039  0.31238527  0.47537748  1  0.483736  0  0.047865  0.099134  0  3.940016  0
C  C248  1  0.78524779  0.81238533  0.02462196  1  0.483827  0  0.047837  0.099128  0  3.939906  0
C  C249  1  0.78524765  0.18761104  0.97537680  1  0.483796  0  0.047775  0.099137  0  3.939992  0
C  C250  1  0.09328385  0.69108672  0.52497789  1  0.027216  0  -0.072314  -0.14598  0  3.920759  0
C  C251  1  0.09327714  0.30891100  0.47502091  1  0.027077  0  -0.07235  -0.145995  0  3.920749  0
C  C252  1  0.90672103  0.80891067  0.02497686  1  0.027062  0  -0.072302  -0.145885  0  3.920639  0
C  C253  1  0.90672178  0.19108583  0.97501981  1  0.02708  0  -0.072315  -0.146091  0  3.920779  0
C  C254  1  0.48750546  0.85401727  0.44309591  1  0.479389  0  0.056605  0.095755  0  3.941431  0
C  C255  1  0.48750439  0.14598514  0.55690454  1  0.478958  0  0.056586  0.09573  0  3.941716  0
C  C256  1  0.51250024  0.64598376  0.94309264  1  0.479625  0  0.056611  0.095657  0  3.941625  0
C  C257  1  0.51249899  0.35401868  0.05690697  1  0.479965  0  0.056581  0.095718  0  3.9417  0
C  C258  1  0.48721246  0.92780397  0.44627505  1  -0.030246  0  -0.075024  -0.167618  0  3.936166  0
C  C259  1  0.48721292  0.07220004  0.55372582  1  -0.030319  0  -0.075058  -0.167561  0  3.936283  0
C  C260  1  0.51279762  0.57219707  0.94627203  1  -0.030299  0  -0.075083  -0.167591  0  3.936191  0
C  C261  1  0.51279573  0.42780697  0.05372633  1  -0.030515  0  -0.075061  -0.167547  0  3.936222  0
C  C262  1  0.45962063  0.96092991  0.49722445  1  -0.059271  0  0.016502  0.105485  0  3.984926  0
C  C263  1  0.45961924  0.03907300  0.50277601  1  0.005863  0  0.0165  0.105291  0  3.984928  0
C  C264  1  0.54038857  0.53907185  0.99722261  1  0.005466  0  0.016525  0.10537  0  3.98511  0
C  C265  1  0.54038766  0.46093063  0.00277617  1  -0.058839  0  0.016399  0.105135  0  3.985256  0
C  C266  1  0.43254557  0.91705660  0.54282809  1  -0.017842  0  -0.073625  -0.161491  0  3.920128  0
C  C267  1  0.43253906  0.08294682  0.45717320  1  -0.018256  0  -0.073658  -0.161524  0  3.919966  0
C  C268  1  0.56746107  0.58294724  0.04282448  1  -0.018184  0  -0.073637  -0.161467  0  3.919839  0
C  C269  1  0.56746250  0.41705420  0.95717429  1  -0.018076  0  -0.073637  -0.161467  0  3.919972  0
C  C270  1  0.43478942  0.84370277  0.53627677  1  0.501305  0  0.05729  0.105801  0  3.912406  0
C  C271  1  0.43478225  0.15630065  0.46372452  1  0.501375  0  0.057404  0.106042  0  3.912031  0
C  C272  1  0.56521459  0.65630210  0.03627249  1  0.501427  0  0.057393  0.105983  0  3.912092  0
C  C273  1  0.56521667  0.34370093  0.96372712  1  0.501589  0  0.057455  0.106139  0  3.911936  0
C  C274  1  0.21575113  0.51417855  0.45299848  1  0.404142  0  0.047173  0.103799  0  3.920676  0
C  C275  1  0.21575108  0.48581984  0.54700240  1  0.404183  0  0.047221  0.103962  0  3.920595  0
C  C276  1  0.78425105  0.98581826  0.95299930  1  0.4042  0  0.047211  0.103982  0  3.920514  0
C  C277  1  0.78425142  0.01417810  0.04700281  1  0.404122  0  0.047161  0.103902  0  3.920657  0
C  C278  1  0.09366973  0.51430983  0.45122774  1  0.021137  0  -0.081715  -0.176039  0  3.930282  0
C  C279  1  0.09366880  0.48568736  0.54877356  1  0.021354  0  -0.081653  -0.176022  0  3.930179  0
C  C280  1  0.90633333  0.98568698  0.95122855  1  0.02122  0  -0.081729  -0.176102  0  3.930206  0
C  C281  1  0.90633107  0.01431112  0.04877355  1  0.021232  0  -0.081637  -0.17603  0  3.929985  0
C  C282  1  0.02953291  0.49999829  0.50000003  1  -0.105793  0  0.00987  0.094576  0  4.001209  0
C  C283  1  0.97047286  0.99999900  0.00000067  1  -0.105676  0  0.009881  0.094713  0  4.000997  0
C  C284  1  0.89968851  0.49999825  0.49999917  1  0.025297  0  0.011047  0.098838  0  3.99523  0
C  C285  1  0.10031638  0.99999905  0.00000069  1  0.02516  0  0.011039  0.098825  0  3.995475  0
C  C286  1  0.83545338  0.46452441  0.45851045  1  -0.048597  0  -0.079766  -0.169514  0  3.927144  0
C  C287  1  0.83545172  0.53547467  0.54148706  1  -0.048569  0  -0.07982  -0.169592  0  3.927176  0
C  C288  1  0.16454642  0.03547503  0.95851406  1  -0.048624  0  -0.07978  -0.169546  0  3.927149  0
C  C289  1  0.16454789  0.96452118  0.04148850  1  -0.048536  0  -0.07978  -0.169532  0  3.927313  0
C  C290  1  0.71340883  0.46474929  0.46048519  1  0.474376  0  0.047182  0.098527  0  3.919354  0
C  C291  1  0.71340893  0.53524965  0.53951274  1  0.474349  0  0.047175  0.098576  0  3.919408  0
C  C292  1  0.28659185  0.03525068  0.96048837  1  0.474293  0  0.04713  0.098479  0  3.919286  0
C  C293  1  0.28659069  0.96474672  0.03951418  1  0.474359  0  0.047227  0.098615  0  3.919307  0
N  N294  1  0.41213707  0.59875620  0.29799559  1  -1.245213  0  -0.422456  -0.382392  0  3.533902  0
N  N295  1  0.41214025  0.40124560  0.70200654  1  -1.244697  0  -0.422418  -0.382209  0  3.533994  0
N  N296  1  0.58786163  0.90124590  0.79799372  1  -1.244674  0  -0.422446  -0.382379  0  3.53391  0
N  N297  1  0.58785872  0.09875290  0.20200547  1  -1.244692  0  -0.422379  -0.382236  0  3.53416  0
N  N298  1  0.88656199  0.65884083  0.20338849  1  -1.225852  0  -0.421634  -0.374931  0  3.566018  0
N  N299  1  0.88656322  0.34115725  0.79660986  1  -1.225974  0  -0.421659  -0.374999  0  3.565896  0
N  N300  1  0.11343848  0.84115827  0.70339027  1  -1.225786  0  -0.421603  -0.374998  0  3.566005  0
N  N301  1  0.11343223  0.15883947  0.29660936  1  -1.225871  0  -0.42175  -0.37519  0  3.566044  0
N  N302  1  0.46667702  0.81064115  0.17879559  1  -1.26291  0  -0.419775  -0.382424  0  3.536815  0
N  N303  1  0.46667691  0.18935805  0.82120569  1  -1.262945  0  -0.41978  -0.382485  0  3.536893  0
N  N304  1  0.53332346  0.68935892  0.67879785  1  -1.262945  0  -0.4198  -0.38261  0  3.536825  0
N  N305  1  0.53331941  0.31064036  0.32120468  1  -1.263002  0  -0.419781  -0.382433  0  3.536968  0
N  N306  1  0.65894681  0.70774108  0.47509198  1  -1.246673  0  -0.32044  -0.235226  0  3.525492  0
N  N307  1  0.65894267  0.29225940  0.52490929  1  -1.246722  0  -0.320427  -0.235146  0  3.525481  0
N  N308  1  0.34105450  0.79225954  0.97508654  1  -1.246468  0  -0.3204  -0.235225  0  3.525495  0
N  N309  1  0.34105633  0.20774059  0.02491183  1  -1.246467  0  -0.320418  -0.235213  0  3.525477  0
N  N310  1  0.27905714  0.69836325  0.47827271  1  -1.247304  0  -0.320128  -0.229126  0  3.52293  0
N  N311  1  0.27905303  0.30163574  0.52172649  1  -1.247068  0  -0.320133  -0.229053  0  3.522958  0
N  N312  1  0.72094329  0.80163685  0.97827354  1  -1.247162  0  -0.320104  -0.229062  0  3.522947  0
N  N313  1  0.72094509  0.19836317  0.02172481  1  -1.247091  0  -0.320055  -0.229067  0  3.52294  0
N  N314  1  0.46201355  0.81268645  0.48731423  1  -1.251966  0  -0.316744  -0.219317  0  3.550141  0
N  N315  1  0.46200910  0.18731647  0.51268664  1  -1.251922  0  -0.316762  -0.219422  0  3.550074  0
N  N316  1  0.53798862  0.68731474  0.98730980  1  -1.252528  0  -0.316794  -0.219367  0  3.550342  0
N  N317  1  0.53799165  0.31268667  0.01269148  1  -1.252453  0  -0.316836  -0.219575  0  3.550463  0
N  N318  1  0.27650660  0.49999950  0.50000128  1  -1.236679  0  -0.318712  -0.238544  0  3.52052  0
N  N319  1  0.72349829  0.99999833  0.00000026  1  -1.236629  0  -0.318664  -0.2386  0  3.520414  0
N  N320  1  0.65236818  0.49999917  0.49999959  1  -1.256854  0  -0.315585  -0.229472  0  3.50102  0
N  N321  1  0.34763847  0.99999919  0.00000069  1  -1.256754  0  -0.315591  -0.229436  0  3.500827  0
O  O322  1  0.47329008  0.59194531  0.44563301  1  -1.182445  0  -0.316849  -0.566668  0  2.431498  0
O  O323  1  0.47328629  0.40805709  0.55436744  1  -1.182335  0  -0.316757  -0.566577  0  2.431432  0
O  O324  1  0.52671298  0.90805733  0.94563200  1  -1.18233  0  -0.31682  -0.566618  0  2.431487  0
O  O325  1  0.52671358  0.09194353  0.05436761  1  -1.182251  0  -0.316854  -0.566686  0  2.431471  0
O  O326  1  0.46315159  0.68345227  0.38773498  1  -1.145183  0  -0.311049  -0.527423  0  2.199218  0
O  O327  1  0.46314751  0.31654852  0.61226673  1  -1.145214  0  -0.311059  -0.52746  0  2.199046  0
O  O328  1  0.53685149  0.81655016  0.88773292  1  -1.145073  0  -0.311003  -0.527374  0  2.199072  0
O  O329  1  0.53685236  0.18345125  0.11226711  1  -1.145137  0  -0.311037  -0.527461  0  2.198993  0
O  O330  1  0.22797325  0.57790193  0.33286739  1  -1.159387  0  -0.320299  -0.523773  0  2.109743  0
O  O331  1  0.22797562  0.42209913  0.66713475  1  -1.1593  0  -0.320338  -0.523847  0  2.109697  0
O  O332  1  0.77202545  0.92209977  0.83286597  1  -1.159371  0  -0.320369  -0.523899  0  2.109607  0
O  O333  1  0.77202248  0.07790190  0.16713237  1  -1.159322  0  -0.32029  -0.523784  0  2.109634  0
O  O334  1  0.73106690  0.68956039  0.28071006  1  -1.196452  0  -0.358082  -0.588509  0  2.092727  0
O  O335  1  0.73107068  0.31044283  0.71928537  1  -1.1962  0  -0.357956  -0.588288  0  2.092915  0
O  O336  1  0.26893356  0.81044112  0.78071385  1  -1.196493  0  -0.358001  -0.588398  0  2.092783  0
O  O337  1  0.26893004  0.18955893  0.21928912  1  -1.196938  0  -0.358033  -0.588438  0  2.092765  0
O  O338  1  0.57522600  0.67916578  0.22172631  1  -1.225174  0  -0.35801  -0.618808  0  2.17547  0
O  O339  1  0.57522717  0.32083301  0.77826703  1  -1.225043  0  -0.35796  -0.618642  0  2.17545  0
O  O340  1  0.42477359  0.82083391  0.72173012  1  -1.225115  0  -0.357982  -0.618749  0  2.17555  0
O  O341  1  0.42476828  0.17916418  0.27827410  1  -1.225055  0  -0.358027  -0.618812  0  2.175456  0
O  O342  1  0.95271376  0.69891604  0.11837832  1  -1.163285  0  -0.325577  -0.527582  0  2.096915  0
O  O343  1  0.95271222  0.30108477  0.88162127  1  -1.163258  0  -0.325638  -0.527671  0  2.096872  0
O  O344  1  0.04729111  0.80108222  0.61837918  1  -1.163175  0  -0.325647  -0.527671  0  2.096799  0
O  O345  1  0.04728408  0.19891864  0.38161920  1  -1.163152  0  -0.325657  -0.527737  0  2.097047  0
O  O346  1  0.52434433  0.81443532  0.06601409  1  -1.182245  0  -0.32062  -0.547876  0  2.39419  0
O  O347  1  0.52434332  0.18556714  0.93398635  1  -1.182031  0  -0.320667  -0.547914  0  2.39402  0
O  O348  1  0.47564826  0.68556913  0.56601760  1  -1.182167  0  -0.320639  -0.547814  0  2.394046  0
O  O349  1  0.47564947  0.31443699  0.43398494  1  -1.182111  0  -0.320697  -0.54798  0  2.393952  0
O  O350  1  0.54745724  0.93394127  0.07308883  1  -1.18742  0  -0.308203  -0.557135  0  2.376598  0
O  O351  1  0.54746113  0.06605961  0.92691371  1  -1.187511  0  -0.308157  -0.557187  0  2.376624  0
O  O352  1  0.45254501  0.56606001  0.57308831  1  -1.187447  0  -0.308123  -0.557075  0  2.376544  0
O  O353  1  0.45254482  0.43394343  0.42691047  1  -1.187486  0  -0.308203  -0.55722  0  2.376676  0
O  O354  1  0.30577260  0.86892968  0.14533133  1  -1.161349  0  -0.310104  -0.512801  0  2.136646  0
O  O355  1  0.30576880  0.13106934  0.85466871  1  -1.161322  0  -0.310152  -0.512898  0  2.136603  0
O  O356  1  0.69422788  0.63107080  0.64533094  1  -1.161324  0  -0.310139  -0.512865  0  2.136632  0
O  O357  1  0.69422751  0.36893078  0.35466699  1  -1.161248  0  -0.310101  -0.512833  0  2.136472  0
