# generated using pymatgen
data_TbP2H10C6N3O11
_symmetry_space_group_name_H-M   'P 1'
_cell_length_a   8.67214848
_cell_length_b   8.67214687
_cell_length_c   9.92675394
_cell_angle_alpha   76.60654102
_cell_angle_beta   76.60655621
_cell_angle_gamma   76.52615833
_symmetry_Int_Tables_number   1
_chemical_formula_structural   TbP2H10C6N3O11
_chemical_formula_sum   'Tb2 P4 H20 C12 N6 O22'
_cell_volume   693.69302196
_cell_formula_units_Z   2
loop_
 _symmetry_equiv_pos_site_id
 _symmetry_equiv_pos_as_xyz
  1  'x, y, z'
loop_
 _atom_site_type_symbol
 _atom_site_label
 _atom_site_symmetry_multiplicity
 _atom_site_fract_x
 _atom_site_fract_y
 _atom_site_fract_z
 _atom_site_occupancy
 _atom_site_hle17_bader_spin_density
 _atom_site_hle17_ddec_charge
 _atom_site_hle17_ddec_spin_density
 _atom_site_hle17_ddec_sum_bond_order
 _atom_site_hle17_magmom
 _atom_site_hse06_10hf_bader_spin_density
 _atom_site_hse06_10hf_ddec_charge
 _atom_site_hse06_10hf_ddec_spin_density
 _atom_site_hse06_10hf_ddec_sum_bond_order
 _atom_site_hse06_10hf_magmom
 _atom_site_hse06_bader_spin_density
 _atom_site_hse06_ddec_charge
 _atom_site_hse06_ddec_spin_density
 _atom_site_hse06_ddec_sum_bond_order
 _atom_site_hse06_magmom
 _atom_site_pbe_bader_spin_density
 _atom_site_pbe_cm5_charge
 _atom_site_pbe_ddec_charge
 _atom_site_pbe_ddec_spin_density
 _atom_site_pbe_ddec_sum_bond_order
 _atom_site_pbe_magmom
Tb  Tb0  1  0.86426741  0.13573163  0.75000050  1  0  2.385997  0  1.68803  0  0  2.305234  0  2.045499  0  0  2.350484  0  1.999643  0  0  1.564264  2.272557  0  2.07783  0
Tb  Tb1  1  0.13573145  0.86426773  0.24999964  1  0  2.385974  0  1.688091  0  0  2.305192  0  2.045571  0  0  2.350444  0  1.999714  0  0  1.564229  2.272515  0  2.077901  0
P  P2  1  0.25184933  0.05374873  0.88155009  1  0  1.566566  0  4.744147  0  0  1.415594  0  5.255611  0  0  1.464723  0  5.21402  0  0  0.386905  1.38139  0  5.283715  0
P  P3  1  0.94625045  0.74815162  0.61845044  1  0  1.566548  0  4.744147  0  0  1.41558  0  5.255601  0  0  1.464708  0  5.214012  0  0  0.386927  1.381374  0  5.2837  0
P  P4  1  0.74815071  0.94625063  0.11844880  1  0  1.566617  0  4.74408  0  0  1.415637  0  5.255546  0  0  1.464767  0  5.213953  0  0  0.386932  1.381434  0  5.283649  0
P  P5  1  0.05374960  0.25184774  0.38155147  1  0  1.566577  0  4.744139  0  0  1.415627  0  5.255569  0  0  1.464757  0  5.213977  0  0  0.386928  1.381421  0  5.283669  0
H  H6  1  0.38342444  0.25164411  0.85523305  1  0  0.420483  0  0.863544  0  0  0.391813  0  0.935649  0  0  0.402753  0  0.919677  0  0  0.317583  0.384117  0  0.946872  0
H  H7  1  0.74835562  0.61657687  0.64476729  1  0  0.420485  0  0.863554  0  0  0.391813  0  0.935653  0  0  0.402753  0  0.919681  0  0  0.317591  0.384117  0  0.946877  0
H  H8  1  0.61657538  0.74835646  0.14476665  1  0  0.420484  0  0.863534  0  0  0.391814  0  0.935643  0  0  0.402753  0  0.919671  0  0  0.317582  0.384118  0  0.946866  0
H  H9  1  0.25164420  0.38342370  0.35523341  1  0  0.420611  0  0.863339  0  0  0.391875  0  0.935587  0  0  0.402815  0  0.919612  0  0  0.317605  0.384178  0  0.946811  0
H  H10  1  0.53641792  0.93356952  0.84387284  1  0  0.156212  0  0.928819  0  0  0.164402  0  0.989907  0  0  0.168219  0  0.987068  0  0  0.134493  0.161548  0  0.991984  0
H  H11  1  0.06642958  0.46358270  0.65612671  1  0  0.156217  0  0.928784  0  0  0.164408  0  0.989867  0  0  0.168226  0  0.987027  0  0  0.13449  0.161554  0  0.991945  0
H  H12  1  0.46358213  0.06642984  0.15612605  1  0  0.156251  0  0.928724  0  0  0.16444  0  0.989809  0  0  0.168257  0  0.986969  0  0  0.134506  0.161586  0  0.991887  0
H  H13  1  0.93357024  0.53641787  0.34387399  1  0  0.156263  0  0.928758  0  0  0.164448  0  0.989854  0  0  0.168266  0  0.987014  0  0  0.134507  0.161594  0  0.991931  0
H  H14  1  0.41641328  0.79814649  0.83317780  1  0  0.14129  0  0.928967  0  0  0.152057  0  0.988596  0  0  0.154328  0  0.987623  0  0  0.125166  0.150323  0  0.989428  0
H  H15  1  0.20185229  0.58358634  0.66682202  1  0  0.141309  0  0.928977  0  0  0.152067  0  0.988609  0  0  0.154338  0  0.987639  0  0  0.125176  0.150335  0  0.989439  0
H  H16  1  0.58358558  0.20185287  0.16682132  1  0  0.141315  0  0.928983  0  0  0.15208  0  0.988607  0  0  0.154352  0  0.987634  0  0  0.125178  0.150347  0  0.989438  0
H  H17  1  0.79814776  0.41641302  0.33317888  1  0  0.141299  0  0.929008  0  0  0.15207  0  0.988637  0  0  0.154342  0  0.987664  0  0  0.125162  0.150336  0  0.989469  0
H  H18  1  0.60128178  0.22601339  0.39721704  1  0  0.124648  0  0.92734  0  0  0.132844  0  0.990547  0  0  0.136222  0  0.987663  0  0  0.1243  0.130389  0  0.992637  0
H  H19  1  0.77398671  0.39871757  0.10278312  1  0  0.124645  0  0.92734  0  0  0.132843  0  0.990541  0  0  0.136221  0  0.987658  0  0  0.124298  0.130389  0  0.992633  0
H  H20  1  0.39871708  0.77398597  0.60278309  1  0  0.124645  0  0.927328  0  0  0.132844  0  0.990532  0  0  0.136221  0  0.98765  0  0  0.124296  0.130389  0  0.992623  0
H  H21  1  0.22601334  0.60128180  0.89721677  1  0  0.124633  0  0.927345  0  0  0.132833  0  0.990546  0  0  0.136211  0  0.987664  0  0  0.124302  0.130379  0  0.992637  0
H  H22  1  0.75293079  0.04856150  0.39553173  1  0  0.136807  0  0.922687  0  0  0.144454  0  0.986957  0  0  0.147957  0  0.984559  0  0  0.13511  0.141839  0  0.988823  0
H  H23  1  0.95143806  0.24707007  0.10446827  1  0  0.136816  0  0.922665  0  0  0.144464  0  0.986933  0  0  0.147968  0  0.984535  0  0  0.135099  0.14185  0  0.9888  0
H  H24  1  0.24707021  0.95143907  0.60446773  1  0  0.136831  0  0.922657  0  0  0.144504  0  0.986902  0  0  0.148008  0  0.984501  0  0  0.135118  0.141889  0  0.988768  0
H  H25  1  0.04856176  0.75293050  0.89553142  1  0  0.136796  0  0.922663  0  0  0.144443  0  0.986937  0  0  0.147946  0  0.984538  0  0  0.135095  0.141829  0  0.988803  0
C  C26  1  0.43257797  0.92429697  0.80272307  1  0  -0.340526  0  3.604779  0  0  -0.381068  0  3.853615  0  0  -0.385369  0  3.860303  0  0  -0.058115  -0.377836  0  3.848994  0
C  C27  1  0.07570213  0.56742284  0.69727744  1  0  -0.340564  0  3.604768  0  0  -0.381098  0  3.853615  0  0  -0.3854  0  3.860302  0  0  -0.058137  -0.377866  0  3.848991  0
C  C28  1  0.56742326  0.07570240  0.19727658  1  0  -0.340629  0  3.604715  0  0  -0.381167  0  3.853561  0  0  -0.385466  0  3.860246  0  0  -0.058156  -0.377936  0  3.84894  0
C  C29  1  0.92429769  0.43257773  0.30272326  1  0  -0.340587  0  3.604739  0  0  -0.381163  0  3.853644  0  0  -0.385465  0  3.860331  0  0  -0.058125  -0.37793  0  3.849021  0
C  C30  1  0.58195302  0.05323908  0.58475072  1  0  0.575925  0  3.765276  0  0  0.525265  0  4.059094  0  0  0.555682  0  4.056459  0  0  0.266538  0.504685  0  4.060396  0
C  C31  1  0.94676305  0.41804758  0.91524932  1  0  0.576036  0  3.765105  0  0  0.525359  0  4.058952  0  0  0.555778  0  4.056314  0  0  0.26656  0.504777  0  4.060261  0
C  C32  1  0.41804776  0.94676270  0.41524955  1  0  0.575972  0  3.765108  0  0  0.525285  0  4.058977  0  0  0.555703  0  4.05634  0  0  0.266525  0.504704  0  4.060279  0
C  C33  1  0.05323818  0.58195178  0.08475235  1  0  0.575973  0  3.765187  0  0  0.52528  0  4.059049  0  0  0.555698  0  4.056413  0  0  0.266535  0.504699  0  4.060355  0
C  C34  1  0.62258671  0.09338826  0.42713125  1  0  -0.147939  0  3.630627  0  0  -0.201806  0  3.875006  0  0  -0.202906  0  3.882086  0  0  -0.041713  -0.200778  0  3.870094  0
C  C35  1  0.90661074  0.37741307  0.07286907  1  0  -0.147979  0  3.630634  0  0  -0.20184  0  3.875016  0  0  -0.202941  0  3.882093  0  0  -0.041698  -0.200812  0  3.870109  0
C  C36  1  0.37741215  0.90661110  0.57286788  1  0  -0.147986  0  3.630569  0  0  -0.201886  0  3.874989  0  0  -0.202986  0  3.882066  0  0  -0.041723  -0.200856  0  3.870076  0
C  C37  1  0.09338812  0.62258630  0.92713208  1  0  -0.147907  0  3.630541  0  0  -0.201766  0  3.87493  0  0  -0.202867  0  3.88201  0  0  -0.041705  -0.200738  0  3.870022  0
N  N38  1  0.46723845  0.96793656  0.64912600  1  0  -0.112024  0  3.460705  0  0  -0.030967  0  3.690408  0  0  -0.049417  0  3.712661  0  0  -0.254066  -0.01874  0  3.675066  0
N  N39  1  0.03206274  0.53276049  0.85087384  1  0  -0.112083  0  3.460794  0  0  -0.031021  0  3.690488  0  0  -0.04947  0  3.712743  0  0  -0.254046  -0.018792  0  3.675149  0
N  N40  1  0.53276041  0.03206280  0.35087413  1  0  -0.112042  0  3.460806  0  0  -0.030974  0  3.690495  0  0  -0.049424  0  3.712753  0  0  -0.25405  -0.018747  0  3.675152  0
N  N41  1  0.96793635  0.46723766  0.14912649  1  0  -0.112085  0  3.460804  0  0  -0.031007  0  3.690518  0  0  -0.049454  0  3.712768  0  0  -0.254092  -0.01878  0  3.675178  0
N  N42  1  0.57218728  0.42781315  0.75000019  1  0  0.70529  0  4.124398  0  0  0.735614  0  4.421147  0  0  0.764317  0  4.425997  0  0  0.100592  0.718057  0  4.41701  0
N  N43  1  0.42781254  0.57218742  0.24999950  1  0  0.705292  0  4.12437  0  0  0.735613  0  4.421106  0  0  0.764317  0  4.425956  0  0  0.100578  0.718058  0  4.416965  0
O  O44  1  0.11002729  0.04512502  0.82129475  1  0  -0.94287  0  1.995193  0  0  -0.882991  0  2.277736  0  0  -0.908406  0  2.257207  0  0  -0.452898  -0.865015  0  2.291576  0
O  O45  1  0.95487473  0.88997163  0.67870708  1  0  -0.942836  0  1.995193  0  0  -0.88297  0  2.277752  0  0  -0.908378  0  2.257212  0  0  -0.452921  -0.864994  0  2.291591  0
O  O46  1  0.88997276  0.95487434  0.17870615  1  0  -0.942873  0  1.995184  0  0  -0.882969  0  2.277706  0  0  -0.90839  0  2.257187  0  0  -0.4529  -0.864993  0  2.291546  0
O  O47  1  0.04512532  0.11002773  0.32129383  1  0  -0.94286  0  1.995212  0  0  -0.882975  0  2.277749  0  0  -0.908388  0  2.257218  0  0  -0.452904  -0.864999  0  2.291588  0
O  O48  1  0.23939530  0.00636351  0.04003074  1  0  -0.970249  0  1.985027  0  0  -0.910357  0  2.264938  0  0  -0.934461  0  2.240958  0  0  -0.475564  -0.89328  0  2.280807  0
O  O49  1  0.99363552  0.76060615  0.45996920  1  0  -0.970236  0  1.985023  0  0  -0.910338  0  2.264925  0  0  -0.934442  0  2.240946  0  0  -0.475558  -0.893261  0  2.280793  0
O  O50  1  0.76060474  0.99363585  0.95996915  1  0  -0.970259  0  1.985035  0  0  -0.910364  0  2.264941  0  0  -0.934468  0  2.240961  0  0  -0.475572  -0.893289  0  2.280812  0
O  O51  1  0.00636430  0.23939442  0.54003151  1  0  -0.970263  0  1.985025  0  0  -0.910365  0  2.264919  0  0  -0.934469  0  2.240937  0  0  -0.47559  -0.893284  0  2.280778  0
O  O52  1  0.28659137  0.23300481  0.82790566  1  0  -0.726051  0  1.997812  0  0  -0.657368  0  2.220145  0  0  -0.677658  0  2.196598  0  0  -0.380629  -0.64314  0  2.236266  0
O  O53  1  0.76699391  0.71340872  0.67209512  1  0  -0.726064  0  1.997855  0  0  -0.657385  0  2.220189  0  0  -0.677676  0  2.196642  0  0  -0.380649  -0.643158  0  2.236312  0
O  O54  1  0.71340868  0.76699455  0.17209423  1  0  -0.726061  0  1.997795  0  0  -0.657387  0  2.220143  0  0  -0.677677  0  2.196596  0  0  -0.380639  -0.64316  0  2.236265  0
O  O55  1  0.23300614  0.28659064  0.32790578  1  0  -0.726159  0  1.997692  0  0  -0.657462  0  2.220044  0  0  -0.677755  0  2.196498  0  0  -0.380655  -0.643235  0  2.236164  0
O  O56  1  0.65959411  0.10448506  0.65162625  1  0  -0.709118  0  2.148154  0  0  -0.677832  0  2.423504  0  0  -0.701311  0  2.413743  0  0  -0.392417  -0.661527  0  2.429852  0
O  O57  1  0.89551351  0.34040559  0.84837369  1  0  -0.709183  0  2.148007  0  0  -0.677893  0  2.423375  0  0  -0.701372  0  2.413613  0  0  -0.392439  -0.661586  0  2.429722  0
O  O58  1  0.34040475  0.89551430  0.34837288  1  0  -0.709159  0  2.147968  0  0  -0.677845  0  2.423299  0  0  -0.701323  0  2.413538  0  0  -0.392419  -0.661542  0  2.429651  0
O  O59  1  0.10448535  0.65959377  0.15162645  1  0  -0.709112  0  2.148121  0  0  -0.67782  0  2.423497  0  0  -0.701299  0  2.413737  0  0  -0.392406  -0.661513  0  2.429844  0
O  O60  1  0.57056748  0.30204490  0.84751144  1  0  -0.510369  0  1.823877  0  0  -0.501503  0  2.045441  0  0  -0.517704  0  2.037172  0  0  -0.190303  -0.49084  0  2.0508  0
O  O61  1  0.69795476  0.42943112  0.65248847  1  0  -0.510361  0  1.823879  0  0  -0.501486  0  2.045439  0  0  -0.517687  0  2.037172  0  0  -0.190299  -0.490822  0  2.050797  0
O  O62  1  0.42943115  0.69795567  0.15248950  1  0  -0.510379  0  1.823869  0  0  -0.501507  0  2.045429  0  0  -0.517706  0  2.03716  0  0  -0.190302  -0.490844  0  2.050789  0
O  O63  1  0.30204410  0.57056824  0.34751066  1  0  -0.510414  0  1.82386  0  0  -0.501507  0  2.045433  0  0  -0.517709  0  2.037163  0  0  -0.190303  -0.490844  0  2.050791  0
O  O64  1  0.45618994  0.54380908  0.75000046  1  0  -0.4168  0  1.795042  0  0  -0.405866  0  2.001411  0  0  -0.420055  0  1.994946  0  0  -0.153597  -0.39683  0  2.005885  0
O  O65  1  0.54380869  0.45619149  0.24999947  1  0  -0.41678  0  1.795058  0  0  -0.405843  0  2.00142  0  0  -0.420033  0  1.994953  0  0  -0.153581  -0.396808  0  2.005893  0
