# generated using pymatgen
data_Cd5H46C72(N2O9)2
_symmetry_space_group_name_H-M   'P 1'
_cell_length_a   7.79115807
_cell_length_b   15.13233292
_cell_length_c   16.80995162
_cell_angle_alpha   69.06159767
_cell_angle_beta   79.49582185
_cell_angle_gamma   79.81446072
_symmetry_Int_Tables_number   1
_chemical_formula_structural   Cd5H46C72(N2O9)2
_chemical_formula_sum   'Cd5 H46 C72 N4 O18'
_cell_volume   1806.46407100
_cell_formula_units_Z   1
loop_
 _symmetry_equiv_pos_site_id
 _symmetry_equiv_pos_as_xyz
  1  'x, y, z'
loop_
 _atom_site_type_symbol
 _atom_site_label
 _atom_site_symmetry_multiplicity
 _atom_site_fract_x
 _atom_site_fract_y
 _atom_site_fract_z
 _atom_site_occupancy
 _atom_site_pbe_bader_charge
 _atom_site_pbe_bader_spin_density
 _atom_site_pbe_cm5_charge
 _atom_site_pbe_ddec_charge
 _atom_site_pbe_ddec_spin_density
 _atom_site_pbe_ddec_sum_bond_order
 _atom_site_pbe_magmom
Cd  Cd0  1  0.36652299  0.99241254  0.85674503  1  1.305964  0  0.770367  0.990669  0  2.163799  0
Cd  Cd1  1  0.60982775  0.18122255  0.90596904  1  1.27706  0  0.767093  0.970229  0  2.095089  0
Cd  Cd2  1  0.63347603  0.00759092  0.14325451  1  1.305985  0  0.770334  0.990551  0  2.16395  0
Cd  Cd3  1  0.00000212  0.00000213  0.00000152  1  1.321713  0  0.740221  1.060393  0  2.202541  0
Cd  Cd4  1  0.39016842  0.81878236  0.09402552  1  1.277249  0  0.767046  0.970106  0  2.095193  0
H  H5  1  0.60354324  0.51628782  0.94188660  1  0.08522  0  0.101333  0.104727  0  1.050337  0
H  H6  1  0.87301693  0.96034640  0.46436394  1  0.066388  0  0.1022  0.097999  0  1.028384  0
H  H7  1  0.67306704  0.99268930  0.97874468  1  0.618185  0  0.273158  0.374461  0  0.968978  0
H  H8  1  0.48908135  0.38953814  0.90971971  1  0.100585  0  0.122093  0.099213  0  0.981152  0
H  H9  1  0.53830317  0.25026601  0.08928462  1  0.088127  0  0.099032  0.09939  0  1.038825  0
H  H10  1  0.11382331  0.21717332  0.50171464  1  0.047109  0  0.098244  0.09826  0  1.016345  0
H  H11  1  0.88800529  0.65654689  0.04864685  1  0.118171  0  0.109925  0.128921  0  1.023121  0
H  H12  1  0.67041197  0.34438943  0.14932706  1  0.081869  0  0.098779  0.09884  0  1.01277  0
H  H13  1  0.06229033  0.70475079  0.68480690  1  0.043642  0  0.097519  0.096142  0  1.027485  0
H  H14  1  0.62394071  0.05938300  0.32185775  1  0.110182  0  0.115196  0.091462  0  1.002548  0
H  H15  1  0.32694284  0.00731840  0.02125143  1  0.618153  0  0.273161  0.37443  0  0.969014  0
H  H16  1  0.01963453  0.77034679  0.08434739  1  0.148764  0  0.118647  0.099773  0  1.029945  0
H  H17  1  0.73849100  0.03386218  0.77218363  1  0.13928  0  0.118762  0.100745  0  1.012589  0
H  H18  1  0.46171737  0.74972171  0.91072536  1  0.08807  0  0.099093  0.099457  0  1.038906  0
H  H19  1  0.88614536  0.78283809  0.49828066  1  0.047146  0  0.098293  0.098298  0  1.016229  0
H  H20  1  0.03347044  0.97158168  0.34940734  1  0.08087  0  0.106981  0.113019  0  1.022399  0
H  H21  1  0.37605777  0.94062260  0.67814711  1  0.110039  0  0.115198  0.091478  0  1.002575  0
H  H22  1  0.06726138  0.81949736  0.35432747  1  0.098961  0  0.10155  0.100416  0  1.053007  0
H  H23  1  0.35787621  0.73810874  0.33693469  1  0.094268  0  0.106074  0.115024  0  1.014621  0
H  H24  1  0.18688140  0.37463175  0.31423256  1  0.062941  0  0.105611  0.107144  0  0.987944  0
H  H25  1  0.39591347  0.25437798  0.41191374  1  0.074683  0  0.092436  0.08779  0  1.058204  0
H  H26  1  0.26151757  0.96614553  0.22781259  1  0.139367  0  0.118734  0.100764  0  1.012602  0
H  H27  1  0.84031714  0.57534606  0.97357562  1  0.074259  0  0.10554  0.106522  0  1.015871  0
H  H28  1  0.93270557  0.18052189  0.64566904  1  0.098627  0  0.101603  0.100441  0  1.053065  0
H  H29  1  0.93772281  0.29524764  0.31519371  1  0.043687  0  0.097474  0.096064  0  1.027516  0
H  H30  1  0.11198084  0.34346160  0.95135748  1  0.118269  0  0.109928  0.128863  0  1.023113  0
H  H31  1  0.50498268  0.59151701  0.73861465  1  0.04965  0  0.107339  0.107791  0  0.982222  0
H  H32  1  0.32961221  0.65559970  0.85068038  1  0.082297  0  0.098769  0.098838  0  1.012742  0
H  H33  1  0.51090590  0.61046536  0.09028197  1  0.100745  0  0.122069  0.099257  0  0.981133  0
H  H34  1  0.41249704  0.06351029  0.45288666  1  0.074272  0  0.103141  0.106598  0  1.02921  0
H  H35  1  0.15968412  0.42465882  0.02642745  1  0.074452  0  0.105554  0.10655  0  1.015874  0
H  H36  1  0.80454498  0.19601084  0.25761501  1  0.069247  0  0.100554  0.102926  0  1.029098  0
H  H37  1  0.98035586  0.22966027  0.91565409  1  0.148812  0  0.11864  0.099747  0  1.030027  0
H  H38  1  0.96653839  0.02841890  0.65058817  1  0.080932  0  0.106972  0.112993  0  1.022505  0
H  H39  1  0.69623067  0.29656221  0.39425505  1  0.027753  0  0.095242  0.088607  0  1.032712  0
H  H40  1  0.19546791  0.80398260  0.74238721  1  0.069236  0  0.100587  0.102944  0  1.029156  0
H  H41  1  0.12698622  0.03964993  0.53563696  1  0.066398  0  0.102214  0.097985  0  1.028411  0
H  H42  1  0.81313496  0.62536382  0.68576870  1  0.062837  0  0.105648  0.107166  0  0.987961  0
H  H43  1  0.39644278  0.48371498  0.05812017  1  0.0855  0  0.101377  0.10477  0  1.05035  0
H  H44  1  0.18245429  0.69833629  0.47972452  1  0.066766  0  0.099063  0.09628  0  1.017071  0
H  H45  1  0.81753444  0.30166081  0.52027077  1  0.066977  0  0.099088  0.096295  0  1.017163  0
H  H46  1  0.49503325  0.40847428  0.26139039  1  0.049553  0  0.107316  0.107802  0  0.982125  0
H  H47  1  0.60407875  0.74561482  0.58808501  1  0.07481  0  0.09242  0.087788  0  1.05807  0
H  H48  1  0.30376352  0.70342774  0.60574089  1  0.026113  0  0.095231  0.088654  0  1.032668  0
H  H49  1  0.64211342  0.26189619  0.66306158  1  0.094421  0  0.106063  0.115019  0  1.014479  0
H  H50  1  0.58749745  0.93648963  0.54711915  1  0.073953  0  0.103142  0.106601  0  1.029261  0
C  C51  1  0.68997284  0.45263429  0.93807740  1  0.01129  0  -0.085903  -0.181929  0  3.95114  0
C  C52  1  0.28368404  0.25677536  0.16681286  1  0.043909  0  -0.005358  0.042509  0  3.95035  0
C  C53  1  0.98908270  0.73066972  0.73557047  1  -0.07778  0  -0.095585  -0.1426  0  4.016919  0
C  C54  1  0.01093444  0.26931588  0.26443571  1  -0.078589  0  -0.095446  -0.142313  0  4.016831  0
C  C55  1  0.62598643  0.38358285  0.91916391  1  0.430051  0  0.045662  0.092395  0  3.973888  0
C  C56  1  0.73542005  0.65315835  0.73458211  1  -0.024012  0  -0.090278  -0.137906  0  3.989835  0
C  C57  1  0.86075784  0.81192688  0.28879045  1  -0.002593  0  -0.021135  -0.067103  0  3.956663  0
C  C58  1  0.71633684  0.74321735  0.83318955  1  0.043515  0  -0.005373  0.042682  0  3.950353  0
C  C59  1  0.71061814  0.01253760  0.72096592  1  0.524661  0  0.046103  0.099517  0  3.95527  0
C  C60  1  0.50779568  0.96123393  0.66767113  1  0.464026  0  0.046312  0.099046  0  3.96129  0
C  C61  1  0.93124089  0.80624660  0.36284672  1  -0.082434  0  -0.093686  -0.104734  0  4.026583  0
C  C62  1  0.58633370  0.76414494  0.37934493  1  -0.00459  0  -0.001863  0.056101  0  3.93194  0
C  C63  1  0.45008387  0.25569344  0.46683902  1  -0.104765  0  -0.098237  -0.144157  0  4.005851  0
C  C64  1  0.53932929  0.72342711  0.86121171  1  -0.048114  0  -0.090948  -0.12806  0  3.977595  0
C  C65  1  0.30855025  0.21092162  0.70308148  1  -0.051489  0  -0.000454  -0.074951  0  3.887063  0
C  C66  1  0.68837728  0.83374547  0.93585496  1  1.614794  0  0.210943  0.595931  0  4.217974  0
C  C67  1  0.91917830  0.98543109  0.50926178  1  -0.019388  0  -0.079174  -0.115785  0  3.947397  0
C  C68  1  0.31424146  0.71794734  0.47153963  1  -0.018371  0  -0.095446  -0.083812  0  4.024707  0
C  C69  1  0.97655752  0.84465348  0.20417988  1  1.589182  0  0.210628  0.59729  0  4.190177  0
C  C70  1  0.06873338  0.19375696  0.63715006  1  -0.082608  0  -0.093735  -0.104757  0  4.026748  0
C  C71  1  0.39062018  0.21528727  0.77619965  1  1.579885  0  0.20393  0.584274  0  4.207997  0
C  C72  1  0.34390585  0.23469886  0.54771221  1  -0.004772  0  -0.00938  0.080614  0  4.012702  0
C  C73  1  0.86554423  0.43948713  0.95379846  1  0.000555  0  0.00792  0.146684  0  4.024991  0
C  C74  1  0.53496635  0.32944263  0.17255735  1  -0.086112  0  -0.095354  -0.08795  0  4.027269  0
C  C75  1  0.37400548  0.61642349  0.08083350  1  0.430522  0  0.045671  0.092248  0  3.973829  0
C  C76  1  0.58683402  0.26037646  0.60845569  1  -0.054215  0  -0.085589  -0.120192  0  3.94478  0
C  C77  1  0.20433581  0.01504260  0.41439857  1  0.01795  0  0.007536  0.149622  0  4.023916  0
C  C78  1  0.16854679  0.21455480  0.55798674  1  -0.023945  0  -0.098814  -0.153584  0  4.032379  0
C  C79  1  0.26460156  0.34683078  0.26542256  1  -0.02356  0  -0.090072  -0.137675  0  3.989728  0
C  C80  1  0.96944965  0.81801742  0.83412622  1  -0.014348  0  -0.017939  -0.060967  0  3.946572  0
C  C81  1  0.18507248  0.29178944  0.23276563  1  -0.012937  0  -0.007801  0.079591  0  4.011427  0
C  C82  1  0.28938812  0.98746869  0.27903213  1  0.524091  0  0.046117  0.099441  0  3.955496  0
C  C83  1  0.46069413  0.27656558  0.13879525  1  -0.048829  0  -0.090872  -0.127867  0  3.977494  0
C  C84  1  0.56389990  0.63453639  0.76390078  1  -0.083969  0  -0.089148  -0.081137  0  4.029454  0
C  C85  1  0.93718031  0.21482641  0.23278157  1  -0.056298  0  -0.092801  -0.103913  0  4.034469  0
C  C86  1  0.31163922  0.16625580  0.06414089  1  1.61454  0  0.210942  0.595875  0  4.217932  0
C  C87  1  0.83142444  0.78545090  0.44200781  1  -0.024228  0  -0.098874  -0.153684  0  4.03239  0
C  C88  1  0.20168400  0.20280985  0.13273386  1  0.002013  0  0.000489  -0.071387  0  3.871339  0
C  C89  1  0.83670481  0.01040620  0.65189624  1  -0.053764  0  -0.079423  -0.161814  0  3.913272  0
C  C90  1  0.31001772  0.54737206  0.06192251  1  0.010846  0  -0.085977  -0.181881  0  3.951141  0
C  C91  1  0.08082179  0.01456739  0.49073868  1  -0.105832  0  -0.079126  -0.115687  0  3.947404  0
C  C92  1  0.54990552  0.74430650  0.53315827  1  -0.104631  0  -0.098152  -0.144  0  4.006082  0
C  C93  1  0.06022566  0.87538556  0.86719436  1  1.595773  0  0.207418  0.591359  0  4.196737  0
C  C94  1  0.79566887  0.98495870  0.58560240  1  0.0181  0  0.007455  0.149619  0  4.023973  0
C  C95  1  0.09993988  0.70644800  0.07735339  1  0.444484  0  0.046889  0.110439  0  3.929097  0
C  C96  1  0.41364304  0.23585291  0.62065645  1  -0.004453  0  -0.001764  0.056525  0  3.931629  0
C  C97  1  0.61735956  0.27929734  0.45721789  1  -0.026339  0  -0.096865  -0.083968  0  4.045759  0
C  C98  1  0.65607479  0.76530538  0.45228441  1  -0.004912  0  -0.009405  0.080728  0  4.012937  0
C  C99  1  0.06283975  0.78515774  0.76722542  1  -0.057757  0  -0.092677  -0.10366  0  4.034595  0
C  C100  1  0.69142991  0.78907266  0.29691779  1  -0.051634  0  -0.000489  -0.074646  0  3.886875  0
C  C101  1  0.92578790  0.50793265  0.98179475  1  -0.005772  0  -0.077717  -0.11389  0  3.945229  0
C  C102  1  0.79832700  0.79718003  0.86727264  1  0.002175  0  0.000529  -0.071564  0  3.871667  0
C  C103  1  0.62612423  0.95901898  0.59543541  1  -0.027818  0  -0.086228  -0.183164  0  3.92764  0
C  C104  1  0.49220806  0.03877165  0.33233032  1  0.463851  0  0.046262  0.098981  0  3.961235  0
C  C105  1  0.81494711  0.70819685  0.76724132  1  -0.012839  0  -0.007724  0.079707  0  4.010997  0
C  C106  1  0.43612283  0.36545345  0.23610595  1  -0.084719  0  -0.08915  -0.081129  0  4.029145  0
C  C107  1  0.68574548  0.28205190  0.52845750  1  -0.018485  0  -0.095637  -0.08406  0  4.02496  0
C  C108  1  0.93979395  0.12460715  0.13280517  1  1.595417  0  0.207406  0.591408  0  4.196264  0
C  C109  1  0.37387475  0.04098449  0.40456652  1  -0.028361  0  -0.086184  -0.183092  0  3.927561  0
C  C110  1  0.13444895  0.56051920  0.04620124  1  0.000418  0  0.007845  0.146496  0  4.025117  0
C  C111  1  0.38263983  0.72070470  0.54277733  1  -0.024506  0  -0.09696  -0.084261  0  4.046052  0
C  C112  1  0.46505856  0.67054293  0.82745297  1  -0.087099  0  -0.095303  -0.08784  0  4.027145  0
C  C113  1  0.41315041  0.73962849  0.39153862  1  -0.053939  0  -0.085611  -0.12012  0  3.945033  0
C  C114  1  0.90005051  0.29355906  0.92264809  1  0.444094  0  0.046825  0.1103  0  3.929411  0
C  C115  1  0.13922434  0.18807023  0.71120655  1  -0.002121  0  -0.021215  -0.067203  0  3.956973  0
C  C116  1  0.60936140  0.78471270  0.22379589  1  1.579824  0  0.203813  0.583853  0  4.208093  0
C  C117  1  0.16330089  0.98959653  0.34810299  1  -0.053639  0  -0.079581  -0.161965  0  3.91311  0
C  C118  1  0.03056780  0.18196675  0.16587979  1  -0.014992  0  -0.017861  -0.060963  0  3.946634  0
C  C119  1  0.07421009  0.49206939  0.01820772  1  -0.088229  0  -0.077766  -0.113897  0  3.945378  0
C  C120  1  0.02342833  0.15535074  0.79581752  1  1.589058  0  0.210663  0.597534  0  4.189624  0
C  C121  1  0.97297062  0.35847229  0.94319683  1  0.008419  0  -0.076922  -0.157944  0  3.878789  0
C  C122  1  0.02702286  0.64153262  0.05680389  1  0.008392  0  -0.076843  -0.15795  0  3.878649  0
N  N123  1  0.45172562  0.01176287  0.27068925  1  -1.230706  0  -0.32811  -0.257262  0  3.509437  0
N  N124  1  0.27136116  0.69584018  0.08705162  1  -1.239179  0  -0.337708  -0.258172  0  3.541587  0
N  N125  1  0.72863467  0.30416615  0.91294549  1  -1.238665  0  -0.337703  -0.258174  0  3.541561  0
N  N126  1  0.54828322  0.98824341  0.72931038  1  -1.231287  0  -0.328171  -0.257417  0  3.509207  0
O  O127  1  0.00116562  0.11734085  0.06011243  1  -1.17552  0  -0.314916  -0.556336  0  2.326326  0
O  O128  1  0.71045688  0.04004897  0.99826795  1  -1.19173  0  -0.593422  -0.854925  0  2.155231  0
O  O129  1  0.52808147  0.86435718  0.17705356  1  -1.143984  0  -0.337515  -0.571984  0  2.405649  0
O  O130  1  0.89857594  0.89392207  0.13785776  1  -1.192885  0  -0.332754  -0.600489  0  2.369493  0
O  O131  1  0.64379038  0.77202047  0.00772658  1  -1.168321  0  -0.313256  -0.552421  0  2.248576  0
O  O132  1  0.28955156  0.95995945  0.00172746  1  -1.191694  0  -0.593434  -0.854882  0  2.155336  0
O  O133  1  0.36322223  0.07706380  0.08543128  1  -1.19046  0  -0.326803  -0.584934  0  2.336972  0
O  O134  1  0.80451595  0.08869071  0.18118877  1  -1.171381  0  -0.333011  -0.579722  0  2.288195  0
O  O135  1  0.60718283  0.70695947  0.21474163  1  -1.136274  0  -0.312497  -0.511596  0  2.056494  0
O  O136  1  0.63679588  0.92293604  0.91456490  1  -1.190628  0  -0.326828  -0.584923  0  2.336741  0
O  O137  1  0.85947450  0.17645235  0.79593763  1  -1.180353  0  -0.317587  -0.549774  0  2.230064  0
O  O138  1  0.10141139  0.10608144  0.86213856  1  -1.192709  0  -0.332806  -0.60062  0  2.369285  0
O  O139  1  0.19550806  0.91129985  0.81880931  1  -1.171502  0  -0.333005  -0.579634  0  2.288339  0
O  O140  1  0.47190834  0.13564704  0.82294055  1  -1.144011  0  -0.337575  -0.572104  0  2.405549  0
O  O141  1  0.14051267  0.82355756  0.20406319  1  -1.180119  0  -0.317645  -0.549725  0  2.230193  0
O  O142  1  0.35621374  0.22798369  0.99227054  1  -1.168142  0  -0.313264  -0.552418  0  2.248578  0
O  O143  1  0.39279448  0.29303624  0.78525325  1  -1.136189  0  -0.312614  -0.51184  0  2.056657  0
O  O144  1  0.99885004  0.88265828  0.93988298  1  -1.175864  0  -0.314946  -0.556459  0  2.326695  0
