# generated using pymatgen
data_Ag2H14C9(NO2)3
_symmetry_space_group_name_H-M   'P 1'
_cell_length_a   7.40098647
_cell_length_b   8.73008448
_cell_length_c   12.66066382
_cell_angle_alpha   77.83054397
_cell_angle_beta   76.98656780
_cell_angle_gamma   58.24924476
_symmetry_Int_Tables_number   1
_chemical_formula_structural   Ag2H14C9(NO2)3
_chemical_formula_sum   'Ag4 H28 C18 N6 O12'
_cell_volume   673.51587722
_cell_formula_units_Z   2
loop_
 _symmetry_equiv_pos_site_id
 _symmetry_equiv_pos_as_xyz
  1  'x, y, z'
loop_
 _atom_site_type_symbol
 _atom_site_label
 _atom_site_symmetry_multiplicity
 _atom_site_fract_x
 _atom_site_fract_y
 _atom_site_fract_z
 _atom_site_occupancy
 _atom_site_hle17_bader_spin_density
 _atom_site_hle17_ddec_charge
 _atom_site_hle17_ddec_spin_density
 _atom_site_hle17_ddec_sum_bond_order
 _atom_site_hle17_magmom
 _atom_site_hse06_10hf_bader_spin_density
 _atom_site_hse06_10hf_ddec_charge
 _atom_site_hse06_10hf_ddec_spin_density
 _atom_site_hse06_10hf_ddec_sum_bond_order
 _atom_site_hse06_10hf_magmom
 _atom_site_hse06_bader_spin_density
 _atom_site_hse06_ddec_charge
 _atom_site_hse06_ddec_spin_density
 _atom_site_hse06_ddec_sum_bond_order
 _atom_site_hse06_magmom
 _atom_site_pbe_bader_spin_density
 _atom_site_pbe_cm5_charge
 _atom_site_pbe_ddec_charge
 _atom_site_pbe_ddec_spin_density
 _atom_site_pbe_ddec_sum_bond_order
 _atom_site_pbe_magmom
Ag  Ag0  1  0.79117220  0.14878375  0.26691823  1  0  0.571365  0  1.375798  0  0  0.445275  0  1.819193  0  0  0.479472  0  1.764199  0  0  0.442652  0.421553  0  1.857295  0
Ag  Ag1  1  0.20882992  0.85121346  0.73308155  1  0  0.571352  0  1.375903  0  0  0.445238  0  1.819343  0  0  0.479457  0  1.764315  0  0  0.442649  0.421517  0  1.857441  0
Ag  Ag2  1  0.73636297  0.09336832  0.76975258  1  0  0.614141  0  1.264773  0  0  0.482554  0  1.681654  0  0  0.517514  0  1.627608  0  0  0.462114  0.457456  0  1.719618  0
Ag  Ag3  1  0.26363629  0.90663169  0.23024710  1  0  0.614126  0  1.26479  0  0  0.482523  0  1.681693  0  0  0.517486  0  1.627646  0  0  0.462094  0.457423  0  1.719657  0
H  H4  1  0.80747566  0.61298720  0.55845884  1  0  0.131215  0  0.943311  0  0  0.147851  0  0.991839  0  0  0.150697  0  0.992968  0  0  0.113059  0.145802  0  0.991305  0
H  H5  1  0.19251357  0.38701603  0.44154143  1  0  0.131198  0  0.943288  0  0  0.147846  0  0.991807  0  0  0.150685  0  0.992946  0  0  0.113057  0.145798  0  0.991275  0
H  H6  1  0.75989470  0.76178465  0.71896036  1  0  0.082061  0  0.96727  0  0  0.092152  0  1.029503  0  0  0.09362  0  1.026903  0  0  0.119959  0.090882  0  1.031528  0
H  H7  1  0.24009423  0.23820823  0.28104382  1  0  0.082006  0  0.967335  0  0  0.092188  0  1.029462  0  0  0.093657  0  1.026858  0  0  0.119951  0.090916  0  1.031487  0
H  H8  1  0.73460281  0.85156207  0.28427236  1  0  0.131537  0  0.941105  0  0  0.148593  0  1.010067  0  0  0.151577  0  1.007003  0  0  0.097613  0.146322  0  1.012398  0
H  H9  1  0.26539446  0.14842515  0.71573412  1  0  0.131495  0  0.941119  0  0  0.148549  0  1.010091  0  0  0.151536  0  1.007023  0  0  0.097568  0.146278  0  1.012423  0
H  H10  1  0.00760756  0.72534371  0.30272669  1  0  0.12808  0  0.9499  0  0  0.149142  0  1.01658  0  0  0.151657  0  1.014057  0  0  0.098825  0.147175  0  1.018529  0
H  H11  1  0.99238903  0.27464591  0.69727240  1  0  0.128057  0  0.949845  0  0  0.149101  0  1.016569  0  0  0.15162  0  1.014044  0  0  0.098784  0.147134  0  1.018524  0
H  H12  1  0.83927780  0.63241620  0.35923206  1  0  0.141862  0  0.945244  0  0  0.162209  0  0.998948  0  0  0.164735  0  0.99845  0  0  0.099125  0.160367  0  0.999355  0
H  H13  1  0.16071959  0.36757883  0.64077249  1  0  0.141855  0  0.945223  0  0  0.162167  0  0.99897  0  0  0.164695  0  0.99847  0  0  0.099109  0.160331  0  0.999371  0
H  H14  1  0.33188033  0.22340244  0.02029836  1  0  0.111052  0  0.924075  0  0  0.126135  0  0.985075  0  0  0.129317  0  0.982038  0  0  0.102073  0.123897  0  0.987268  0
H  H15  1  0.66812657  0.77660741  0.97969513  1  0  0.111008  0  0.924006  0  0  0.126137  0  0.984971  0  0  0.129319  0  0.981935  0  0  0.102077  0.123906  0  0.987167  0
H  H16  1  0.36541977  0.40363372  0.94805581  1  0  0.108576  0  0.955301  0  0  0.121506  0  1.02091  0  0  0.123994  0  1.019825  0  0  0.102211  0.119709  0  1.021841  0
H  H17  1  0.63458030  0.59638585  0.05194095  1  0  0.108622  0  0.955365  0  0  0.12153  0  1.021012  0  0  0.124019  0  1.019925  0  0  0.102249  0.119741  0  1.021944  0
H  H18  1  0.02205696  0.62354015  0.05944061  1  0  0.088822  0  0.917486  0  0  0.100904  0  0.972067  0  0  0.103293  0  0.971153  0  0  0.104994  0.099205  0  0.972765  0
H  H19  1  0.97793740  0.37646928  0.94055743  1  0  0.088815  0  0.917588  0  0  0.100866  0  0.972196  0  0  0.103274  0  0.971261  0  0  0.10501  0.099174  0  0.972887  0
H  H20  1  0.63650601  0.33661227  0.43873198  1  0  0.338865  0  0.928954  0  0  0.32107  0  0.991826  0  0  0.329592  0  0.984256  0  0  0.288818  0.314999  0  0.997205  0
H  H21  1  0.36350174  0.66337677  0.56126918  1  0  0.338855  0  0.928897  0  0  0.321072  0  0.991766  0  0  0.329594  0  0.984199  0  0  0.288824  0.314998  0  0.997144  0
H  H22  1  0.63360253  0.32874752  0.57945021  1  0  0.341944  0  0.933674  0  0  0.32475  0  0.99427  0  0  0.333083  0  0.987177  0  0  0.287627  0.318853  0  0.999241  0
H  H23  1  0.36640322  0.67124027  0.42054976  1  0  0.34191  0  0.933631  0  0  0.324709  0  0.994245  0  0  0.333042  0  0.987153  0  0  0.287618  0.318813  0  0.999215  0
H  H24  1  0.74140588  0.16711227  0.97651702  1  0  0.432156  0  0.857637  0  0  0.405589  0  0.913052  0  0  0.416128  0  0.898178  0  0  0.296914  0.398063  0  0.923637  0
H  H25  1  0.25859206  0.83289563  0.02348087  1  0  0.432129  0  0.857767  0  0  0.405582  0  0.913079  0  0  0.416123  0  0.898204  0  0  0.296899  0.398054  0  0.923667  0
H  H26  1  0.76036637  0.31057451  0.87864395  1  0  0.413201  0  0.895688  0  0  0.382801  0  0.958986  0  0  0.392894  0  0.944747  0  0  0.289455  0.375639  0  0.969062  0
H  H27  1  0.23963245  0.68943197  0.12135246  1  0  0.413229  0  0.89568  0  0  0.382819  0  0.958978  0  0  0.392914  0  0.944737  0  0  0.289467  0.375658  0  0.969052  0
H  H28  1  0.43500741  0.48296581  0.27499212  1  0  0.404015  0  0.916683  0  0  0.366421  0  0.993508  0  0  0.377864  0  0.97663  0  0  0.271453  0.358343  0  1.005395  0
H  H29  1  0.56499727  0.51703658  0.72500980  1  0  0.404002  0  0.916684  0  0  0.366391  0  0.993531  0  0  0.377834  0  0.976655  0  0  0.27144  0.358313  0  1.005418  0
H  H30  1  0.62514354  0.51510026  0.28281735  1  0  0.402109  0  0.926036  0  0  0.365601  0  1.000721  0  0  0.377953  0  0.982663  0  0  0.269776  0.356917  0  1.013381  0
H  H31  1  0.37486353  0.48489798  0.71718255  1  0  0.402096  0  0.926068  0  0  0.365614  0  1.000713  0  0  0.377965  0  0.982656  0  0  0.26979  0.356927  0  1.013377  0
C  C32  1  0.72301165  0.08930306  0.52449140  1  0  0.635172  0  3.813677  0  0  0.586398  0  4.079544  0  0  0.614247  0  4.090187  0  0  0.341663  0.567751  0  4.071746  0
C  C33  1  0.27699340  0.91068871  0.47550807  1  0  0.63531  0  3.813555  0  0  0.586348  0  4.079662  0  0  0.614193  0  4.090324  0  0  0.341601  0.5677  0  4.071859  0
C  C34  1  0.79543014  0.84117301  0.44426965  1  0  0.38942  0  3.742584  0  0  0.384818  0  3.990256  0  0  0.402802  0  4.006098  0  0  0.133876  0.372837  0  3.979227  0
C  C35  1  0.20457270  0.15882284  0.55573025  1  0  0.389415  0  3.742678  0  0  0.384828  0  3.990288  0  0  0.402818  0  4.006131  0  0  0.133903  0.372842  0  3.979269  0
C  C36  1  0.78788320  0.74747924  0.54787192  1  0  -0.268701  0  3.695639  0  0  -0.287297  0  3.951629  0  0  -0.303242  0  3.971115  0  0  -0.109665  -0.277245  0  3.939114  0
C  C37  1  0.21211969  0.25251135  0.45212795  1  0  -0.268631  0  3.695784  0  0  -0.287233  0  3.951772  0  0  -0.303169  0  3.971259  0  0  -0.109616  -0.277184  0  3.93926  0
C  C38  1  0.75780280  0.83091959  0.63684165  1  0  0.211707  0  3.721837  0  0  0.165693  0  3.988335  0  0  0.183812  0  4.000228  0  0  0.056881  0.153552  0  3.980516  0
C  C39  1  0.24219368  0.16908055  0.36315751  1  0  0.21178  0  3.721913  0  0  0.165692  0  3.988431  0  0  0.183813  0  4.000318  0  0  0.056882  0.153559  0  3.980604  0
C  C40  1  0.84512626  0.75778777  0.34314522  1  0  -0.394894  0  3.700255  0  0  -0.477253  0  3.938341  0  0  -0.481861  0  3.942186  0  0  -0.243946  -0.473719  0  3.935652  0
C  C41  1  0.15487159  0.24219921  0.65685571  1  0  -0.394806  0  3.700253  0  0  -0.477139  0  3.938346  0  0  -0.481753  0  3.942187  0  0  -0.243855  -0.473603  0  3.935658  0
C  C42  1  0.42355124  0.34494306  0.11206444  1  0  0.697509  0  3.839775  0  0  0.644891  0  4.146057  0  0  0.677458  0  4.141017  0  0  0.206271  0.622751  0  4.148637  0
C  C43  1  0.57645674  0.65506160  0.88793285  1  0  0.69751  0  3.839633  0  0  0.644878  0  4.145935  0  0  0.677445  0  4.14089  0  0  0.206263  0.622753  0  4.148512  0
C  C44  1  0.29771435  0.35997682  0.02708250  1  0  -0.297471  0  3.706512  0  0  -0.343682  0  3.957682  0  0  -0.349406  0  3.966861  0  0  -0.172992  -0.339569  0  3.950958  0
C  C45  1  0.70227538  0.64003563  0.97291876  1  0  -0.297449  0  3.706319  0  0  -0.343678  0  3.95745  0  0  -0.349434  0  3.966688  0  0  -0.173036  -0.339595  0  3.95076  0
C  C46  1  0.05618965  0.48892345  0.04835435  1  0  -0.100672  0  3.615834  0  0  -0.105638  0  3.849473  0  0  -0.11106  0  3.863356  0  0  -0.088564  -0.101817  0  3.839815  0
C  C47  1  0.94381375  0.51107635  0.95164650  1  0  -0.10067  0  3.615581  0  0  -0.105604  0  3.849253  0  0  -0.111035  0  3.863131  0  0  -0.088582  -0.101787  0  3.839605  0
C  C48  1  0.94766508  0.42308847  0.14933949  1  0  0.672362  0  3.844031  0  0  0.619701  0  4.144392  0  0  0.653507  0  4.138845  0  0  0.203867  0.596628  0  4.147303  0
C  C49  1  0.05233159  0.57691945  0.85065695  1  0  0.672265  0  3.844042  0  0  0.619609  0  4.144399  0  0  0.653416  0  4.138857  0  0  0.203827  0.596533  0  4.147317  0
N  N50  1  0.72747353  0.99900223  0.62717618  1  0  -0.477557  0  3.253021  0  0  -0.385311  0  3.539591  0  0  -0.415668  0  3.551211  0  0  -0.359288  -0.364836  0  3.531288  0
N  N51  1  0.27252053  0.00099684  0.37282576  1  0  -0.477589  0  3.252934  0  0  -0.385295  0  3.53959  0  0  -0.415651  0  3.551216  0  0  -0.359276  -0.364819  0  3.531282  0
N  N52  1  0.68233991  0.25945138  0.51207940  1  0  -0.691464  0  3.080434  0  0  -0.650177  0  3.307125  0  0  -0.674748  0  3.304971  0  0  -0.576372  -0.633143  0  3.308288  0
N  N53  1  0.31766131  0.74054201  0.48792261  1  0  -0.69144  0  3.080291  0  0  -0.650097  0  3.307032  0  0  -0.674665  0  3.304885  0  0  -0.576347  -0.63306  0  3.308183  0
N  N54  1  0.76225765  0.01060433  0.43311611  1  0  -0.524265  0  3.195195  0  0  -0.441031  0  3.474927  0  0  -0.470967  0  3.486978  0  0  -0.351091  -0.421065  0  3.466474  0
N  N55  1  0.23774769  0.98938625  0.56688746  1  0  -0.524426  0  3.195063  0  0  -0.441096  0  3.474806  0  0  -0.471052  0  3.48688  0  0  -0.351114  -0.421129  0  3.466351  0
O  O56  1  0.80056635  0.18049194  0.89825195  1  0  -0.808289  0  1.951255  0  0  -0.723219  0  2.155836  0  0  -0.750456  0  2.120396  0  0  -0.582552  -0.703963  0  2.180513  0
O  O57  1  0.19943230  0.81951461  0.10174606  1  0  -0.808355  0  1.951436  0  0  -0.723257  0  2.155954  0  0  -0.750494  0  2.120506  0  0  -0.582579  -0.703998  0  2.180634  0
O  O58  1  0.61298751  0.20900909  0.11411176  1  0  -0.639663  0  1.995007  0  0  -0.568418  0  2.240474  0  0  -0.597334  0  2.227889  0  0  -0.327514  -0.54806  0  2.248439  0
O  O59  1  0.38700377  0.79100847  0.88588780  1  0  -0.639714  0  1.994748  0  0  -0.568489  0  2.240215  0  0  -0.597408  0  2.227633  0  0  -0.327563  -0.548132  0  2.248177  0
O  O60  1  0.49812556  0.50412903  0.32904166  1  0  -0.882775  0  1.915175  0  0  -0.816684  0  2.106439  0  0  -0.839572  0  2.072687  0  0  -0.592516  -0.800104  0  2.129622  0
O  O61  1  0.50187799  0.49586547  0.67095836  1  0  -0.882714  0  1.915179  0  0  -0.816642  0  2.106438  0  0  -0.839531  0  2.072686  0  0  -0.592518  -0.800065  0  2.129634  0
O  O62  1  0.33436097  0.46859342  0.17613187  1  0  -0.661237  0  2.016517  0  0  -0.585652  0  2.237561  0  0  -0.613215  0  2.228194  0  0  -0.317094  -0.566369  0  2.243504  0
O  O63  1  0.66563093  0.53142020  0.82386899  1  0  -0.661291  0  2.016792  0  0  -0.585582  0  2.237716  0  0  -0.613138  0  2.228347  0  0  -0.317036  -0.566304  0  2.243659  0
O  O64  1  0.80256671  0.54108257  0.21008508  1  0  -0.635867  0  2.015317  0  0  -0.574201  0  2.25038  0  0  -0.600458  0  2.239652  0  0  -0.321749  -0.555727  0  2.257118  0
O  O65  1  0.19743298  0.45891988  0.78991025  1  0  -0.635882  0  2.015217  0  0  -0.574231  0  2.250264  0  0  -0.600503  0  2.239561  0  0  -0.3218  -0.555753  0  2.257003  0
O  O66  1  0.00227055  0.25563193  0.16084237  1  0  -0.66427  0  2.088452  0  0  -0.585496  0  2.367205  0  0  -0.617229  0  2.353539  0  0  -0.345855  -0.563091  0  2.375761  0
O  O67  1  0.99773684  0.74437297  0.83916049  1  0  -0.664112  0  2.088651  0  0  -0.585339  0  2.36739  0  0  -0.61707  0  2.353725  0  0  -0.345762  -0.562931  0  2.375944  0
