# generated using pymatgen
data_GdH24C26Cl3O11
_symmetry_space_group_name_H-M   'P 1'
_cell_length_a   8.92296786
_cell_length_b   9.94644947
_cell_length_c   17.76130000
_cell_angle_alpha   76.64902505
_cell_angle_beta   76.25173580
_cell_angle_gamma   69.61181325
_symmetry_Int_Tables_number   1
_chemical_formula_structural   GdH24C26Cl3O11
_chemical_formula_sum   'Gd2 H48 C52 Cl6 O22'
_cell_volume   1416.14224616
_cell_formula_units_Z   2
loop_
 _symmetry_equiv_pos_site_id
 _symmetry_equiv_pos_as_xyz
  1  'x, y, z'
loop_
 _atom_site_type_symbol
 _atom_site_label
 _atom_site_symmetry_multiplicity
 _atom_site_fract_x
 _atom_site_fract_y
 _atom_site_fract_z
 _atom_site_occupancy
 _atom_site_hle17_bader_spin_density
 _atom_site_hle17_ddec_charge
 _atom_site_hle17_ddec_spin_density
 _atom_site_hle17_ddec_sum_bond_order
 _atom_site_hle17_magmom
 _atom_site_hse06_10hf_bader_spin_density
 _atom_site_hse06_10hf_ddec_charge
 _atom_site_hse06_10hf_ddec_spin_density
 _atom_site_hse06_10hf_ddec_sum_bond_order
 _atom_site_hse06_10hf_magmom
 _atom_site_hse06_bader_spin_density
 _atom_site_hse06_ddec_charge
 _atom_site_hse06_ddec_spin_density
 _atom_site_hse06_ddec_sum_bond_order
 _atom_site_hse06_magmom
 _atom_site_pbe_bader_charge
 _atom_site_pbe_bader_spin_density
 _atom_site_pbe_cm5_charge
 _atom_site_pbe_ddec_charge
 _atom_site_pbe_ddec_spin_density
 _atom_site_pbe_ddec_sum_bond_order
 _atom_site_pbe_magmom
Gd  Gd0  1  0.26373193  0.51711772  0.49806261  1  0  2.144983  0  1.818461  0  0  2.048901  0  2.176963  0  0  2.107722  0  2.119935  0  2.17753  0  1.470629  2.004117  0  2.221556  0
Gd  Gd1  1  0.73626892  0.48287975  0.50193761  1  0  2.145003  0  1.818369  0  0  2.048893  0  2.176921  0  0  2.107709  0  2.119906  0  2.177553  0  1.470641  2.004057  0  2.221601  0
H  H2  1  0.46136690  0.49058699  0.21920581  1  0  0.082901  0  0.940406  0  0  0.088451  0  1.013582  0  0  0.090287  0  1.011918  0  0.07769  0  0.10346  0.087333  0  1.01444  0
H  H3  1  0.53863126  0.50941157  0.78079460  1  0  0.082921  0  0.940453  0  0  0.088489  0  1.013608  0  0  0.090328  0  1.01194  0  0.077651  0  0.103467  0.087369  0  1.014463  0
H  H4  1  0.36374420  0.35345248  0.25268916  1  0  0.086197  0  0.92742  0  0  0.099086  0  0.988932  0  0  0.100514  0  0.987541  0  0.05388  0  0.112623  0.09826  0  0.989636  0
H  H5  1  0.63625243  0.64654717  0.74731185  1  0  0.086175  0  0.927402  0  0  0.099046  0  0.988938  0  0  0.100472  0  0.987552  0  0.053898  0  0.112595  0.098219  0  0.989644  0
H  H6  1  0.44442923  0.35027392  0.12628116  1  0  0.104172  0  0.967279  0  0  0.113404  0  1.03175  0  0  0.116568  0  1.030369  0  0.071809  0  0.101838  0.111094  0  1.032976  0
H  H7  1  0.55557089  0.64972898  0.87371901  1  0  0.104241  0  0.96725  0  0  0.113439  0  1.031749  0  0  0.116606  0  1.030369  0  0.071786  0  0.101852  0.111129  0  1.032977  0
H  H8  1  0.44228422  0.33423656  0.99090724  1  0  0.108326  0  0.944246  0  0  0.117328  0  1.006436  0  0  0.120621  0  1.004382  0  0.090166  0  0.101807  0.115131  0  1.007474  0
H  H9  1  0.55771592  0.66576961  0.00909194  1  0  0.108328  0  0.944185  0  0  0.117291  0  1.006428  0  0  0.120585  0  1.004371  0  0.09017  0  0.101797  0.115096  0  1.007464  0
H  H10  1  0.01843417  0.71419477  0.98293896  1  0  0.105712  0  0.956686  0  0  0.111462  0  1.025646  0  0  0.114894  0  1.02308  0  0.096486  0  0.096837  0.108954  0  1.027543  0
H  H11  1  0.98156096  0.28580922  0.01706279  1  0  0.105698  0  0.95663  0  0  0.111445  0  1.025581  0  0  0.114887  0  1.023012  0  0.096533  0  0.096824  0.108937  0  1.02748  0
H  H12  1  0.01874534  0.73016039  0.12019189  1  0  0.11199  0  0.95733  0  0  0.118516  0  1.024771  0  0  0.122421  0  1.022149  0  0.08601  0  0.100596  0.115729  0  1.026666  0
H  H13  1  0.98125169  0.26984143  0.87980992  1  0  0.111983  0  0.957376  0  0  0.118515  0  1.024818  0  0  0.122419  0  1.022193  0  0.086035  0  0.10059  0.115726  0  1.026714  0
H  H14  1  0.49820313  0.90931729  0.43649564  1  0  0.132833  0  0.907112  0  0  0.137934  0  0.972367  0  0  0.141346  0  0.969099  0  0.141064  0  0.130089  0.135301  0  0.975119  0
H  H15  1  0.50179580  0.09068236  0.56350397  1  0  0.132866  0  0.907126  0  0  0.137978  0  0.972367  0  0  0.141389  0  0.9691  0  0.141046  0  0.130112  0.135345  0  0.97512  0
H  H16  1  0.59764825  0.82726726  0.35238345  1  0  0.105822  0  0.928947  0  0  0.113061  0  0.995068  0  0  0.114667  0  0.994829  0  0.126132  0  0.118287  0.111802  0  0.995532  0
H  H17  1  0.40235069  0.17273239  0.64761616  1  0  0.10582  0  0.928951  0  0  0.113061  0  0.99507  0  0  0.114666  0  0.994833  0  0.126132  0  0.118285  0.111802  0  0.995534  0
H  H18  1  0.51849445  0.76281017  0.26381493  1  0  0.097966  0  0.981074  0  0  0.108592  0  1.043414  0  0  0.111855  0  1.041685  0  0.057943  0  0.099853  0.1062  0  1.044847  0
H  H19  1  0.48150755  0.23718731  0.73618572  1  0  0.097997  0  0.981112  0  0  0.108643  0  1.043425  0  0  0.111907  0  1.041695  0  0.057865  0  0.099869  0.106253  0  1.044853  0
H  H20  1  0.48247886  0.77092179  0.12937061  1  0  0.096186  0  0.965346  0  0  0.103031  0  1.03434  0  0  0.106286  0  1.031822  0  0.087344  0  0.094656  0.100868  0  1.035817  0
H  H21  1  0.51752387  0.22907025  0.87063010  1  0  0.096172  0  0.965402  0  0  0.103032  0  1.034375  0  0  0.106287  0  1.031857  0  0.087447  0  0.094675  0.100872  0  1.035847  0
H  H22  1  0.15205388  0.20674860  0.12836709  1  0  0.104679  0  0.945726  0  0  0.114948  0  1.006263  0  0  0.117811  0  1.004804  0  0.076685  0  0.100558  0.112842  0  1.007469  0
H  H23  1  0.84795195  0.79324778  0.87162930  1  0  0.104746  0  0.945666  0  0  0.114978  0  1.006239  0  0  0.11784  0  1.004781  0  0.076672  0  0.100562  0.112872  0  1.007445  0
H  H24  1  0.19068403  0.19942183  0.26375070  1  0  0.100997  0  0.955704  0  0  0.11357  0  1.014045  0  0  0.117005  0  1.012241  0  0.047599  0  0.102771  0.111249  0  1.015238  0
H  H25  1  0.80932067  0.80057781  0.73624540  1  0  0.10096  0  0.955699  0  0  0.113543  0  1.014025  0  0  0.116978  0  1.01222  0  0.047526  0  0.102763  0.111212  0  1.015227  0
H  H26  1  0.00233250  0.10116268  0.52171375  1  0  0.100378  0  0.955845  0  0  0.10618  0  1.025499  0  0  0.10851  0  1.023766  0  0.096049  0  0.115719  0.104581  0  1.0268  0
H  H27  1  0.99766912  0.89883588  0.47828568  1  0  0.100367  0  0.955868  0  0  0.106173  0  1.025523  0  0  0.108498  0  1.023789  0  0.096051  0  0.115707  0.104571  0  1.026821  0
H  H28  1  0.15861840  0.07503307  0.43739301  1  0  0.11433  0  0.933161  0  0  0.122174  0  0.996159  0  0  0.125128  0  0.993463  0  0.111799  0  0.120308  0.119984  0  0.998342  0
H  H29  1  0.84138512  0.92496331  0.56260647  1  0  0.114355  0  0.933187  0  0  0.122204  0  0.996177  0  0  0.125157  0  0.993473  0  0.111794  0  0.120321  0.120002  0  0.99837  0
H  H30  1  0.97430140  0.15839519  0.63046259  1  0  0.12742  0  0.978397  0  0  0.135825  0  1.040923  0  0  0.139766  0  1.038476  0  0.116144  0  0.11049  0.133034  0  1.042752  0
H  H31  1  0.02569987  0.84160772  0.36953576  1  0  0.127373  0  0.978459  0  0  0.135803  0  1.040952  0  0  0.139745  0  1.038504  0  0.116216  0  0.11051  0.133012  0  1.042781  0
H  H32  1  0.94378363  0.14226325  0.77247402  1  0  0.111947  0  0.942736  0  0  0.120871  0  1.004878  0  0  0.123808  0  1.003609  0  0.109548  0  0.102588  0.118707  0  1.005868  0
H  H33  1  0.05621306  0.85774618  0.22752459  1  0  0.111886  0  0.942742  0  0  0.120853  0  1.004831  0  0  0.123787  0  1.003583  0  0.109579  0  0.102556  0.118686  0  1.005824  0
H  H34  1  0.40770351  0.81040808  0.77375176  1  0  0.087512  0  0.977176  0  0  0.097087  0  1.045521  0  0  0.099496  0  1.044087  0  0.068324  0  0.093407  0.09528  0  1.046717  0
H  H35  1  0.59229124  0.18959700  0.22625102  1  0  0.087454  0  0.977213  0  0  0.097025  0  1.045569  0  0  0.099436  0  1.044134  0  0.068309  0  0.093369  0.095201  0  1.046783  0
H  H36  1  0.44247495  0.82754554  0.62793318  1  0  0.123791  0  0.9341  0  0  0.133922  0  0.992067  0  0  0.138111  0  0.989258  0  0.098135  0  0.111411  0.130944  0  0.994112  0
H  H37  1  0.55752090  0.17245302  0.37206975  1  0  0.123798  0  0.934023  0  0  0.133893  0  0.992039  0  0  0.138082  0  0.989231  0  0.098055  0  0.111396  0.130915  0  0.994084  0
H  H38  1  0.27754654  0.40779232  0.71777469  1  0  0.049824  0  0.935271  0  0  0.066837  0  0.997426  0  0  0.066702  0  0.997052  0  0.049242  0  0.098749  0.066853  0  0.997784  0
H  H39  1  0.72245583  0.59220406  0.28222549  1  0  0.049835  0  0.935363  0  0  0.06687  0  0.997472  0  0  0.066737  0  0.997094  0  0.049328  0  0.098744  0.066886  0  0.99783  0
H  H40  1  0.06332964  0.45617074  0.75021508  1  0  0.066491  0  0.94493  0  0  0.07793  0  1.01316  0  0  0.078417  0  1.012701  0  0.071255  0  0.103594  0.07756  0  1.013326  0
H  H41  1  0.93667274  0.54382564  0.24978510  1  0  0.066515  0  0.944935  0  0  0.077945  0  1.01316  0  0  0.078431  0  1.012701  0  0.071249  0  0.103592  0.077576  0  1.013325  0
H  H42  1  0.02963326  0.69303410  0.65807213  1  0  0.065539  0  0.92528  0  0  0.082718  0  0.982073  0  0  0.082737  0  0.982323  0  0.075923  0  0.108849  0.082434  0  0.982388  0
H  H43  1  0.97036759  0.30696337  0.34192809  1  0  0.065502  0  0.925311  0  0  0.082698  0  0.982097  0  0  0.08272  0  0.982346  0  0.075888  0  0.108843  0.082415  0  0.982412  0
H  H44  1  0.17157584  0.67474979  0.71864212  1  0  0.058418  0  0.938645  0  0  0.071061  0  1.006197  0  0  0.070543  0  1.007489  0  0.076448  0  0.098565  0.071536  0  1.005335  0
H  H45  1  0.82842616  0.32524768  0.28135854  1  0  0.058392  0  0.938674  0  0  0.071031  0  1.006247  0  0  0.070513  0  1.007539  0  0.076456  0  0.098543  0.071506  0  1.005385  0
H  H46  1  0.37389906  0.61446157  0.61698528  1  0  0.399755  0  0.887198  0  0  0.375225  0  0.959052  0  0  0.38545  0  0.947475  0  0.658868  0  0.314199  0.368036  0  0.967044  0
H  H47  1  0.62610256  0.38553699  0.38301471  1  0  0.399721  0  0.887264  0  0  0.375245  0  0.959051  0  0  0.385472  0  0.947467  0  0.658866  0  0.314199  0.368057  0  0.967044  0
H  H48  1  0.03216423  0.41992606  0.63872864  1  0  0.401437  0  0.876233  0  0  0.376548  0  0.947253  0  0  0.387128  0  0.935322  0  0.658891  0  0.311642  0.369076  0  0.955574  0
H  H49  1  0.96783702  0.58007358  0.36127070  1  0  0.401468  0  0.876193  0  0  0.376587  0  0.947216  0  0  0.387169  0  0.935279  0  0.65888  0  0.311636  0.369114  0  0.955537  0
C  C50  1  0.30951750  0.49790289  0.33318558  1  0  0.688972  0  3.843792  0  0  0.639274  0  4.147783  0  0  0.671702  0  4.140859  0  1.596121  0  0.213309  0.617377  0  4.151551  0
C  C51  1  0.69048259  0.50209676  0.66681502  1  0  0.688928  0  3.843842  0  0  0.639237  0  4.147806  0  0  0.671665  0  4.140884  0  1.596165  0  0.213317  0.61734  0  4.15157  0
C  C52  1  0.34630686  0.47027749  0.24929612  1  0  -0.058002  0  3.639646  0  0  -0.112023  0  3.896157  0  0  -0.108584  0  3.897006  0  0.443386  0  -0.061212  -0.114508  0  3.895246  0
C  C53  1  0.65369092  0.52972216  0.75070475  1  0  -0.057975  0  3.639701  0  0  -0.112006  0  3.896196  0  0  -0.108571  0  3.897046  0  0.443359  0  -0.061198  -0.114484  0  3.895275  0
C  C54  1  0.22957930  0.54113844  0.13277762  1  0  0.253349  0  3.806418  0  0  0.243302  0  4.068141  0  0  0.253631  0  4.08509  0  0.439999  0  0.075572  0.236197  0  4.056325  0
C  C55  1  0.77041773  0.45886338  0.86722363  1  0  0.253393  0  3.806435  0  0  0.243406  0  4.068055  0  0  0.253733  0  4.085001  0  0.439891  0  0.075622  0.2363  0  4.05624  0
C  C56  1  0.34947037  0.43025637  0.09630177  1  0  -0.187809  0  3.773034  0  0  -0.20691  0  4.026355  0  0  -0.213149  0  4.048613  0  -0.019375  0  -0.109101  -0.202791  0  4.011414  0
C  C57  1  0.65052743  0.56974654  0.90369924  1  0  -0.187941  0  3.773173  0  0  -0.207029  0  4.02646  0  0  -0.213273  0  4.048721  0  -0.019433  0  -0.109153  -0.20291  0  4.011522  0
C  C58  1  0.34891280  0.42075766  0.01904385  1  0  -0.103678  0  3.772729  0  0  -0.124633  0  4.021526  0  0  -0.125262  0  4.042396  0  0.02764  0  -0.095674  -0.123792  0  4.006818  0
C  C59  1  0.65108425  0.57924742  0.98095697  1  0  -0.103649  0  3.772775  0  0  -0.124575  0  4.021559  0  0  -0.125202  0  4.042428  0  0.027532  0  -0.095675  -0.123736  0  4.006852  0
C  C60  1  0.23003031  0.52264867  0.97887676  1  0  0.113438  0  3.80491  0  0  0.124154  0  4.071532  0  0  0.124957  0  4.094589  0  -0.048689  0  -0.00152  0.123214  0  4.056081  0
C  C61  1  0.76996635  0.47735424  0.02112439  1  0  0.113392  0  3.805111  0  0  0.124118  0  4.071707  0  0  0.124919  0  4.094766  0  -0.048541  0  -0.00155  0.123178  0  4.056256  0
C  C62  1  0.11021827  0.63399491  0.01484005  1  0  -0.111976  0  3.791823  0  0  -0.136166  0  4.047069  0  0  -0.136548  0  4.067336  0  0.058761  0  -0.099437  -0.135576  0  4.033379  0
C  C63  1  0.88977723  0.36600800  0.98516181  1  0  -0.111988  0  3.791805  0  0  -0.136155  0  4.047018  0  0  -0.136561  0  4.067317  0  0.058791  0  -0.099397  -0.135565  0  4.03333  0
C  C64  1  0.11028679  0.64296748  0.09173344  1  0  -0.164191  0  3.757126  0  0  -0.18803  0  4.018676  0  0  -0.192414  0  4.036989  0  -0.014656  0  -0.103929  -0.185221  0  4.006016  0
C  C65  1  0.88971177  0.35703325  0.90826777  1  0  -0.164158  0  3.757048  0  0  -0.188018  0  4.018569  0  0  -0.192402  0  4.036883  0  -0.014661  0  -0.103953  -0.185207  0  4.005907  0
C  C66  1  0.40375745  0.74938500  0.42437222  1  0  0.713975  0  3.819074  0  0  0.661151  0  4.132239  0  0  0.695281  0  4.122236  0  1.577437  0  0.216783  0.637852  0  4.138229  0
C  C67  1  0.59624417  0.25061356  0.57562721  1  0  0.713916  0  3.819078  0  0  0.661092  0  4.132248  0  0  0.69522  0  4.122247  0  1.57741  0  0.216706  0.637796  0  4.138236  0
C  C68  1  0.47776498  0.87011907  0.38804768  1  0  -0.087587  0  3.625554  0  0  -0.138641  0  3.880057  0  0  -0.136846  0  3.881638  0  0.378377  0  -0.058181  -0.139985  0  3.87923  0
C  C69  1  0.52223434  0.12987949  0.61195147  1  0  -0.087603  0  3.625524  0  0  -0.138663  0  3.880033  0  0  -0.136866  0  3.881629  0  0.378403  0  -0.058202  -0.140009  0  3.879208  0
C  C70  1  0.35838085  0.98243062  0.27225211  1  0  0.275965  0  3.801479  0  0  0.263899  0  4.065555  0  0  0.275613  0  4.081422  0  0.410842  0  0.081935  0.256058  0  4.054615  0
C  C71  1  0.64162270  0.01756903  0.72774582  1  0  0.275774  0  3.80182  0  0  0.263771  0  4.065832  0  0  0.275485  0  4.081703  0  0.410813  0  0.08188  0.255929  0  4.054888  0
C  C72  1  0.43898062  0.86105084  0.23474775  1  0  -0.179182  0  3.752721  0  0  -0.197741  0  4.002037  0  0  -0.203403  0  4.022206  0  0.064701  0  -0.108108  -0.193939  0  3.988617  0
C  C73  1  0.56102407  0.13894555  0.76525160  1  0  -0.179248  0  3.752902  0  0  -0.197848  0  4.002208  0  0  -0.20351  0  4.022378  0  0.064899  0  -0.108135  -0.194045  0  3.988791  0
C  C74  1  0.41787834  0.86487402  0.15879376  1  0  -0.107455  0  3.784895  0  0  -0.129372  0  4.035115  0  0  -0.129163  0  4.054518  0  -0.004495  0  -0.100231  -0.129725  0  4.022105  0
C  C75  1  0.58212519  0.13512237  0.84120685  1  0  -0.107382  0  3.784747  0  0  -0.129305  0  4.035006  0  0  -0.129096  0  4.054411  0  -0.004654  0  -0.100242  -0.129661  0  4.022  0
C  C76  1  0.31542334  0.98915733  0.12059800  1  0  0.110114  0  3.827783  0  0  0.120825  0  4.094657  0  0  0.121542  0  4.117489  0  -0.041936  0  -0.004251  0.120161  0  4.079272  0
C  C77  1  0.68458325  0.01083688  0.87940084  1  0  0.110131  0  3.827805  0  0  0.120806  0  4.094728  0  0  0.121523  0  4.117563  0  -0.041773  0  -0.004253  0.120141  0  4.079346  0
C  C78  1  0.23274955  0.11014721  0.15809801  1  0  -0.107739  0  3.78886  0  0  -0.128882  0  4.03898  0  0  -0.129457  0  4.060323  0  0.02594  0  -0.096489  -0.128645  0  4.024939  0
C  C79  1  0.76725668  0.88985135  0.84189974  1  0  -0.107873  0  3.789046  0  0  -0.128979  0  4.039179  0  0  -0.129554  0  4.060527  0  0.025895  0  -0.096497  -0.128742  0  4.025135  0
C  C80  1  0.25481017  0.10637186  0.23351306  1  0  -0.171386  0  3.755689  0  0  -0.193427  0  4.014897  0  0  -0.198787  0  4.034308  0  0.024374  0  -0.104299  -0.190081  0  4.002006  0
C  C81  1  0.74519453  0.89362778  0.76648417  1  0  -0.171219  0  3.755654  0  0  -0.193263  0  4.014793  0  0  -0.198624  0  4.034206  0  0.024368  0  -0.104252  -0.18991  0  4.001905  0
C  C82  1  0.13095994  0.25717395  0.48926779  1  0  0.732779  0  3.819813  0  0  0.688551  0  4.11988  0  0  0.72248  0  4.109865  0  1.58968  0  0.231279  0.665476  0  4.125755  0
C  C83  1  0.86904281  0.74282135  0.51073249  1  0  0.732645  0  3.819942  0  0  0.688462  0  4.119959  0  0  0.722385  0  4.109946  0  1.589723  0  0.23127  0.665379  0  4.125841  0
C  C84  1  0.12674217  0.10293676  0.49679958  1  0  -0.094698  0  3.624739  0  0  -0.148242  0  3.878068  0  0  -0.145897  0  3.878114  0  0.414353  0  -0.066168  -0.15009  0  3.878255  0
C  C85  1  0.87325983  0.89706071  0.50319994  1  0  -0.094665  0  3.624806  0  0  -0.148234  0  3.878105  0  0  -0.145857  0  3.878124  0  0.414389  0  -0.06613  -0.150059  0  3.878278  0
C  C86  1  0.21176047  0.99283376  0.61971088  1  0  0.264937  0  3.78773  0  0  0.255594  0  4.048424  0  0  0.266148  0  4.064206  0  0.416973  0  0.081153  0.248326  0  4.038287  0
C  C87  1  0.78823809  0.00716697  0.38028976  1  0  0.264852  0  3.787802  0  0  0.255431  0  4.048571  0  0  0.265997  0  4.06435  0  0.417414  0  0.081094  0.248165  0  4.038436  0
C  C88  1  0.07152293  0.08179566  0.66013417  1  0  -0.181947  0  3.722296  0  0  -0.201981  0  3.973088  0  0  -0.206704  0  3.991864  0  -0.053866  0  -0.10654  -0.199197  0  3.961431  0
C  C89  1  0.92847528  0.91820942  0.33986539  1  0  -0.181905  0  3.722311  0  0  -0.201926  0  3.973103  0  0  -0.206648  0  3.991877  0  -0.05386  0  -0.106571  -0.199142  0  3.961446  0
C  C90  1  0.05286105  0.07247523  0.74129779  1  0  -0.100648  0  3.76601  0  0  -0.121608  0  4.015421  0  0  -0.122089  0  4.035844  0  0.052012  0  -0.097918  -0.121377  0  4.001958  0
C  C91  1  0.94713525  0.92753203  0.25870115  1  0  -0.100636  0  3.76601  0  0  -0.121625  0  4.015423  0  0  -0.122117  0  4.035836  0  0.052111  0  -0.097896  -0.121393  0  4.001962  0
C  C92  1  0.17363173  0.97413202  0.78153180  1  0  0.099096  0  3.846303  0  0  0.111503  0  4.110043  0  0  0.112137  0  4.133663  0  -0.031238  0  -0.007856  0.110941  0  4.094207  0
C  C93  1  0.82636304  0.02587632  0.21846944  1  0  0.099203  0  3.84628  0  0  0.111587  0  4.11006  0  0  0.112221  0  4.13368  0  -0.030911  0  -0.00782  0.111027  0  4.094218  0
C  C94  1  0.31361457  0.88486719  0.74138185  1  0  -0.129362  0  3.818806  0  0  -0.153587  0  4.07623  0  0  -0.154563  0  4.097183  0  -0.060779  0  -0.107435  -0.15309  0  4.062083  0
C  C95  1  0.68637902  0.11513790  0.25862051  1  0  -0.129358  0  3.81891  0  0  -0.153572  0  4.076321  0  0  -0.154547  0  4.097273  0  -0.061167  0  -0.107474  -0.15306  0  4.062182  0
C  C96  1  0.33290484  0.89407565  0.66058839  1  0  -0.159931  0  3.74358  0  0  -0.18319  0  4.005888  0  0  -0.18614  0  4.021862  0  0.056967  0  -0.10176  -0.181112  0  3.995185  0
C  C97  1  0.66709103  0.10592617  0.33941412  1  0  -0.159849  0  3.743517  0  0  -0.183043  0  4.005833  0  0  -0.185994  0  4.021806  0  0.05647  0  -0.10163  -0.180963  0  3.995122  0
C  C98  1  0.15915769  0.46992528  0.70000511  1  0  0.096415  0  3.650609  0  0  0.035417  0  3.932225  0  0  0.042645  0  3.937177  0  0.416591  0  -0.081919  0.030701  0  3.928196  0
C  C99  1  0.84084469  0.53007110  0.29999507  1  0  0.096329  0  3.650821  0  0  0.035373  0  3.932379  0  0  0.042602  0  3.937332  0  0.416542  0  -0.081912  0.030654  0  3.928351  0
C  C100  1  0.14929259  0.62846831  0.67327171  1  0  0.10049  0  3.639199  0  0  0.04043  0  3.916803  0  0  0.047182  0  3.922965  0  0.374713  0  -0.079814  0.035564  0  3.912885  0
C  C101  1  0.85070941  0.37152916  0.32672894  1  0  0.100552  0  3.639216  0  0  0.040449  0  3.916873  0  0  0.0472  0  3.923036  0  0.374992  0  -0.079813  0.035583  0  3.912955  0
Cl  Cl102  1  0.23204179  0.51397286  0.88172683  1  0  -0.121939  0  1.32847  0  0  -0.099182  0  1.554932  0  0  -0.103153  0  1.550925  0  -0.25726  0  -0.004398  -0.096422  0  1.557751  0
Cl  Cl103  1  0.76795260  0.48603657  0.11827318  1  0  -0.121895  0  1.328566  0  0  -0.099144  0  1.555022  0  0  -0.103115  0  1.551018  0  -0.257256  0  -0.004364  -0.096384  0  1.557842  0
Cl  Cl104  1  0.29134190  0.99421541  0.02594050  1  0  -0.120287  0  1.39964  0  0  -0.106055  0  1.637166  0  0  -0.110099  0  1.633143  0  -0.227216  0  -0.021928  -0.102828  0  1.639108  0
Cl  Cl105  1  0.70865850  0.00577336  0.97405978  1  0  -0.120253  0  1.399659  0  0  -0.106009  0  1.637204  0  0  -0.110052  0  1.633182  0  -0.227294  0  -0.021907  -0.102781  0  1.639146  0
Cl  Cl106  1  0.15098596  0.96060902  0.88253860  1  0  -0.114144  0  1.400384  0  0  -0.093726  0  1.637057  0  0  -0.097936  0  1.63284  0  -0.242825  0  -0.014333  -0.090728  0  1.640153  0
Cl  Cl107  1  0.84900497  0.03940041  0.11746183  1  0  -0.11421  0  1.400286  0  0  -0.093793  0  1.636967  0  0  -0.098006  0  1.632762  0  -0.242798  0  -0.014363  -0.090795  0  1.64006  0
O  O108  1  0.16630583  0.55226556  0.36767941  1  0  -0.648286  0  2.044505  0  0  -0.598472  0  2.276647  0  0  -0.623647  0  2.269334  0  -1.182135  0  -0.323645  -0.580824  0  2.281181  0
O  O109  1  0.83369426  0.44773409  0.63232119  1  0  -0.648266  0  2.044531  0  0  -0.598461  0  2.276667  0  0  -0.623635  0  2.269356  0  -1.182158  0  -0.323653  -0.580809  0  2.281201  0
O  O110  1  0.49359766  0.63166535  0.46012478  1  0  -0.796576  0  2.146666  0  0  -0.750703  0  2.415771  0  0  -0.779233  0  2.405674  0  -1.217051  0  -0.445114  -0.730012  0  2.422077  0
O  O111  1  0.50640281  0.36833321  0.53987479  1  0  -0.796533  0  2.146643  0  0  -0.750659  0  2.41574  0  0  -0.779189  0  2.405646  0  -1.217012  0  -0.445096  -0.729955  0  2.422009  0
O  O112  1  0.14853130  0.41015015  0.63572576  1  0  -0.61482  0  2.128708  0  0  -0.564657  0  2.371707  0  0  -0.583342  0  2.361057  0  -1.164349  0  -0.435938  -0.550735  0  2.378502  0
O  O113  1  0.85147185  0.58984732  0.36427419  1  0  -0.614792  0  2.128736  0  0  -0.56466  0  2.371719  0  0  -0.583346  0  2.361068  0  -1.164327  0  -0.435913  -0.55073  0  2.378514  0
O  O114  1  0.26001354  0.76177746  0.42165173  1  0  -0.645157  0  2.006202  0  0  -0.605814  0  2.252154  0  0  -0.630563  0  2.24441  0  -1.176525  0  -0.341436  -0.588507  0  2.257162  0
O  O115  1  0.73998424  0.23822218  0.57834858  1  0  -0.645145  0  2.006278  0  0  -0.605745  0  2.252145  0  0  -0.630492  0  2.244401  0  -1.176532  0  -0.34139  -0.588435  0  2.257152  0
O  O116  1  0.25831644  0.28017283  0.49452833  1  0  -0.674603  0  2.002746  0  0  -0.63494  0  2.24743  0  0  -0.660526  0  2.238415  0  -1.180484  0  -0.371984  -0.616844  0  2.253356  0
O  O117  1  0.74168977  0.71982247  0.50547041  1  0  -0.674536  0  2.002792  0  0  -0.63489  0  2.247469  0  0  -0.660477  0  2.238457  0  -1.180436  0  -0.371989  -0.616785  0  2.253401  0
O  O118  1  0.26510372  0.64150757  0.60233053  1  0  -0.61745  0  2.166615  0  0  -0.567934  0  2.410038  0  0  -0.586433  0  2.399119  0  -1.166504  0  -0.447951  -0.554565  0  2.417381  0
O  O119  1  0.73489675  0.35849099  0.39766960  1  0  -0.617414  0  2.166653  0  0  -0.567969  0  2.410077  0  0  -0.586467  0  2.39916  0  -1.166811  0  -0.447956  -0.554594  0  2.41742  0
O  O120  1  0.42995300  0.45810679  0.36929147  1  0  -0.70396  0  2.047501  0  0  -0.655206  0  2.288868  0  0  -0.682453  0  2.281727  0  -1.206214  0  -0.362076  -0.635946  0  2.293188  0
O  O121  1  0.57004593  0.54189285  0.63070814  1  0  -0.703964  0  2.047488  0  0  -0.655182  0  2.288839  0  0  -0.682428  0  2.281699  0  -1.206228  0  -0.362091  -0.635916  0  2.293159  0
O  O122  1  0.37335671  0.99184019  0.34570002  1  0  -0.260296  0  2.372305  0  0  -0.19425  0  2.606926  0  0  -0.211523  0  2.610274  0  -1.085467  0  -0.176789  -0.182056  0  2.60423  0
O  O123  1  0.62664223  0.00815946  0.65429959  1  0  -0.260237  0  2.372444  0  0  -0.19424  0  2.607072  0  0  -0.211515  0  2.610425  0  -1.085505  0  -0.17677  -0.182041  0  2.604371  0
O  O124  1  0.00119757  0.35760069  0.47484571  1  0  -0.769245  0  2.14426  0  0  -0.730312  0  2.418156  0  0  -0.757945  0  2.407013  0  -1.219562  0  -0.430338  -0.710159  0  2.424942  0
O  O125  1  0.99880595  0.64239569  0.52515546  1  0  -0.769201  0  2.144364  0  0  -0.73027  0  2.418204  0  0  -0.757892  0  2.407039  0  -1.219715  0  -0.430342  -0.710125  0  2.424995  0
O  O126  1  0.24261963  0.99561337  0.53994171  1  0  -0.247545  0  2.327084  0  0  -0.182638  0  2.561704  0  0  -0.198606  0  2.563438  0  -1.068161  0  -0.176582  -0.171186  0  2.56019  0
O  O127  1  0.75738043  0.00438302  0.46005875  1  0  -0.2475  0  2.327116  0  0  -0.182559  0  2.561763  0  0  -0.198561  0  2.563502  0  -1.068149  0  -0.176586  -0.171115  0  2.560243  0
O  O128  1  0.21643988  0.55862485  0.20907557  1  0  -0.259273  0  2.341767  0  0  -0.190506  0  2.573506  0  0  -0.2067  0  2.575609  0  -1.081014  0  -0.179192  -0.178889  0  2.571434  0
O  O129  1  0.78355945  0.44137697  0.79092596  1  0  -0.259267  0  2.341784  0  0  -0.190528  0  2.573514  0  0  -0.206714  0  2.575609  0  -1.08096  0  -0.179178  -0.178911  0  2.571441  0
