# generated using pymatgen
data_CuH22C17N2O5
_symmetry_space_group_name_H-M   'P 1'
_cell_length_a   6.31093531
_cell_length_b   10.78014371
_cell_length_c   13.78791155
_cell_angle_alpha   100.13510790
_cell_angle_beta   89.99910884
_cell_angle_gamma   89.99905367
_symmetry_Int_Tables_number   1
_chemical_formula_structural   CuH22C17N2O5
_chemical_formula_sum   'Cu2 H44 C34 N4 O10'
_cell_volume   923.39263179
_cell_formula_units_Z   2
loop_
 _symmetry_equiv_pos_site_id
 _symmetry_equiv_pos_as_xyz
  1  'x, y, z'
loop_
 _atom_site_type_symbol
 _atom_site_label
 _atom_site_symmetry_multiplicity
 _atom_site_fract_x
 _atom_site_fract_y
 _atom_site_fract_z
 _atom_site_occupancy
 _atom_site_hle17_ddec_charge
 _atom_site_hle17_ddec_spin_density
 _atom_site_hle17_ddec_sum_bond_order
 _atom_site_hle17_magmom
 _atom_site_hse06_10hf_ddec_charge
 _atom_site_hse06_10hf_ddec_spin_density
 _atom_site_hse06_10hf_ddec_sum_bond_order
 _atom_site_hse06_10hf_magmom
 _atom_site_hse06_ddec_charge
 _atom_site_hse06_ddec_spin_density
 _atom_site_hse06_ddec_sum_bond_order
 _atom_site_hse06_magmom
 _atom_site_pbe_cm5_charge
 _atom_site_pbe_ddec_charge
 _atom_site_pbe_ddec_spin_density
 _atom_site_pbe_ddec_sum_bond_order
 _atom_site_pbe_magmom
Cu  Cu0  1  0.14932987  0.93357840  0.88769437  1  0.889992  0.709628  1.806285  0.494  0.874629  0.789416  2.198638  0.604  0.963106  0.869624  2.128809  0.69  0.757229  0.819305  0.725052  2.249199  0.543
Cu  Cu1  1  0.64931612  0.06641464  0.11230701  1  0.890055  -0.709626  1.806106  -0.494  0.874647  -0.789414  2.198528  -0.604  0.963211  -0.869633  2.128631  -0.69  0.757225  0.819286  -0.725055  2.24915  -0.543
H  H2  1  0.44536175  0.67475313  0.74911290  1  0.102766  9e-06  0.939318  0.0  0.125571  -2.7e-05  0.996751  0.0  0.126407  -4e-05  0.997253  0.0  0.087758  0.124771  -9e-06  0.99666  0.0
H  H3  1  0.94535178  0.32525533  0.25089791  1  0.102759  -1.1e-05  0.939255  0.0  0.125522  2.7e-05  0.996768  0.0  0.126354  4e-05  0.997278  0.0  0.087705  0.124723  9e-06  0.996678  0.0
H  H4  1  0.47309383  0.80313097  0.68496260  1  0.086571  -9.6e-05  0.989046  0.0  0.104409  -8.4e-05  1.059746  0.0  0.104065  -7.9e-05  1.062733  0.0  0.07504  0.104665  -8.3e-05  1.057698  0.0
H  H5  1  0.97309008  0.19688377  0.31504960  1  0.086652  9e-05  0.989053  0.0  0.104466  8.4e-05  1.059749  0.0  0.104122  7.8e-05  1.062739  0.0  0.075093  0.104736  8.2e-05  1.05769  0.0
H  H6  1  0.63077080  0.79699582  0.79112045  1  0.114556  0.000183  0.969729  0.0  0.129929  6.7e-05  1.037472  0.0  0.132526  -1e-05  1.035983  0.0  0.085685  0.127852  0.000153  1.03886  0.0
H  H7  1  0.13076658  0.20301157  0.20888738  1  0.114545  -0.000184  0.969799  0.0  0.13  -6.7e-05  1.037406  0.0  0.132597  1e-05  1.03592  0.0  0.08575  0.127926  -0.000153  1.038795  0.0
H  H8  1  0.31834386  0.10669191  0.67980155  1  0.075744  0.008599  0.94282  0.011  0.082815  0.005448  1.010708  0.007  0.082107  0.003992  1.009208  0.005  0.12331  0.083063  0.006434  1.011937  0.007
H  H9  1  0.81833917  0.89330011  0.32019268  1  0.075799  -0.008599  0.942809  -0.011  0.082846  -0.005448  1.010755  -0.007  0.082137  -0.003991  1.009255  -0.005  0.123343  0.083096  -0.006433  1.011988  -0.007
H  H10  1  0.28093382  0.98766679  0.52489421  1  0.110673  0.000525  0.965052  0.0  0.114873  0.000324  1.0366  0.0  0.117461  0.000214  1.034934  0.0  0.108266  0.112994  0.000426  1.037741  0.0
H  H11  1  0.78093305  0.01232660  0.47510555  1  0.110702  -0.000522  0.964934  0.0  0.114884  -0.000324  1.036504  0.0  0.117514  -0.000214  1.034793  0.0  0.108277  0.113003  -0.000426  1.037649  0.0
H  H12  1  0.49138963  0.52596590  0.60310227  1  0.101302  -1e-06  0.95977  0.0  0.122401  -2e-06  1.021196  0.0  0.123777  -2e-06  1.02087  0.0  0.088035  0.121325  -1e-06  1.02153  0.0
H  H13  1  0.99138474  0.47405145  0.39690726  1  0.101282  1e-06  0.959785  0.0  0.122402  1e-06  1.02119  0.0  0.123766  2e-06  1.020881  0.0  0.088054  0.121324  1e-06  1.021529  0.0
H  H14  1  0.71165795  0.51988659  0.52331263  1  0.095702  -4e-06  0.965081  0.0  0.116592  -1e-06  1.029112  0.0  0.11729  1e-06  1.030204  0.0  0.084293  0.116098  -0.0  1.028298  0.0
H  H15  1  0.21165260  0.48012268  0.47669198  1  0.095684  3e-06  0.9651  0.0  0.116599  1e-06  1.029117  0.0  0.117296  -1e-06  1.030212  0.0  0.084293  0.116105  0.0  1.028303  0.0
H  H16  1  0.52098707  0.64332108  0.52806908  1  0.095082  -2e-05  0.948733  0.0  0.116001  -8e-06  1.009707  0.0  0.116833  -4e-06  1.010627  0.0  0.082905  0.115464  -1.2e-05  1.008973  0.0
H  H17  1  0.02097746  0.35669511  0.47194002  1  0.095035  2.3e-05  0.948822  0.0  0.115961  8e-06  1.009791  0.0  0.116797  5e-06  1.01071  0.0  0.082884  0.115426  1.2e-05  1.009053  0.0
H  H18  1  0.85939077  0.67222958  0.46782599  1  0.110652  0.000697  0.973188  0.001  0.116725  0.000344  1.040939  0.0  0.120216  0.000215  1.037468  0.0  0.109907  0.114137  0.000459  1.043598  0.001
H  H19  1  0.35938469  0.32777422  0.53217827  1  0.110669  -0.000695  0.973187  -0.001  0.116731  -0.000344  1.04094  0.0  0.120222  -0.000215  1.037469  0.0  0.109886  0.114141  -0.000459  1.043598  -0.001
H  H20  1  0.92745212  0.62550341  0.77963445  1  0.113797  0.000229  0.963268  0.0  0.132822  0.000155  1.024439  0.0  0.135432  7.5e-05  1.023378  0.0  0.087723  0.130748  0.000243  1.025455  0.0
H  H21  1  0.42744897  0.37449395  0.22036408  1  0.113787  -0.000231  0.963275  0.0  0.132832  -0.000155  1.024419  0.0  0.135444  -7.5e-05  1.023358  0.0  0.087715  0.130768  -0.000243  1.025426  0.0
H  H22  1  0.96389865  0.51803036  0.66693212  1  0.096039  -4e-06  0.94913  0.0  0.117894  4e-06  1.009648  0.0  0.118441  -1e-06  1.010902  0.0  0.082572  0.117535  7e-06  1.008687  0.0
H  H23  1  0.46389338  0.48197034  0.33306517  1  0.096043  4e-06  0.949188  0.0  0.117901  -4e-06  1.0097  0.0  0.118449  1e-06  1.010956  0.0  0.082598  0.117545  -6e-06  1.008738  0.0
H  H24  1  0.73298569  0.50752219  0.73862560  1  0.106109  7e-05  0.957818  0.0  0.126177  3e-05  1.020301  0.0  0.126952  1.6e-05  1.020965  0.0  0.086239  0.125604  4e-05  1.019771  0.0
H  H25  1  0.23298889  0.49248118  0.26137587  1  0.106176  -7.1e-05  0.957883  0.0  0.126237  -3e-05  1.020358  0.0  0.12701  -1.6e-05  1.021027  0.0  0.086258  0.125664  -4e-05  1.01983  0.0
H  H26  1  0.49080269  0.19120014  0.82814919  1  0.100629  0.00225  0.907243  0.003  0.10644  0.00171  0.967823  0.002  0.108727  0.00135  0.965958  0.001  0.122294  0.104693  0.001934  0.96936  0.002
H  H27  1  0.99079119  0.80878895  0.17184776  1  0.100608  -0.002252  0.907133  -0.003  0.106445  -0.00171  0.967704  -0.002  0.108734  -0.00135  0.965838  -0.001  0.122307  0.104699  -0.001934  0.969244  -0.002
H  H28  1  0.01062847  0.40222245  0.82410866  1  0.107096  -4.1e-05  0.954363  0.0  0.132458  -2.1e-05  1.010095  0.0  0.133221  -1.7e-05  1.011334  0.0  0.0911  0.131729  -2.5e-05  1.009411  0.0
H  H29  1  0.51062757  0.59776747  0.17588747  1  0.107126  4e-05  0.954419  0.0  0.132491  2.1e-05  1.010121  0.0  0.133257  1.7e-05  1.011356  0.0  0.091152  0.131761  2.6e-05  1.009443  0.0
H  H30  1  0.98796856  0.24094977  0.77174906  1  0.10571  -8.5e-05  0.975266  0.0  0.121106  -4.1e-05  1.044264  0.0  0.122829  -4e-05  1.043634  0.0  0.081271  0.119954  -3.9e-05  1.044621  0.0
H  H31  1  0.48796372  0.75904312  0.22825060  1  0.105739  8.6e-05  0.97526  0.0  0.121124  4.1e-05  1.044274  0.0  0.122847  4e-05  1.043642  0.0  0.08128  0.119976  3.9e-05  1.044629  0.0
H  H32  1  0.21731333  0.32831263  0.74783723  1  0.101015  2.9e-05  0.968665  0.0  0.120501  2.4e-05  1.03363  0.0  0.12185  1.5e-05  1.033346  0.0  0.082795  0.119614  3.3e-05  1.033722  0.0
H  H33  1  0.71730933  0.67167773  0.25215677  1  0.100962  -2.8e-05  0.968698  0.0  0.120539  -2.4e-05  1.033543  0.0  0.121878  -1.5e-05  1.033269  0.0  0.082793  0.119654  -3.3e-05  1.033635  0.0
H  H34  1  0.25011889  0.48138614  0.95776636  1  0.102014  0.000153  0.962238  0.0  0.125352  8.6e-05  1.02163  0.0  0.1259  5.4e-05  1.022747  0.0  0.089692  0.124933  0.000121  1.020839  0.0
H  H35  1  0.75011686  0.51860667  0.04222557  1  0.102064  -0.000153  0.962301  0.0  0.125373  -8.6e-05  1.021702  0.0  0.125918  -5.4e-05  1.022822  0.0  0.089684  0.124952  -0.00012  1.020913  0.0
H  H36  1  0.47138460  0.41407569  0.88757892  1  0.104624  3e-06  0.942027  0.0  0.127069  3.2e-05  1.000843  0.0  0.12837  2.7e-05  1.000941  0.0  0.088297  0.126166  3.3e-05  1.00076  0.0
H  H37  1  0.97138461  0.58591644  0.11240770  1  0.104599  -2e-06  0.942168  0.0  0.127025  -3.2e-05  1.00097  0.0  0.128321  -2.7e-05  1.001069  0.0  0.088301  0.126125  -3.3e-05  1.000887  0.0
H  H38  1  0.42840478  0.38173926  0.00841098  1  0.109243  -0.000157  0.967852  0.0  0.127786  -0.000103  1.03229  0.0  0.130117  -7.3e-05  1.031487  0.0  0.086886  0.126057  -0.000136  1.032896  0.0
H  H39  1  0.92840411  0.61825431  0.99157833  1  0.109219  0.000158  0.967724  0.0  0.127755  0.000103  1.032173  0.0  0.130083  7.3e-05  1.031371  0.0  0.086865  0.126029  0.000136  1.032775  0.0
H  H40  1  0.10689115  0.24916573  0.04207802  1  0.103508  4.4e-05  0.952194  0.0  0.12677  5.6e-05  1.011147  0.0  0.127606  4.4e-05  1.012138  0.0  0.086661  0.125953  6.5e-05  1.010778  0.0
H  H41  1  0.60688627  0.75083533  0.95792113  1  0.103502  -4.4e-05  0.952173  0.0  0.126781  -5.6e-05  1.011113  0.0  0.127608  -4.4e-05  1.012114  0.0  0.086661  0.125965  -6.5e-05  1.010735  0.0
H  H42  1  0.94007503  0.18017664  0.94335621  1  0.109151  5e-06  0.972963  0.0  0.122607  1.5e-05  1.047187  0.0  0.12438  -2.4e-05  1.046113  0.0  0.084364  0.121077  7.1e-05  1.04828  0.0
H  H43  1  0.44006638  0.81982340  0.05664841  1  0.109108  -5e-06  0.972993  0.0  0.12261  -1.6e-05  1.047158  0.0  0.124361  2.5e-05  1.046105  0.0  0.084376  0.12108  -7.1e-05  1.048253  0.0
H  H44  1  0.93208583  0.34425709  0.98602247  1  0.108598  2.4e-05  0.959801  0.0  0.133856  1.7e-05  1.015957  0.0  0.135307  1.2e-05  1.016334  0.0  0.090463  0.132839  1.2e-05  1.015634  0.0
H  H45  1  0.43208013  0.65574775  0.01397996  1  0.108543  -2.7e-05  0.959841  0.0  0.133797  -1.7e-05  1.015999  0.0  0.135248  -1.2e-05  1.016374  0.0  0.09046  0.132779  -1.2e-05  1.015677  0.0
C  C46  1  0.56000033  0.74026795  0.72546185  1  -0.346196  0.000535  3.650902  0.001  -0.427507  0.000159  3.89242  0.0  -0.430319  -3e-05  3.902189  0.0  -0.250323  -0.425343  0.00036  3.885971  0.001
C  C47  1  0.05999385  0.25974120  0.27454673  1  -0.346192  -0.000522  3.650925  -0.001  -0.427571  -0.000159  3.892401  0.0  -0.43039  2.9e-05  3.902173  0.0  -0.250364  -0.425419  -0.00036  3.885946  -0.001
C  C48  1  0.13764934  0.93424248  0.65444351  1  -0.093091  0.009263  3.793306  0.012  -0.079903  0.004202  4.040519  0.006  -0.097805  0.002927  4.066659  0.005  -0.025019  -0.068063  0.005278  4.022687  0.007
C  C49  1  0.63765937  0.06576011  0.34555853  1  -0.093138  -0.009269  3.793307  -0.012  -0.079954  -0.004204  4.040514  -0.006  -0.097854  -0.002929  4.066663  -0.005  -0.025016  -0.068119  -0.005279  4.022689  -0.007
C  C50  1  0.88780912  0.75218399  0.62150541  1  -0.054491  0.013971  3.584567  0.015  -0.035569  0.007251  3.809536  0.009  -0.046023  0.005326  3.835212  0.007  -0.004434  -0.029097  0.008709  3.792519  0.01
C  C51  1  0.38781054  0.24782136  0.37849524  1  -0.054442  -0.013982  3.584756  -0.015  -0.035566  -0.007253  3.809616  -0.009  -0.046018  -0.005327  3.835289  -0.007  -0.004455  -0.029116  -0.00871  3.792621  -0.01
C  C52  1  0.00314220  0.84404269  0.69133502  1  0.345621  -0.004255  3.737127  -0.009  0.329422  0.000627  3.996283  -0.002  0.354582  -0.00033  4.009527  -0.003  0.124907  0.313047  0.00149  3.986275  -0.002
C  C53  1  0.50314617  0.15596146  0.30866602  1  0.345452  0.004261  3.737255  0.009  0.329286  -0.000626  3.996351  0.002  0.35444  0.000331  4.009605  0.003  0.12486  0.312919  -0.00149  3.986342  0.002
C  C54  1  0.08263493  0.82423768  0.48895439  1  0.026521  0.000619  3.788125  0.001  0.014888  -0.000572  4.056259  0.0  0.005096  -0.0004  4.08111  0.0  0.054203  0.021011  -0.000721  4.039828  0.0
C  C55  1  0.58263463  0.17576083  0.51104604  1  0.02674  -0.000624  3.787936  -0.001  0.015013  0.000572  4.056177  0.0  0.005219  0.000397  4.081036  0.0  0.054297  0.021135  0.000721  4.03974  0.0
C  C56  1  0.23877438  0.03823803  0.71728958  1  0.186918  -0.01986  3.669277  -0.021  0.146223  -0.005249  3.935461  -0.007  0.168916  -0.006623  3.946456  -0.009  0.088408  0.131054  -0.003966  3.928542  -0.006
C  C57  1  0.73877060  0.96175491  0.28270680  1  0.187038  0.019864  3.669217  0.021  0.146275  0.005252  3.935509  0.007  0.168967  0.006623  3.946514  0.009  0.08847  0.131112  0.003968  3.928598  0.006
C  C58  1  0.17608610  0.92229343  0.55344284  1  -0.093307  -0.006432  3.732568  -0.006  -0.128898  -0.001758  3.992926  -0.002  -0.12038  -0.00178  4.009678  -0.002  -0.071837  -0.134304  -0.001696  3.981543  -0.002
C  C59  1  0.67608919  0.07770495  0.44655690  1  -0.093345  0.006429  3.732532  0.006  -0.128875  0.001757  3.992897  0.002  -0.120391  0.001781  4.009628  0.002  -0.071841  -0.13428  0.001696  3.981521  0.002
C  C60  1  0.60742601  0.58432489  0.57236601  1  -0.347205  0.00033  3.678857  0.0  -0.425926  8.9e-05  3.917022  0.0  -0.429289  1.7e-05  3.928606  0.0  -0.2457  -0.423238  0.000195  3.90878  0.0
C  C61  1  0.10742415  0.41568653  0.42764181  1  -0.347094  -0.000334  3.6789  0.0  -0.425871  -8.9e-05  3.916913  0.0  -0.429236  -1.8e-05  3.928509  0.0  -0.245653  -0.423185  -0.000195  3.908669  0.0
C  C62  1  0.72772571  0.66411099  0.65817342  1  0.231923  -0.000256  3.565388  -0.001  0.266437  -4.7e-05  3.78653  0.0  0.268807  -7.7e-05  3.805976  0.0  -0.008633  0.264788  8e-06  3.773614  0.0
C  C63  1  0.22772112  0.33589622  0.34183297  1  0.231737  0.000256  3.565486  0.001  0.266441  4.7e-05  3.786355  0.0  0.268843  7.8e-05  3.80571  0.0  -0.008716  0.264797  -8e-06  3.773442  0.0
C  C64  1  0.93500837  0.74302027  0.52274973  1  -0.116512  -0.005416  3.735148  -0.005  -0.151017  -0.001322  3.993573  -0.001  -0.146908  -0.001527  4.013544  -0.001  -0.079882  -0.153794  -0.001163  3.980607  -0.001
C  C65  1  0.43500300  0.25698265  0.47725242  1  -0.116609  0.005421  3.7351  0.005  -0.151072  0.001322  3.99354  0.001  -0.146965  0.001527  4.013511  0.001  -0.079868  -0.15385  0.001164  3.980589  0.001
C  C66  1  0.84600644  0.57368144  0.71475699  1  -0.347853  0.000704  3.650975  0.001  -0.426783  0.000431  3.886348  0.0  -0.430383  0.000252  3.897191  0.0  -0.246859  -0.423987  0.00061  3.878842  0.001
C  C67  1  0.34600437  0.42631968  0.28524409  1  -0.347881  -0.000702  3.651202  -0.001  -0.426879  -0.000431  3.886519  0.0  -0.43049  -0.000252  3.897366  0.0  -0.246885  -0.424091  -0.000611  3.879006  -0.001
C  C68  1  0.35388763  0.16469591  0.86982258  1  -0.058917  0.000312  3.567432  -0.002  -0.069795  0.001182  3.794624  0.0  -0.071878  0.000631  3.809776  -0.001  0.015142  -0.068038  0.001503  3.784234  0.0
C  C69  1  0.85387679  0.83529570  0.13017351  1  -0.058943  -0.00031  3.56744  0.002  -0.069843  -0.001184  3.794708  0.0  -0.071928  -0.000634  3.809869  0.001  0.01514  -0.06808  -0.001505  3.784327  0.0
C  C70  1  0.20823352  0.28462389  0.89711747  1  0.230066  0.001191  3.548259  0.001  0.265008  0.000526  3.777721  0.001  0.265468  0.000527  3.798512  0.001  -0.009881  0.264723  0.000503  3.763303  0.001
C  C71  1  0.70823018  0.71536846  0.10287687  1  0.229891  -0.001191  3.548576  -0.001  0.26465  -0.000526  3.778395  -0.001  0.265108  -0.000525  3.799183  -0.001  -0.009946  0.264369  -0.000503  3.763979  -0.001
C  C72  1  0.10064366  0.31425533  0.80411096  1  -0.35439  -0.000116  3.655648  0.0  -0.432273  4.1e-05  3.886964  0.0  -0.435734  2.2e-05  3.898715  0.0  -0.251845  -0.429439  4.3e-05  3.878455  0.0
C  C73  1  0.60063958  0.68573544  0.19588392  1  -0.354375  0.000113  3.6558  0.0  -0.432296  -4.1e-05  3.887195  0.0  -0.435746  -2.2e-05  3.898953  0.0  -0.251894  -0.42946  -4.4e-05  3.878682  0.0
C  C74  1  0.34934657  0.39664839  0.94056419  1  -0.351186  0.000397  3.663792  0.0  -0.433589  0.000118  3.902612  0.0  -0.437191  4e-05  3.913733  0.0  -0.245216  -0.430838  0.000115  3.894847  0.0
C  C75  1  0.84933996  0.60334233  0.05942601  1  -0.35111  -0.0004  3.663936  0.0  -0.433405  -0.000117  3.902779  0.0  -0.436997  -4.1e-05  3.913896  0.0  -0.245144  -0.430659  -0.000115  3.895012  0.0
C  C76  1  0.03822132  0.26257066  0.97136795  1  -0.355017  9.7e-05  3.654796  0.0  -0.437321  0.000196  3.892292  0.0  -0.440488  0.000107  3.902977  0.0  -0.25283  -0.434876  0.000238  3.88516  0.0
C  C77  1  0.53821354  0.73743120  0.02863326  1  -0.354891  -9.3e-05  3.654831  0.0  -0.437182  -0.000196  3.892357  0.0  -0.440325  -0.000107  3.903066  0.0  -0.252854  -0.434743  -0.000239  3.885231  0.0
C  C78  1  0.43224750  0.11982783  0.96255565  1  0.647474  0.000164  3.785142  0.001  0.604794  0.000644  4.081926  0.002  0.642404  0.000811  4.077427  0.002  0.218861  0.579481  0.0004  4.083504  0.001
C  C79  1  0.93223537  0.88016853  0.03743982  1  0.647555  -0.000163  3.785002  -0.001  0.604903  -0.000642  4.081734  -0.002  0.642511  -0.000812  4.077234  -0.002  0.218906  0.579589  -0.000401  4.08332  -0.001
N  N80  1  0.24338037  0.05673233  0.81248094  1  -0.329173  0.109421  3.318178  0.133  -0.293771  0.070725  3.634363  0.092  -0.328619  0.060329  3.651992  0.082  -0.376839  -0.273556  0.075033  3.625012  0.094
N  N81  1  0.74337085  0.94326056  0.18751684  1  -0.329189  -0.109421  3.318352  -0.133  -0.293719  -0.070724  3.634517  -0.092  -0.32859  -0.060323  3.652173  -0.082  -0.376889  -0.2735  -0.075025  3.62517  -0.094
N  N82  1  0.13451196  0.80684229  0.38599448  1  0.476923  -0.002404  3.945768  -0.002  0.511251  -0.001226  4.2393  -0.001  0.532947  -0.00084  4.248945  -0.001  0.031676  0.496823  -0.001651  4.232881  -0.001
N  N83  1  0.63451084  0.19316505  0.61400243  1  0.47692  0.002405  3.945449  0.002  0.511291  0.001227  4.239002  0.001  0.532986  0.000841  4.248647  0.001  0.031541  0.496862  0.001651  4.232576  0.001
O  O84  1  0.35411754  0.01771830  0.98385344  1  -0.606472  0.075701  2.102905  0.097  -0.583264  0.053543  2.39815  0.075  -0.6245  0.044095  2.385504  0.065  -0.322707  -0.555913  0.05871  2.407208  0.08
O  O85  1  0.85411274  0.98227142  0.01613877  1  -0.606387  -0.075685  2.102901  -0.097  -0.583166  -0.053538  2.398123  -0.075  -0.624419  -0.044087  2.385498  -0.065  -0.322639  -0.555811  -0.058702  2.407189  -0.08
O  O86  1  0.57024699  0.18139052  0.01763632  1  -0.535451  -0.048793  2.027206  -0.063  -0.493021  -0.03529  2.279323  -0.05  -0.530821  -0.030663  2.270711  -0.046  -0.294392  -0.466532  -0.036475  2.284384  -0.05
O  O87  1  0.07026396  0.81860154  0.98236548  1  -0.535584  0.048805  2.027013  0.063  -0.493174  0.035296  2.27914  0.05  -0.530958  0.030671  2.270512  0.046  -0.294517  -0.46669  0.036479  2.284203  0.05
O  O88  1  0.98159942  0.84192834  0.78421844  1  -0.508038  0.100548  2.156753  0.131  -0.486861  0.065673  2.445453  0.094  -0.53035  0.050777  2.440903  0.076  -0.304705  -0.458256  0.074908  2.448777  0.103
O  O89  1  0.48159307  0.15807499  0.21578343  1  -0.507903  -0.100575  2.156754  -0.131  -0.486797  -0.065686  2.445445  -0.094  -0.530311  -0.050784  2.440908  -0.077  -0.304657  -0.458186  -0.074918  2.448777  -0.103
O  O90  1  0.24981596  0.88664596  0.35578529  1  -0.396965  -0.001585  1.740683  -0.002  -0.377371  -0.000789  1.946355  -0.001  -0.38931  -0.000605  1.94365  -0.001  -0.155024  -0.369409  -0.000974  1.948232  -0.001
O  O91  1  0.74982083  0.11335816  0.64421326  1  -0.397091  0.001586  1.740597  0.002  -0.377484  0.000789  1.946269  0.001  -0.389425  0.000607  1.943571  0.001  -0.155042  -0.369523  0.000974  1.948144  0.001
O  O92  1  0.05911814  0.71300938  0.32963093  1  -0.401791  -0.001725  1.757732  -0.002  -0.379974  -0.000831  1.969444  -0.001  -0.391186  -0.000659  1.964352  -0.001  -0.149856  -0.372844  -0.000986  1.973256  -0.001
O  O93  1  0.55912352  0.28700072  0.67036328  1  -0.401777  0.001724  1.757552  0.002  -0.379939  0.00083  1.969228  0.001  -0.391158  0.000657  1.964147  0.001  -0.149796  -0.372809  0.000986  1.973038  0.001
