# generated using pymatgen
data_ZnH6C8IO6
_symmetry_space_group_name_H-M   'P 1'
_cell_length_a   7.46153916
_cell_length_b   7.46149894
_cell_length_c   10.97104839
_cell_angle_alpha   82.77189708
_cell_angle_beta   82.77368806
_cell_angle_gamma   83.94580853
_symmetry_Int_Tables_number   1
_chemical_formula_structural   ZnH6C8IO6
_chemical_formula_sum   'Zn2 H12 C16 I2 O12'
_cell_volume   598.63922830
_cell_formula_units_Z   2
loop_
 _symmetry_equiv_pos_site_id
 _symmetry_equiv_pos_as_xyz
  1  'x, y, z'
loop_
 _atom_site_type_symbol
 _atom_site_label
 _atom_site_symmetry_multiplicity
 _atom_site_fract_x
 _atom_site_fract_y
 _atom_site_fract_z
 _atom_site_occupancy
 _atom_site_hle17_bader_spin_density
 _atom_site_hle17_ddec_charge
 _atom_site_hle17_ddec_spin_density
 _atom_site_hle17_ddec_sum_bond_order
 _atom_site_hle17_magmom
 _atom_site_hse06_10hf_bader_spin_density
 _atom_site_hse06_10hf_ddec_charge
 _atom_site_hse06_10hf_ddec_spin_density
 _atom_site_hse06_10hf_ddec_sum_bond_order
 _atom_site_hse06_10hf_magmom
 _atom_site_hse06_bader_spin_density
 _atom_site_hse06_ddec_charge
 _atom_site_hse06_ddec_spin_density
 _atom_site_hse06_ddec_sum_bond_order
 _atom_site_hse06_magmom
 _atom_site_pbe_bader_spin_density
 _atom_site_pbe_cm5_charge
 _atom_site_pbe_ddec_charge
 _atom_site_pbe_ddec_spin_density
 _atom_site_pbe_ddec_sum_bond_order
 _atom_site_pbe_magmom
Zn  Zn0  1  0.54305894  0.45694021  0.50000631  1  0  1.137296  0  1.815204  0  0  0.968188  0  2.30115  0  0  1.017518  0  2.235854  0  0  0.683172  0.933575  0  2.345821  0
Zn  Zn1  1  0.96436242  0.03563869  0.49999865  1  0  1.227653  0  1.631049  0  0  1.076803  0  2.07478  0  0  1.123447  0  2.01361  0  0  0.672517  1.043888  0  2.116945  0
H  H2  1  0.70170717  0.86365793  0.43487609  1  0  0.44143  0  0.848973  0  0  0.409014  0  0.914044  0  0  0.418919  0  0.899688  0  0  0.301738  0.401944  0  0.924289  0
H  H3  1  0.13633297  0.29829662  0.56512515  1  0  0.441401  0  0.849006  0  0  0.409036  0  0.914013  0  0  0.418922  0  0.899676  0  0  0.301748  0.401987  0  0.92424  0
H  H4  1  0.74510501  0.03427191  0.34054483  1  0  0.431433  0  0.804915  0  0  0.41472  0  0.8566  0  0  0.423131  0  0.847391  0  0  0.325592  0.408663  0  0.863344  0
H  H5  1  0.96571814  0.25488960  0.65945263  1  0  0.431387  0  0.804968  0  0  0.414687  0  0.856626  0  0  0.423096  0  0.847423  0  0  0.325595  0.408629  0  0.86336  0
H  H6  1  0.32669478  0.92985857  0.45275493  1  0  0.443231  0  0.84746  0  0  0.411336  0  0.910776  0  0  0.421662  0  0.89603  0  0  0.299178  0.404158  0  0.921019  0
H  H7  1  0.07013089  0.67329780  0.54725284  1  0  0.443236  0  0.847438  0  0  0.411285  0  0.91086  0  0  0.421616  0  0.896106  0  0  0.29913  0.4041  0  0.921117  0
H  H8  1  0.26028165  0.06703194  0.33930961  1  0  0.421148  0  0.831329  0  0  0.39642  0  0.900727  0  0  0.405621  0  0.889838  0  0  0.310783  0.390065  0  0.908218  0
H  H9  1  0.93294666  0.73970829  0.66069206  1  0  0.421089  0  0.831549  0  0  0.396377  0  0.900885  0  0  0.405576  0  0.890001  0  0  0.310804  0.390025  0  0.908359  0
H  H10  1  0.73483025  0.59899224  0.18313007  1  0  0.118574  0  0.942918  0  0  0.128947  0  1.002767  0  0  0.13292  0  0.999894  0  0  0.103983  0.126009  0  1.005006  0
H  H11  1  0.40105189  0.26516389  0.81686599  1  0  0.118549  0  0.942727  0  0  0.128905  0  1.002627  0  0  0.132878  0  0.99975  0  0  0.103933  0.125963  0  1.004863  0
H  H12  1  0.37925621  0.73330415  0.14500198  1  0  0.105371  0  0.943548  0  0  0.112508  0  1.010959  0  0  0.116298  0  1.007979  0  0  0.10257  0.109768  0  1.01316  0
H  H13  1  0.26666247  0.62074398  0.85498414  1  0  0.105386  0  0.94362  0  0  0.112491  0  1.011066  0  0  0.11628  0  1.008086  0  0  0.102595  0.109746  0  1.013262  0
C  C14  1  0.90758318  0.42952945  0.37320216  1  0  0.705324  0  3.874443  0  0  0.648975  0  4.175509  0  0  0.684898  0  4.164353  0  0  0.22453  0.624325  0  4.182647  0
C  C15  1  0.57049813  0.09240591  0.62679563  1  0  0.705176  0  3.874202  0  0  0.648719  0  4.175513  0  0  0.684658  0  4.164329  0  0  0.224374  0.62407  0  4.182649  0
C  C16  1  0.27632223  0.53730001  0.36116063  1  0  0.666757  0  3.876747  0  0  0.611728  0  4.172029  0  0  0.646705  0  4.163698  0  0  0.212362  0.588337  0  4.176609  0
C  C17  1  0.46270762  0.72365458  0.63884865  1  0  0.666634  0  3.876956  0  0  0.611578  0  4.172236  0  0  0.646545  0  4.163913  0  0  0.212221  0.588188  0  4.176809  0
C  C18  1  0.16452271  0.60060808  0.25870934  1  0  -0.079823  0  3.754769  0  0  -0.066914  0  3.99329  0  0  -0.07338  0  4.013061  0  0  -0.020949  -0.062934  0  3.980249  0
C  C19  1  0.39939441  0.83547819  0.74128831  1  0  -0.079913  0  3.75486  0  0  -0.066895  0  3.993326  0  0  -0.073366  0  4.013111  0  0  -0.021047  -0.062916  0  3.980266  0
C  C20  1  0.98347535  0.55983223  0.26811140  1  0  -0.021289  0  3.682729  0  0  -0.006322  0  3.914205  0  0  -0.008346  0  3.932023  0  0  -0.004068  -0.005286  0  3.902591  0
C  C21  1  0.44018608  0.01651012  0.73188784  1  0  -0.021045  0  3.682564  0  0  -0.006234  0  3.914265  0  0  -0.008266  0  3.932084  0  0  -0.003932  -0.005196  0  3.902633  0
C  C22  1  0.87589819  0.62935379  0.17458917  1  0  -0.113908  0  3.724212  0  0  -0.142136  0  3.97294  0  0  -0.144128  0  3.991018  0  0  -0.095937  -0.140755  0  3.960946  0
C  C23  1  0.37067252  0.12408814  0.82540839  1  0  -0.113884  0  3.724084  0  0  -0.142009  0  3.972813  0  0  -0.144007  0  3.990917  0  0  -0.095908  -0.140631  0  3.960797  0
C  C24  1  0.95108006  0.73521743  0.07022221  1  0  -0.002401  0  3.652696  0  0  0.015207  0  3.917203  0  0  0.01773  0  3.939797  0  0  -0.046487  0.01335  0  3.901953  0
C  C25  1  0.26481204  0.04891324  0.92977599  1  0  -0.002484  0  3.65303  0  0  0.015108  0  3.917555  0  0  0.017631  0  3.940143  0  0  -0.046473  0.013236  0  3.902361  0
C  C26  1  0.13381300  0.77244981  0.05707978  1  0  0.012229  0  3.812925  0  0  0.023162  0  4.050325  0  0  0.021653  0  4.074761  0  0  -0.021524  0.024061  0  4.033889  0
C  C27  1  0.22755203  0.86618914  0.94291026  1  0  0.012342  0  3.812446  0  0  0.023259  0  4.049865  0  0  0.021751  0  4.074296  0  0  -0.021561  0.024143  0  4.033427  0
C  C28  1  0.23760682  0.70482949  0.15314015  1  0  -0.08011  0  3.694994  0  0  -0.112962  0  3.947635  0  0  -0.111952  0  3.965194  0  0  -0.077157  -0.113198  0  3.935638  0
C  C29  1  0.29516019  0.76238597  0.84684894  1  0  -0.080092  0  3.694701  0  0  -0.112945  0  3.947374  0  0  -0.111935  0  3.964933  0  0  -0.077148  -0.113179  0  3.935368  0
I  I30  1  0.78599552  0.83957157  0.93070911  1  0  0.011088  0  1.342038  0  0  -0.010928  0  1.61184  0  0  -0.014206  0  1.604197  0  0  0.09648  -0.009069  0  1.617739  0
I  I31  1  0.16050427  0.21398514  0.06928526  1  0  0.011081  0  1.342278  0  0  -0.010923  0  1.612075  0  0  -0.0142  0  1.604434  0  0  0.096466  -0.00906  0  1.617987  0
O  O32  1  0.80344421  0.49416185  0.46138230  1  0  -0.662626  0  2.08868  0  0  -0.598619  0  2.369246  0  0  -0.625151  0  2.349581  0  0  -0.331558  -0.580041  0  2.38232  0
O  O33  1  0.50583405  0.19655948  0.53861337  1  0  -0.662734  0  2.088398  0  0  -0.598613  0  2.368958  0  0  -0.625155  0  2.349285  0  0  -0.33158  -0.580033  0  2.382031  0
O  O34  1  0.95157144  0.26268328  0.36259730  1  0  -0.672605  0  2.058001  0  0  -0.608928  0  2.322123  0  0  -0.636988  0  2.307907  0  0  -0.315904  -0.589246  0  2.331315  0
O  O35  1  0.73732613  0.04842103  0.63740758  1  0  -0.672336  0  2.05809  0  0  -0.608687  0  2.32236  0  0  -0.636737  0  2.308108  0  0  -0.315746  -0.589012  0  2.331554  0
O  O36  1  0.19890477  0.50386271  0.47115726  1  0  -0.672221  0  2.034353  0  0  -0.599692  0  2.25305  0  0  -0.625611  0  2.241655  0  0  -0.309173  -0.581851  0  2.260338  0
O  O37  1  0.49615589  0.80108592  0.52884399  1  0  -0.672309  0  2.033883  0  0  -0.599765  0  2.252594  0  0  -0.62565  0  2.241156  0  0  -0.309204  -0.581928  0  2.259871  0
O  O38  1  0.44938244  0.52072143  0.33587510  1  0  -0.622956  0  2.002427  0  0  -0.555408  0  2.260086  0  0  -0.584142  0  2.245197  0  0  -0.316806  -0.534982  0  2.269212  0
O  O39  1  0.47927729  0.55060898  0.66414205  1  0  -0.622803  0  2.00311  0  0  -0.555245  0  2.260753  0  0  -0.583975  0  2.245866  0  0  -0.316628  -0.534825  0  2.269876  0
O  O40  1  0.80216863  0.92678081  0.38552110  1  0  -0.802695  0  1.887476  0  0  -0.747317  0  2.082813  0  0  -0.768713  0  2.055582  0  0  -0.554919  -0.732229  0  2.101905  0
O  O41  1  0.07321776  0.19783170  0.61448290  1  0  -0.802646  0  1.88759  0  0  -0.747323  0  2.082826  0  0  -0.768688  0  2.055658  0  0  -0.554941  -0.732277  0  2.101864  0
O  O42  1  0.22343849  0.97109497  0.40329374  1  0  -0.808464  0  1.892201  0  0  -0.745335  0  2.093288  0  0  -0.767471  0  2.064633  0  0  -0.560564  -0.729829  0  2.112924  0
O  O43  1  0.02889612  0.77655039  0.59671818  1  0  -0.808472  0  1.892442  0  0  -0.745253  0  2.093433  0  0  -0.767388  0  2.064774  0  0  -0.560558  -0.729754  0  2.113064  0
