# generated using pymatgen
data_KCu2H19C21(N3O2)2
_symmetry_space_group_name_H-M   'P 1'
_cell_length_a   9.88813348
_cell_length_b   10.76790589
_cell_length_c   11.89575695
_cell_angle_alpha   84.79589573
_cell_angle_beta   65.39568358
_cell_angle_gamma   77.28030067
_symmetry_Int_Tables_number   1
_chemical_formula_structural   KCu2H19C21(N3O2)2
_chemical_formula_sum   'K2 Cu4 H38 C42 N12 O8'
_cell_volume   1123.33182746
_cell_formula_units_Z   2
loop_
 _symmetry_equiv_pos_site_id
 _symmetry_equiv_pos_as_xyz
  1  'x, y, z'
loop_
 _atom_site_type_symbol
 _atom_site_label
 _atom_site_symmetry_multiplicity
 _atom_site_fract_x
 _atom_site_fract_y
 _atom_site_fract_z
 _atom_site_occupancy
 _atom_site_pbe_bader_charge
 _atom_site_pbe_bader_spin_density
 _atom_site_pbe_cm5_charge
 _atom_site_pbe_ddec_charge
 _atom_site_pbe_ddec_spin_density
 _atom_site_pbe_ddec_sum_bond_order
 _atom_site_pbe_magmom
K  K0  1  0.00000477  0.49999860  0.49999561  1  0.862523  0.001707  0.778834  0.812568  0.001539  0.71054  0.001
K  K1  1  0.50000642  0.99999576  0.49999703  1  0.86307  -0.001709  0.775917  0.812411  -0.001551  0.708717  -0.001
Cu  Cu2  1  0.01090878  0.80364333  0.52678239  1  0.989827  -0.52492  0.742137  0.68795  -0.714481  2.418184  -0.523
Cu  Cu3  1  0.46222186  0.69639628  0.52676852  1  0.995973  0.525951  0.741662  0.687734  0.71532  2.417035  0.525
Cu  Cu4  1  0.98909070  0.19635700  0.47321964  1  0.989817  -0.524916  0.742138  0.687951  -0.714476  2.418153  -0.523
Cu  Cu5  1  0.53778060  0.30360214  0.47323099  1  0.996063  0.525952  0.741679  0.687756  0.715322  2.416996  0.525
H  H6  1  0.73976111  0.76476441  0.79420662  1  0.110177  0.000407  0.116159  0.11354  0.000277  1.035323  0.0
H  H7  1  0.46608586  0.73480884  0.79443877  1  0.114667  -0.000257  0.116345  0.113752  -0.00019  1.03472  0.0
H  H8  1  0.26023748  0.23523401  0.20579342  1  0.110176  0.000407  0.116192  0.113585  0.000277  1.0353  0.0
H  H9  1  0.53391572  0.26518673  0.20556119  1  0.114674  -0.000257  0.116342  0.113719  -0.00019  1.03476  0.0
H  H10  1  0.78648918  0.74979271  0.42727019  1  0.166517  -1.3e-05  0.133806  0.102926  -6e-06  1.017231  0.0
H  H11  1  0.21351249  0.25020762  0.57273299  1  0.166441  -1.3e-05  0.133797  0.102897  -6e-06  1.017223  0.0
H  H12  1  0.76202277  0.84230552  0.16302194  1  0.060713  -0.000225  0.099242  0.109664  -9.4e-05  1.032887  0.0
H  H13  1  0.07468806  0.65772123  0.16318729  1  0.064968  0.000233  0.099186  0.109871  0.000103  1.032999  0.0
H  H14  1  0.23797401  0.15769480  0.83697612  1  0.060623  -0.000225  0.099228  0.109661  -9.4e-05  1.032858  0.0
H  H15  1  0.92531047  0.34228005  0.83681436  1  0.064634  0.000233  0.099181  0.109877  0.000103  1.033003  0.0
H  H16  1  0.82565144  0.76272481  0.95555128  1  0.047732  0.000627  0.099226  0.096759  0.000245  1.013646  0.0
H  H17  1  0.21697284  0.73837237  0.95600220  1  0.051663  -0.000475  0.099499  0.097121  -0.000169  1.010818  0.0
H  H18  1  0.17434730  0.23727647  0.04444793  1  0.047756  0.000627  0.09921  0.096733  0.000245  1.013724  0.0
H  H19  1  0.78302714  0.26162891  0.04400022  1  0.051621  -0.000475  0.099507  0.097127  -0.000169  1.010809  0.0
H  H20  1  0.70030975  0.59290035  0.93109209  1  0.050901  0.000247  0.093056  0.087998  0.000176  1.039616  0.0
H  H21  1  0.36771243  0.90746207  0.93146789  1  0.052234  -0.0002  0.093341  0.088123  -0.000145  1.039916  0.0
H  H22  1  0.29969307  0.40710092  0.06890413  1  0.050946  0.000247  0.093057  0.087963  0.000176  1.039606  0.0
H  H23  1  0.63228648  0.09254016  0.06853537  1  0.052169  -0.0002  0.093311  0.08808  -0.000145  1.039907  0.0
H  H24  1  0.50385255  0.51605745  0.11687107  1  0.051436  0.000495  0.099933  0.095935  0.000284  1.011541  0.0
H  H25  1  0.37917644  0.98382158  0.11719013  1  0.064296  -0.000552  0.099633  0.095264  -0.000312  1.011377  0.0
H  H26  1  0.49615095  0.48394192  0.88312270  1  0.051445  0.000495  0.09996  0.095985  0.000284  1.011573  0.0
H  H27  1  0.62082152  0.01618066  0.88281519  1  0.064322  -0.000552  0.099606  0.095257  -0.000312  1.011399  0.0
H  H28  1  0.34551760  0.52160507  0.32257560  1  0.099084  0.012756  0.121781  0.088391  0.006739  0.990139  0.007
H  H29  1  0.33213827  0.97816132  0.32272362  1  0.071224  -0.012952  0.121884  0.08905  -0.006776  0.987777  -0.007
H  H30  1  0.65448136  0.47839621  0.67742115  1  0.099071  0.012756  0.121789  0.088418  0.006738  0.990163  0.007
H  H31  1  0.66786352  0.02183806  0.67728078  1  0.071234  -0.012952  0.12188  0.089028  -0.006776  0.98778  -0.007
H  H32  1  0.13904142  0.49536081  0.83864721  1  0.076896  -0.000115  0.099216  0.157374  -0.000112  1.004734  0.0
H  H33  1  0.02210859  0.00424352  0.83923154  1  0.073822  0.000127  0.099014  0.156623  0.000114  1.005001  0.0
H  H34  1  0.86095709  0.50464142  0.16135200  1  0.076886  -0.000115  0.099199  0.157339  -0.000112  1.004721  0.0
H  H35  1  0.97788972  0.99575776  0.16077256  1  0.073848  0.000127  0.098983  0.156601  0.000114  1.005008  0.0
H  H36  1  0.03971148  0.48783403  0.74437169  1  0.014065  0.002217  0.095365  0.131106  0.001014  1.028248  0.001
H  H37  1  0.21582983  0.01193992  0.74458318  1  0.03185  -0.002134  0.095348  0.130847  -0.000983  1.028514  -0.001
H  H38  1  0.96028726  0.51216724  0.25562751  1  0.013934  0.002217  0.095381  0.131115  0.001014  1.028227  0.001
H  H39  1  0.78416903  0.98806040  0.25541725  1  0.031843  -0.002134  0.095355  0.130855  -0.000983  1.028476  -0.001
H  H40  1  0.01418382  0.63358743  0.81880411  1  0.093306  -2e-06  0.100362  0.153126  -4.9e-05  1.011416  0.0
H  H41  1  0.16724791  0.86593982  0.81804118  1  0.076851  0.000226  0.100571  0.153554  0.000188  1.012762  0.0
H  H42  1  0.98581502  0.36641385  0.18119387  1  0.09332  -2e-06  0.100368  0.153153  -4.9e-05  1.01135  0.0
H  H43  1  0.83275347  0.13405956  0.18195917  1  0.07686  0.000226  0.100568  0.153541  0.000188  1.012775  0.0
C  C44  1  0.70879842  0.75563909  0.71858484  1  0.351687  0.000792  -0.01716  -0.060229  2.9e-05  4.018397  0.0
C  C45  1  0.57261947  0.74401627  0.71866763  1  0.302783  -0.000846  -0.018234  -0.061703  -7e-05  4.018687  0.0
C  C46  1  0.29120293  0.24435743  0.28141513  1  0.351722  0.000792  -0.017194  -0.060292  2.9e-05  4.018347  0.0
C  C47  1  0.42738081  0.25598120  0.28133317  1  0.302667  -0.000846  -0.01825  -0.061645  -7e-05  4.018715  0.0
C  C48  1  0.73637479  0.74988898  0.52733928  1  0.919793  3.2e-05  0.083066  0.099961  2.4e-05  4.071371  0.0
C  C49  1  0.26362492  0.25011040  0.47266275  1  0.919929  3.1e-05  0.083075  0.099996  2.3e-05  4.071364  0.0
C  C50  1  0.59619029  0.72669760  0.26064939  1  0.598466  -0.00114  0.086135  0.318465  0.000501  4.072543  -0.003
C  C51  1  0.14355650  0.77284780  0.26077528  1  0.613675  0.001141  0.085794  0.317803  -0.000528  4.073542  0.003
C  C52  1  0.40380890  0.27330273  0.73934737  1  0.598441  -0.00114  0.086097  0.318322  0.000501  4.072533  -0.003
C  C53  1  0.85644517  0.22715253  0.73922790  1  0.613325  0.00114  0.085776  0.317776  -0.000529  4.073591  0.003
C  C54  1  0.70516512  0.77109152  0.15232742  1  -0.055879  0.012333  -0.114765  -0.223152  0.00903  3.981525  0.01
C  C55  1  0.14244295  0.72875779  0.15249528  1  -0.072576  -0.012536  -0.114702  -0.222911  -0.009158  3.980512  -0.01
C  C56  1  0.29483407  0.22890880  0.84766934  1  -0.055873  0.012333  -0.114747  -0.223065  0.00903  3.981266  0.01
C  C57  1  0.85755500  0.27124540  0.84750760  1  -0.071998  -0.012536  -0.114731  -0.222925  -0.009158  3.980542  -0.01
C  C58  1  0.74130782  0.72484580  0.03606042  1  -0.038132  -0.002571  -0.092591  -0.059616  -0.001809  4.049926  -0.001
C  C59  1  0.22185060  0.77552110  0.03640055  1  -0.037762  0.002508  -0.092301  -0.059229  0.001746  4.048041  0.001
C  C60  1  0.25869283  0.27515452  0.96393709  1  -0.038203  -0.002571  -0.092603  -0.059676  -0.001809  4.049879  -0.001
C  C61  1  0.77814805  0.22447923  0.96360233  1  -0.037501  0.002509  -0.092265  -0.059226  0.001746  4.048039  0.001
C  C62  1  0.67084427  0.63081578  0.02202655  1  -0.069072  0.004479  -0.116972  -0.136693  0.002996  4.074178  0.003
C  C63  1  0.30667828  0.86927958  0.02232786  1  -0.05204  -0.004973  -0.11718  -0.137131  -0.003345  4.073657  -0.003
C  C64  1  0.32915660  0.36918359  0.97797097  1  -0.06895  0.004479  -0.116968  -0.136567  0.002996  4.074176  0.003
C  C65  1  0.69331833  0.13072265  0.97767547  1  -0.052272  -0.004974  -0.117169  -0.137094  -0.003346  4.073622  -0.003
C  C66  1  0.56174057  0.58750807  0.12596614  1  -0.03349  -0.003793  -0.085195  -0.08873  -0.002486  3.996058  -0.003
C  C67  1  0.31242246  0.91220333  0.12618286  1  -0.05637  0.003976  -0.084988  -0.0876  0.002608  3.995417  0.003
C  C68  1  0.43826019  0.41249225  0.87403015  1  -0.033956  -0.003793  -0.085264  -0.08892  -0.002486  3.996249  -0.003
C  C69  1  0.68757775  0.08779700  0.87381955  1  -0.056372  0.003976  -0.084971  -0.087548  0.002608  3.995446  0.003
C  C70  1  0.52124885  0.63312882  0.24583065  1  0.013566  0.010159  -0.032678  -0.07269  0.006721  4.018057  0.008
C  C71  1  0.23335349  0.86634845  0.24592009  1  0.015969  -0.010783  -0.032479  -0.072299  -0.00715  4.017633  -0.009
C  C72  1  0.47875297  0.36687055  0.75416480  1  0.013981  0.010159  -0.032597  -0.072563  0.006721  4.017877  0.008
C  C73  1  0.76664362  0.13365474  0.75408363  1  0.016182  -0.010784  -0.032451  -0.072353  -0.007151  4.017571  -0.009
C  C74  1  0.40376803  0.58398826  0.34624895  1  0.578634  -0.007344  0.065439  0.067733  -0.003896  3.945358  -0.005
C  C75  1  0.25013449  0.91585224  0.34635151  1  0.597623  0.007638  0.065372  0.066658  0.004027  3.943158  0.005
C  C76  1  0.59623476  0.41601016  0.65374689  1  0.57862  -0.007344  0.065378  0.067649  -0.003896  3.945375  -0.005
C  C77  1  0.74986177  0.08415189  0.65365060  1  0.597479  0.007637  0.06536  0.066718  0.004027  3.943124  0.005
C  C78  1  0.22410129  0.58788490  0.66365657  1  1.268249  0.002797  0.207492  0.52064  0.003457  4.110908  0.0
C  C79  1  0.11188821  0.91229527  0.66368529  1  1.271298  -0.002839  0.207434  0.51962  -0.00348  4.108368  0.0
C  C80  1  0.77589982  0.41211352  0.33634095  1  1.268099  0.002797  0.207419  0.520514  0.003457  4.111149  0.0
C  C81  1  0.88810947  0.08770600  0.33631720  1  1.271305  -0.002839  0.207452  0.519585  -0.00348  4.108403  0.0
C  C82  1  0.09641260  0.54779415  0.77256406  1  -0.086095  0.008372  -0.236975  -0.484516  0.006536  3.895109  0.006
C  C83  1  0.13095404  0.95197029  0.77269239  1  -0.078824  -0.008458  -0.237399  -0.483577  -0.006614  3.893477  -0.006
C  C84  1  0.90358674  0.45220808  0.22743431  1  -0.086013  0.008371  -0.236957  -0.484468  0.006536  3.894986  0.006
C  C85  1  0.86904521  0.04803099  0.22730964  1  -0.07879  -0.008458  -0.237347  -0.483492  -0.006613  3.893442  -0.006
N  N86  1  0.81214569  0.75831339  0.59684353  1  -1.243745  -0.053329  -0.460446  -0.348615  -0.037692  3.73078  -0.046
N  N87  1  0.59097536  0.74148282  0.59693666  1  -1.234707  0.053263  -0.458872  -0.347627  0.037595  3.729691  0.045
N  N88  1  0.18785379  0.24168694  0.40315850  1  -1.243633  -0.053327  -0.460493  -0.348653  -0.037691  3.730743  -0.046
N  N89  1  0.40902408  0.25851465  0.40306499  1  -1.234792  0.053264  -0.458796  -0.347632  0.037595  3.729769  0.045
N  N90  1  0.36214322  0.60749396  0.46267992  1  -0.833872  0.103586  -0.291835  -0.135967  0.07196  3.810494  0.09
N  N91  1  0.17471850  0.89292055  0.46273873  1  -0.834455  -0.103433  -0.291845  -0.135106  -0.071862  3.80678  -0.09
N  N92  1  0.63785799  0.39250446  0.53731638  1  -0.833885  0.103584  -0.291795  -0.135894  0.071958  3.810542  0.09
N  N93  1  0.82528037  0.10707883  0.53726414  1  -0.834418  -0.103434  -0.291836  -0.135097  -0.071864  3.806732  -0.09
N  N94  1  0.24061854  0.56105303  0.55082558  1  -0.77635  0.019463  -0.347009  -0.463951  0.012915  3.325982  0.012
N  N95  1  0.20781240  0.93967858  0.55096664  1  -0.791519  -0.019731  -0.347423  -0.46531  -0.013048  3.323655  -0.012
N  N96  1  0.75938027  0.43894539  0.44917202  1  -0.776247  0.019462  -0.347042  -0.463974  0.012915  3.326302  0.012
N  N97  1  0.79218433  0.06032365  0.44903548  1  -0.791532  -0.019732  -0.347447  -0.46536  -0.013049  3.323726  -0.012
O  O98  1  0.56835648  0.77462131  0.36840535  1  -1.121633  0.1198  -0.401993  -0.561135  0.081305  2.414869  0.109
O  O99  1  0.06374414  0.72491610  0.36847956  1  -1.125835  -0.120549  -0.402115  -0.560878  -0.081792  2.416507  -0.11
O  O100  1  0.43164547  0.22537711  0.63159133  1  -1.121685  0.119802  -0.401934  -0.561025  0.081306  2.414898  0.109
O  O101  1  0.93625331  0.27508613  0.63152293  1  -1.125804  -0.120548  -0.402105  -0.560865  -0.081791  2.416485  -0.11
O  O102  1  0.30947259  0.64930739  0.68551049  1  -1.109605  0.111301  -0.325361  -0.501457  0.07511  2.286274  0.101
O  O103  1  0.00475081  0.85080239  0.68559314  1  -1.100807  -0.110756  -0.324357  -0.499947  -0.074768  2.283253  -0.1
O  O104  1  0.69052598  0.35069198  0.31448711  1  -1.109509  0.111302  -0.325317  -0.501423  0.075111  2.286281  0.101
O  O105  1  0.99524653  0.14919984  0.31441058  1  -1.100763  -0.110754  -0.324383  -0.499936  -0.074767  2.283195  -0.1
