# generated using pymatgen
data_ScH18(C5O2)3
_symmetry_space_group_name_H-M   'P 1'
_cell_length_a   8.99537375
_cell_length_b   11.37230137
_cell_length_c   17.82287029
_cell_angle_alpha   84.27195055
_cell_angle_beta   75.38395035
_cell_angle_gamma   66.69147394
_symmetry_Int_Tables_number   1
_chemical_formula_structural   ScH18(C5O2)3
_chemical_formula_sum   'Sc4 H72 C60 O24'
_cell_volume   1620.25861007
_cell_formula_units_Z   4
loop_
 _symmetry_equiv_pos_site_id
 _symmetry_equiv_pos_as_xyz
  1  'x, y, z'
loop_
 _atom_site_type_symbol
 _atom_site_label
 _atom_site_symmetry_multiplicity
 _atom_site_fract_x
 _atom_site_fract_y
 _atom_site_fract_z
 _atom_site_occupancy
 _atom_site_pbe_bader_charge
 _atom_site_pbe_bader_spin_density
 _atom_site_pbe_cm5_charge
 _atom_site_pbe_ddec_charge
 _atom_site_pbe_ddec_spin_density
 _atom_site_pbe_ddec_sum_bond_order
 _atom_site_pbe_magmom
Sc  Sc0  1  0.38653120  0.74996796  0.22699485  1  2.152247  0  1.26106  1.8512  0  2.196834  0
Sc  Sc1  1  0.86359575  0.74997107  0.27298503  1  2.151299  0  1.261101  1.852038  0  2.194986  0
Sc  Sc2  1  0.61347752  0.25002733  0.77300296  1  2.152334  0  1.261072  1.851261  0  2.196761  0
Sc  Sc3  1  0.13640697  0.25002996  0.72701360  1  2.151338  0  1.2611  1.852009  0  2.194926  0
H  H4  1  0.65299961  0.44566237  0.60527942  1  0.105488  0  0.110734  0.111119  0  1.009844  0
H  H5  1  0.74168771  0.05428337  0.60527808  1  0.087443  0  0.110927  0.111302  0  1.008319  0
H  H6  1  0.90117632  0.44587134  0.89466678  1  0.112254  0  0.110854  0.111018  0  1.00788  0
H  H7  1  0.20407296  0.05424292  0.89469834  1  0.102074  0  0.11055  0.110669  0  1.008127  0
H  H8  1  0.34700616  0.55433771  0.39471895  1  0.105522  0  0.11077  0.111199  0  1.00974  0
H  H9  1  0.25831765  0.94571288  0.39471802  1  0.087207  0  0.110935  0.111312  0  1.008351  0
H  H10  1  0.09883087  0.55412012  0.10532987  1  0.112501  0  0.110887  0.11105  0  1.007884  0
H  H11  1  0.79592871  0.94575620  0.10530000  1  0.102077  0  0.110534  0.110591  0  1.00818  0
H  H12  1  0.73202697  0.57166168  0.48931645  1  0.112563  0  0.111307  0.109088  0  1.038347  0
H  H13  1  0.77874480  0.92827133  0.48924942  1  0.114432  0  0.110855  0.108908  0  1.038226  0
H  H14  1  0.69622966  0.57183769  0.01076933  1  0.132648  0  0.111112  0.108999  0  1.038014  0
H  H15  1  0.29299576  0.92828835  0.01075718  1  0.124311  0  0.11089  0.109176  0  1.038236  0
H  H16  1  0.26797416  0.42834318  0.51068417  1  0.112622  0  0.111278  0.109018  0  1.03845  0
H  H17  1  0.22126173  0.07172683  0.51074570  1  0.114385  0  0.110851  0.108955  0  1.038199  0
H  H18  1  0.30378309  0.42815090  0.98922665  1  0.132585  0  0.11114  0.108991  0  1.038034  0
H  H19  1  0.70700282  0.07170982  0.98924128  1  0.124323  0  0.110898  0.109135  0  1.038247  0
H  H20  1  0.67360794  0.12959844  0.25087197  1  0.118689  0  0.112418  0.112044  0  1.002405  0
H  H21  1  0.07587351  0.37022475  0.25073445  1  0.115001  0  0.112076  0.111788  0  1.002839  0
H  H22  1  0.19668715  0.12985351  0.24912426  1  0.107641  0  0.1122  0.112446  0  1.000877  0
H  H23  1  0.55444491  0.36998297  0.24919391  1  0.106032  0  0.112057  0.11219  0  1.000669  0
H  H24  1  0.32638330  0.87040164  0.74912942  1  0.118625  0  0.11241  0.112043  0  1.002313  0
H  H25  1  0.92412017  0.62978299  0.74926528  1  0.115026  0  0.112102  0.111822  0  1.0028  0
H  H26  1  0.80329537  0.87015328  0.75088020  1  0.107531  0  0.112192  0.11246  0  1.00097  0
H  H27  1  0.44555597  0.63001711  0.75080245  1  0.106076  0  0.112068  0.112168  0  1.00075  0
H  H28  1  0.69387542  0.28944804  0.39637727  1  0.04349  0  0.079576  0.154017  0  1.053175  0
H  H29  1  0.90950306  0.21073718  0.39637126  1  0.032611  0  0.079715  0.154133  0  1.053308  0
H  H30  1  0.01663986  0.28930520  0.10350674  1  0.03497  0  0.079862  0.154756  0  1.05273  0
H  H31  1  0.87963160  0.21066911  0.10353594  1  0.035421  0  0.07949  0.154418  0  1.052776  0
H  H32  1  0.30612260  0.71055204  0.60362768  1  0.043639  0  0.079589  0.154051  0  1.05309  0
H  H33  1  0.09049160  0.78926385  0.60363198  1  0.032527  0  0.07976  0.154178  0  1.05325  0
H  H34  1  0.98335551  0.71069392  0.89649904  1  0.034853  0  0.079875  0.154759  0  1.052673  0
H  H35  1  0.12035980  0.78933192  0.89646940  1  0.035316  0  0.079509  0.154507  0  1.052818  0
H  H36  1  0.84616503  0.32614602  0.32313649  1  0.010543  0  0.080043  0.148875  0  1.036026  0
H  H37  1  0.83052362  0.17407887  0.32310253  1  0.01133  0  0.080408  0.149281  0  1.035444  0
H  H38  1  0.82769933  0.32605963  0.17677396  1  0.011961  0  0.080667  0.15015  0  1.035767  0
H  H39  1  0.99536859  0.17397077  0.17676825  1  0.016889  0  0.080281  0.149744  0  1.035359  0
H  H40  1  0.15383002  0.67385598  0.67686817  1  0.010627  0  0.080037  0.148879  0  1.036008  0
H  H41  1  0.16947152  0.82592121  0.67690071  1  0.011445  0  0.080382  0.149279  0  1.035416  0
H  H42  1  0.17229500  0.67394045  0.82323238  1  0.012086  0  0.080672  0.150157  0  1.035751  0
H  H43  1  0.00462421  0.82602835  0.82323780  1  0.016946  0  0.080292  0.149728  0  1.035437  0
H  H44  1  0.96181594  0.63923710  0.49457963  1  -0.005079  0  0.085049  0.162582  0  1.013609  0
H  H45  1  0.54357619  0.86069440  0.49450194  1  0.049508  0  0.085317  0.163005  0  1.012749  0
H  H46  1  0.39872712  0.63928390  0.00546854  1  0.051564  0  0.085342  0.163199  0  1.013089  0
H  H47  1  0.59572531  0.86072686  0.00538587  1  -0.00613  0  0.084807  0.162375  0  1.013661  0
H  H48  1  0.03818397  0.36076394  0.50542180  1  -0.005229  0  0.085052  0.162578  0  1.013617  0
H  H49  1  0.45641645  0.13930377  0.50550015  1  0.049454  0  0.085325  0.162983  0  1.012767  0
H  H50  1  0.60127114  0.36071330  0.99453302  1  0.051379  0  0.085344  0.163184  0  1.013032  0
H  H51  1  0.40427169  0.13927801  0.99461543  1  -0.006089  0  0.084858  0.162433  0  1.01356  0
H  H52  1  0.85107519  0.58336482  0.57917427  1  0.01981  0  0.079996  0.148381  0  1.043713  0
H  H53  1  0.56967639  0.91663124  0.57908747  1  -0.007815  0  0.079424  0.147342  0  1.044804  0
H  H54  1  0.56545636  0.58320056  0.92093243  1  0.023281  0  0.079619  0.148082  0  1.044345  0
H  H55  1  0.51351130  0.91678209  0.92085754  1  0.022179  0  0.079854  0.148385  0  1.044842  0
H  H56  1  0.14892420  0.41663526  0.42082702  1  0.019817  0  0.079986  0.148398  0  1.043686  0
H  H57  1  0.43031822  0.08336788  0.42091563  1  -0.007857  0  0.079404  0.147336  0  1.044837  0
H  H58  1  0.43454206  0.41679856  0.07906801  1  0.02332  0  0.079628  0.148081  0  1.044365  0
H  H59  1  0.48648313  0.08322277  0.07914401  1  0.022215  0  0.079841  0.14838  0  1.044885  0
H  H60  1  0.04338587  0.59272032  0.57978687  1  0.045883  0  0.082858  0.156273  0  1.047351  0
H  H61  1  0.37679126  0.90718672  0.57971564  1  0.041982  0  0.082479  0.155802  0  1.04708  0
H  H62  1  0.36372402  0.59277807  0.92025029  1  0.027501  0  0.082806  0.155963  0  1.047075  0
H  H63  1  0.71590438  0.90726964  0.92016424  1  0.04634  0  0.082824  0.156133  0  1.045613  0
H  H64  1  0.95661456  0.40727880  0.42021386  1  0.045908  0  0.082859  0.156284  0  1.047367  0
H  H65  1  0.62320479  0.09281240  0.42028831  1  0.04205  0  0.082468  0.155831  0  1.047057  0
H  H66  1  0.63627280  0.40722201  0.07975127  1  0.027623  0  0.082806  0.155941  0  1.047087  0
H  H67  1  0.28409260  0.09273235  0.07983619  1  0.046376  0  0.082796  0.156112  0  1.045658  0
H  H68  1  0.86322485  0.73577789  0.58012226  1  0.0121  0  0.078171  0.147168  0  1.057871  0
H  H69  1  0.55667438  0.76417993  0.58004140  1  0.014517  0  0.078509  0.147541  0  1.058321  0
H  H70  1  0.40108969  0.73569413  0.91987837  1  0.045809  0  0.07858  0.147724  0  1.058503  0
H  H71  1  0.67899759  0.76432195  0.91978088  1  0.042952  0  0.078411  0.147473  0  1.058656  0
H  H72  1  0.13677450  0.26422314  0.41987974  1  0.012117  0  0.078193  0.147197  0  1.057876  0
H  H73  1  0.44331615  0.23582111  0.41996252  1  0.014521  0  0.078547  0.147552  0  1.05829  0
H  H74  1  0.59890805  0.26430499  0.08012390  1  0.045761  0  0.078585  0.147736  0  1.058495  0
H  H75  1  0.32099723  0.23568100  0.08022124  1  0.042865  0  0.078383  0.147461  0  1.058714  0
C  C76  1  0.59608457  0.64095783  0.36525836  1  1.575714  0  0.255168  0.662792  0  4.116141  0
C  C77  1  0.03872392  0.85901114  0.36527507  1  1.57623  0  0.255765  0.665286  0  4.112471  0
C  C78  1  0.76304418  0.64101291  0.13468363  1  1.566017  0  0.255075  0.665148  0  4.111179  0
C  C79  1  0.10244267  0.85892107  0.13465135  1  1.559262  0  0.2554  0.66485  0  4.110447  0
C  C80  1  0.40392581  0.35904416  0.63474018  1  1.574788  0  0.255156  0.662726  0  4.115687  0
C  C81  1  0.96127170  0.14098894  0.63472310  1  1.575924  0  0.255864  0.665413  0  4.112015  0
C  C82  1  0.23696434  0.35897951  0.86531008  1  1.565841  0  0.255047  0.66515  0  4.111182  0
C  C83  1  0.89757241  0.14107901  0.86534001  1  1.55881  0  0.255489  0.664867  0  4.110385  0
C  C84  1  0.54460157  0.56995119  0.43542690  1  -0.067032  0  -0.006614  -0.038144  0  3.941579  0
C  C85  1  0.02006285  0.93006022  0.43543683  1  -0.02887  0  -0.007286  -0.03948  0  3.944079  0
C  C86  1  0.88560289  0.56978435  0.06461759  1  -0.054561  0  -0.006497  -0.037681  0  3.941518  0
C  C87  1  0.04990436  0.93012155  0.06457331  1  -0.006629  0  -0.006752  -0.038219  0  3.940619  0
C  C88  1  0.45540604  0.43004984  0.56457374  1  -0.066939  0  -0.006586  -0.038122  0  3.941515  0
C  C89  1  0.97994333  0.06994177  0.56455788  1  -0.028901  0  -0.007274  -0.039289  0  3.943513  0
C  C90  1  0.11441075  0.43020711  0.93538066  1  -0.054435  0  -0.006422  -0.037777  0  3.941532  0
C  C91  1  0.95009127  0.06987853  0.93542486  1  -0.00662  0  -0.006733  -0.038197  0  3.940533  0
C  C92  1  0.44195458  0.11630270  0.24989008  1  -0.060461  0  -0.006532  -0.043761  0  3.949795  0
C  C93  1  0.30842941  0.38353670  0.24983495  1  -0.064887  0  -0.006316  -0.044655  0  3.951442  0
C  C94  1  0.55803819  0.88369834  0.75011160  1  -0.060439  0  -0.006518  -0.043758  0  3.949853  0
C  C95  1  0.69156397  0.61646434  0.75016038  1  -0.06502  0  -0.006443  -0.044835  0  3.951573  0
C  C96  1  0.51332891  0.97338821  0.25018901  1  1.549171  0  0.25127  0.655044  0  4.136901  0
C  C97  1  0.23671594  0.52646226  0.25013219  1  1.531477  0  0.251922  0.656824  0  4.133289  0
C  C98  1  0.48666178  0.02661474  0.74981379  1  1.549107  0  0.251183  0.654951  0  4.13719  0
C  C99  1  0.76329309  0.47354069  0.74986494  1  1.531413  0  0.25187  0.656797  0  4.133265  0
C  C100  1  0.58704802  0.46973918  0.55879411  1  -0.081731  0  -0.072874  -0.083427  0  3.942759  0
C  C101  1  0.85409881  0.03024914  0.55877297  1  -0.043132  0  -0.072989  -0.083584  0  3.941738  0
C  C102  1  0.94311119  0.46991894  0.94114487  1  0.003528  0  -0.072831  -0.083906  0  3.939968  0
C  C103  1  0.11566634  0.03019679  0.94117223  1  -0.024459  0  -0.072873  -0.083341  0  3.938815  0
C  C104  1  0.41295610  0.53026281  0.44120609  1  -0.081723  0  -0.072953  -0.083585  0  3.9427  0
C  C105  1  0.14590540  0.96975190  0.44122074  1  -0.042758  0  -0.073085  -0.083567  0  3.942029  0
C  C106  1  0.05690349  0.53006869  0.05885196  1  0.003676  0  -0.072825  -0.084018  0  3.940005  0
C  C107  1  0.88433585  0.96980041  0.05882541  1  -0.024629  0  -0.072821  -0.083208  0  3.938757  0
C  C108  1  0.63088128  0.53960327  0.49464556  1  0.037972  0  -0.073062  -0.088129  0  3.963002  0
C  C109  1  0.87448230  0.96038471  0.49461867  1  -0.020477  0  -0.072199  -0.087282  0  3.964413  0
C  C110  1  0.82948336  0.53967755  0.00537298  1  -0.081079  0  -0.073132  -0.088055  0  3.962245  0
C  C111  1  0.16512434  0.96040500  0.00537435  1  -0.068568  0  -0.072486  -0.088075  0  3.962559  0
C  C112  1  0.36912293  0.46039968  0.50535408  1  0.038041  0  -0.073049  -0.08806  0  3.962894  0
C  C113  1  0.12552316  0.03961633  0.50537264  1  -0.019942  0  -0.07208  -0.08729  0  3.964232  0
C  C114  1  0.17052727  0.46031103  0.99462397  1  -0.081299  0  -0.073247  -0.088052  0  3.962478  0
C  C115  1  0.83487590  0.03959699  0.99462399  1  -0.067947  0  -0.072522  -0.088023  0  3.962547  0
C  C116  1  0.54332522  0.18333882  0.25017267  1  0.053307  0  -0.06975  -0.07661  0  3.938721  0
C  C117  1  0.20681646  0.31649007  0.25009763  1  0.060378  0  -0.069395  -0.07567  0  3.94037  0
C  C118  1  0.27356837  0.18346285  0.24944121  1  -0.080976  0  -0.069381  -0.077406  0  3.938759  0
C  C119  1  0.47723429  0.31638131  0.24948285  1  -0.077057  0  -0.06919  -0.076697  0  3.938244  0
C  C120  1  0.45667019  0.81665647  0.74983155  1  0.053297  0  -0.069761  -0.076673  0  3.938694  0
C  C121  1  0.79317622  0.68351575  0.74989602  1  0.060524  0  -0.069329  -0.075627  0  3.940154  0
C  C122  1  0.72642425  0.81654297  0.75055822  1  -0.080703  0  -0.069376  -0.077408  0  3.938947  0
C  C123  1  0.52276173  0.68361686  0.75051588  1  -0.07726  0  -0.069131  -0.076546  0  3.938489  0
C  C124  1  0.81999766  0.25010899  0.35974697  1  -0.102735  0  -0.338316  -0.610484  0  3.85465  0
C  C125  1  0.92982982  0.25000621  0.14013174  1  -0.103351  0  -0.338932  -0.61326  0  3.854848  0
C  C126  1  0.17999743  0.74989204  0.64025698  1  -0.103024  0  -0.338339  -0.61056  0  3.8545  0
C  C127  1  0.07016307  0.74999387  0.85987374  1  -0.103307  0  -0.338983  -0.613342  0  3.85494  0
C  C128  1  0.93016492  0.63780039  0.55810498  1  -0.072389  0  -0.337578  -0.609153  0  3.844331  0
C  C129  1  0.51169531  0.86214914  0.55802805  1  -0.097936  0  -0.337276  -0.60839  0  3.844351  0
C  C130  1  0.43192236  0.63777307  0.94194130  1  -0.148421  0  -0.33803  -0.610006  0  3.845002  0
C  C131  1  0.62605284  0.86224175  0.94185826  1  -0.105522  0  -0.337525  -0.609447  0  3.844488  0
C  C132  1  0.06983547  0.36219969  0.44189646  1  -0.07229  0  -0.337598  -0.609202  0  3.844361  0
C  C133  1  0.48829738  0.13785094  0.44197419  1  -0.097954  0  -0.337295  -0.608424  0  3.844352  0
C  C134  1  0.56807542  0.36222510  0.05806026  1  -0.148357  0  -0.338044  -0.609986  0  3.844985  0
C  C135  1  0.37394158  0.13776312  0.05814330  1  -0.105564  0  -0.337507  -0.609459  0  3.844569  0
O  O136  1  0.72163481  0.66979619  0.36028425  1  -1.191314  0  -0.357811  -0.624939  0  2.236773  0
O  O137  1  0.91813810  0.83013892  0.36034760  1  -1.191935  0  -0.358189  -0.626154  0  2.234537  0
O  O138  1  0.60866805  0.66986697  0.13959889  1  -1.184601  0  -0.357511  -0.625825  0  2.233755  0
O  O139  1  0.25193531  0.83000609  0.13952825  1  -1.18742  0  -0.358063  -0.626325  0  2.234554  0
O  O140  1  0.27837784  0.33019814  0.63971470  1  -1.191416  0  -0.357823  -0.624867  0  2.236442  0
O  O141  1  0.08186617  0.16986978  0.63964797  1  -1.192056  0  -0.358297  -0.626362  0  2.23398  0
O  O142  1  0.39134936  0.33013789  0.86040154  1  -1.184551  0  -0.357561  -0.625898  0  2.233226  0
O  O143  1  0.74805814  0.16999495  0.86047160  1  -1.187307  0  -0.358157  -0.626426  0  2.234197  0
O  O144  1  0.43177310  0.91672617  0.23077698  1  -1.201718  0  -0.366385  -0.650105  0  2.30895  0
O  O145  1  0.33766548  0.58313917  0.23074098  1  -1.194124  0  -0.366559  -0.650963  0  2.307889  0
O  O146  1  0.65121616  0.91698922  0.26998444  1  -1.205227  0  -0.366554  -0.650281  0  2.307079  0
O  O147  1  0.07903324  0.58285600  0.26990655  1  -1.191656  0  -0.366945  -0.651388  0  2.305823  0
O  O148  1  0.56822055  0.08327487  0.76922611  1  -1.201652  0  -0.366312  -0.650041  0  2.308934  0
O  O149  1  0.66233679  0.41686091  0.76926202  1  -1.19399  0  -0.366507  -0.650934  0  2.307613  0
O  O150  1  0.34877717  0.08301182  0.73001668  1  -1.205254  0  -0.366572  -0.65026  0  2.307298  0
O  O151  1  0.92096481  0.41714887  0.73008910  1  -1.191722  0  -0.366926  -0.651343  0  2.305942  0
O  O152  1  0.51300121  0.66745464  0.31352368  1  -1.207814  0  -0.37549  -0.667601  0  2.367701  0
O  O153  1  0.17351682  0.83249908  0.31351695  1  -1.209537  0  -0.375518  -0.668769  0  2.367006  0
O  O154  1  0.81950394  0.66785586  0.18635927  1  -1.209401  0  -0.375141  -0.669092  0  2.36662  0
O  O155  1  0.99423879  0.83221786  0.18637754  1  -1.21218  0  -0.37492  -0.668485  0  2.365839  0
O  O156  1  0.48701113  0.33254831  0.68647587  1  -1.206943  0  -0.375485  -0.667617  0  2.367484  0
O  O157  1  0.82648916  0.16749143  0.68648139  1  -1.209523  0  -0.375498  -0.668741  0  2.36715  0
O  O158  1  0.18052799  0.33213847  0.81363994  1  -1.209392  0  -0.37502  -0.668975  0  2.367446  0
O  O159  1  0.00575622  0.16778031  0.81362104  1  -1.211916  0  -0.374884  -0.668408  0  2.366284  0
