# generated using pymatgen
data_GdH11C16N2O5
_symmetry_space_group_name_H-M   'P 1'
_cell_length_a   8.32231802
_cell_length_b   14.07975590
_cell_length_c   13.99186248
_cell_angle_alpha   84.98349788
_cell_angle_beta   72.69854295
_cell_angle_gamma   72.90109834
_symmetry_Int_Tables_number   1
_chemical_formula_structural   GdH11C16N2O5
_chemical_formula_sum   'Gd4 H44 C64 N8 O20'
_cell_volume   1496.14096413
_cell_formula_units_Z   4
loop_
 _symmetry_equiv_pos_site_id
 _symmetry_equiv_pos_as_xyz
  1  'x, y, z'
loop_
 _atom_site_type_symbol
 _atom_site_label
 _atom_site_symmetry_multiplicity
 _atom_site_fract_x
 _atom_site_fract_y
 _atom_site_fract_z
 _atom_site_occupancy
 _atom_site_hle17_bader_spin_density
 _atom_site_hle17_ddec_charge
 _atom_site_hle17_ddec_spin_density
 _atom_site_hle17_ddec_sum_bond_order
 _atom_site_hle17_magmom
 _atom_site_hse06_10hf_bader_spin_density
 _atom_site_hse06_10hf_ddec_charge
 _atom_site_hse06_10hf_ddec_spin_density
 _atom_site_hse06_10hf_ddec_sum_bond_order
 _atom_site_hse06_10hf_magmom
 _atom_site_hse06_bader_spin_density
 _atom_site_hse06_ddec_charge
 _atom_site_hse06_ddec_spin_density
 _atom_site_hse06_ddec_sum_bond_order
 _atom_site_hse06_magmom
 _atom_site_pbe_bader_charge
 _atom_site_pbe_bader_spin_density
 _atom_site_pbe_cm5_charge
 _atom_site_pbe_ddec_charge
 _atom_site_pbe_ddec_spin_density
 _atom_site_pbe_ddec_sum_bond_order
 _atom_site_pbe_magmom
Gd  Gd0  1  0.22061170  0.86028166  0.02361818  1  0  2.19853  0  1.843825  0  0  2.099577  0  2.220577  0  0  2.156779  0  2.158433  0  2.15626  0  1.460903  2.056141  0  2.268465  0
Gd  Gd1  1  0.92012009  0.97627066  0.85957726  1  0  2.196295  0  1.840497  0  0  2.097023  0  2.2166  0  0  2.153706  0  2.1555  0  2.153686  0  1.459141  2.053286  0  2.264857  0
Gd  Gd2  1  0.10456729  0.13977230  0.97654830  1  0  2.197547  0  1.84341  0  0  2.098356  0  2.220454  0  0  2.155771  0  2.157943  0  2.155955  0  1.460621  2.054908  0  2.268338  0
Gd  Gd3  1  0.75579599  0.02367830  0.14047095  1  0  2.197669  0  1.839581  0  0  2.097995  0  2.216685  0  0  2.155085  0  2.154789  0  2.154606  0  1.459466  2.05426  0  2.265008  0
H  H4  1  0.28324639  0.97073800  0.84623472  1  0  0.431129  0  0.861557  0  0  0.407489  0  0.915401  0  0  0.41612  0  0.902832  0  0.608981  0  0.309692  0.401361  0  0.924281  0
H  H5  1  0.74837461  0.15226082  0.96969438  1  0  0.432416  0  0.860272  0  0  0.408657  0  0.914075  0  0  0.417353  0  0.901414  0  0.606252  0  0.310286  0.40245  0  0.923084  0
H  H6  1  0.09981490  0.02944817  0.15390407  1  0  0.430819  0  0.862218  0  0  0.407307  0  0.915967  0  0  0.415923  0  0.903434  0  0.601127  0  0.309485  0.401172  0  0.924856  0
H  H7  1  0.87016607  0.84770460  0.03035383  1  0  0.433265  0  0.859714  0  0  0.409262  0  0.913943  0  0  0.417983  0  0.90123  0  0.604643  0  0.31031  0.403054  0  0.922962  0
H  H8  1  0.98438234  0.98502856  0.59109906  1  0  0.098641  0  0.935121  0  0  0.102084  0  1.004589  0  0  0.105752  0  1.001411  0  0.129619  0  0.12782  0.099415  0  1.006986  0
H  H9  1  0.03147854  0.40698696  0.98436189  1  0  0.097862  0  0.931778  0  0  0.101922  0  1.000266  0  0  0.105603  0  0.99707  0  0.116256  0  0.127364  0.099209  0  1.002692  0
H  H10  1  0.56020948  0.01512272  0.40914003  1  0  0.098342  0  0.935737  0  0  0.101817  0  1.005204  0  0  0.105564  0  1.001939  0  0.125215  0  0.127614  0.099097  0  1.007652  0
H  H11  1  0.42219682  0.59275217  0.01574920  1  0  0.098021  0  0.933114  0  0  0.101761  0  1.00169  0  0  0.105502  0  0.998449  0  0.130395  0  0.127435  0.099061  0  1.004087  0
H  H12  1  0.82471689  0.96486801  0.47035821  1  0  0.091485  0  0.929198  0  0  0.096646  0  0.994258  0  0  0.099999  0  0.991791  0  0.108371  0  0.121008  0.094171  0  0.996185  0
H  H13  1  0.21102399  0.52730055  0.96444914  1  0  0.090627  0  0.927261  0  0  0.09595  0  0.992125  0  0  0.099343  0  0.989615  0  0.129352  0  0.120503  0.093461  0  0.994062  0
H  H14  1  0.25983530  0.03547634  0.53002161  1  0  0.090477  0  0.92829  0  0  0.095572  0  0.993726  0  0  0.098993  0  0.991178  0  0.104888  0  0.120585  0.093061  0  0.995698  0
H  H15  1  0.70185200  0.47259208  0.03571585  1  0  0.091213  0  0.92739  0  0  0.096035  0  0.992696  0  0  0.099409  0  0.990199  0  0.126818  0  0.120692  0.093553  0  0.994636  0
H  H16  1  0.47342293  0.85910396  0.70128506  1  0  0.098664  0  0.922514  0  0  0.106098  0  0.982408  0  0  0.10989  0  0.979601  0  0.109549  0  0.125199  0.103312  0  0.98461  0
H  H17  1  0.66793722  0.29851205  0.85903005  1  0  0.098882  0  0.922959  0  0  0.106792  0  0.982227  0  0  0.110532  0  0.979469  0  0.116514  0  0.125046  0.104012  0  0.984407  0
H  H18  1  0.03391695  0.14106043  0.29920630  1  0  0.098518  0  0.922525  0  0  0.106318  0  0.982077  0  0  0.110008  0  0.979358  0  0.112419  0  0.124958  0.103528  0  0.984291  0
H  H19  1  0.82551062  0.70169639  0.14061094  1  0  0.098049  0  0.924081  0  0  0.105523  0  0.983789  0  0  0.109256  0  0.981068  0  0.100445  0  0.124498  0.102759  0  0.985946  0
H  H20  1  0.90097288  0.71418404  0.86054516  1  0  0.098402  0  0.975596  0  0  0.108124  0  1.038444  0  0  0.111087  0  1.037942  0  0.065161  0  0.102006  0.105977  0  1.038923  0
H  H21  1  0.38455470  0.13927595  0.71446441  1  0  0.098191  0  0.977555  0  0  0.108158  0  1.040141  0  0  0.111215  0  1.039496  0  0.070925  0  0.102247  0.105961  0  1.040674  0
H  H22  1  0.47515934  0.28551756  0.13923506  1  0  0.098435  0  0.976119  0  0  0.108422  0  1.038565  0  0  0.111372  0  1.038019  0  0.058833  0  0.10256  0.106331  0  1.038957  0
H  H23  1  0.23721561  0.86107929  0.28551044  1  0  0.097929  0  0.977933  0  0  0.107829  0  1.040796  0  0  0.110898  0  1.040121  0  0.097997  0  0.101948  0.105615  0  1.041365  0
H  H24  1  0.68369776  0.63086121  0.85120598  1  0  0.088338  0  0.967199  0  0  0.099366  0  1.027881  0  0  0.101885  0  1.027427  0  0.055361  0  0.098977  0.097492  0  1.028373  0
H  H25  1  0.68539987  0.14865213  0.63111096  1  0  0.087843  0  0.96674  0  0  0.099161  0  1.02706  0  0  0.101681  0  1.026592  0  0.086661  0  0.098806  0.097358  0  1.027454  0
H  H26  1  0.16534255  0.36828944  0.14870973  1  0  0.088074  0  0.968282  0  0  0.099344  0  1.028703  0  0  0.101757  0  1.028407  0  0.053203  0  0.099082  0.097508  0  1.029127  0
H  H27  1  0.46443627  0.85181450  0.36860338  1  0  0.088821  0  0.96781  0  0  0.099479  0  1.028741  0  0  0.102003  0  1.028298  0  0.057309  0  0.099008  0.097667  0  1.029129  0
H  H28  1  0.78122420  0.46640395  0.76634267  1  0  0.088569  0  0.962414  0  0  0.099222  0  1.024798  0  0  0.101838  0  1.023961  0  0.061594  0  0.098066  0.097339  0  1.025456  0
H  H29  1  0.75332804  0.23406646  0.46610183  1  0  0.088347  0  0.961108  0  0  0.098416  0  1.024309  0  0  0.101009  0  1.023484  0  0.073997  0  0.098259  0.096541  0  1.024966  0
H  H30  1  0.01353209  0.53273213  0.23352738  1  0  0.088972  0  0.959477  0  0  0.099368  0  1.022294  0  0  0.102008  0  1.021424  0  0.08671  0  0.098401  0.097477  0  1.022963  0
H  H31  1  0.45308968  0.76621405  0.53346579  1  0  0.088232  0  0.962905  0  0  0.098943  0  1.02535  0  0  0.101623  0  1.024404  0  0.065487  0  0.097885  0.097014  0  1.02607  0
H  H32  1  0.09632545  0.39142295  0.68120987  1  0  0.087398  0  1.012296  0  0  0.095454  0  1.078806  0  0  0.096872  0  1.080647  0  0.109028  0  0.094846  0.094415  0  1.077608  0
H  H33  1  0.51397305  0.31942678  0.39079254  1  0  0.087076  0  1.015254  0  0  0.095372  0  1.08124  0  0  0.096742  0  1.083113  0  0.096296  0  0.094967  0.094325  0  1.080055  0
H  H34  1  0.16816536  0.60810158  0.31877696  1  0  0.088225  0  1.011264  0  0  0.096229  0  1.077617  0  0  0.097642  0  1.079429  0  0.106758  0  0.095126  0.095181  0  1.076465  0
H  H35  1  0.22398366  0.68050258  0.60889635  1  0  0.085839  0  1.016418  0  0  0.093665  0  1.083162  0  0  0.095039  0  1.085046  0  0.108187  0  0.094206  0.092645  0  1.081949  0
H  H36  1  0.40297746  0.40051122  0.62829409  1  0  0.09293  0  0.982089  0  0  0.102293  0  1.046869  0  0  0.104131  0  1.047948  0  0.086975  0  0.096338  0.100971  0  1.046176  0
H  H37  1  0.19873435  0.37222817  0.39953361  1  0  0.092038  0  0.985408  0  0  0.101753  0  1.049935  0  0  0.103452  0  1.051174  0  0.106816  0  0.096092  0.100524  0  1.049134  0
H  H38  1  0.43061804  0.59939445  0.37177882  1  0  0.093136  0  0.981648  0  0  0.102631  0  1.046318  0  0  0.104451  0  1.047392  0  0.051175  0  0.096486  0.10132  0  1.045624  0
H  H39  1  0.96993962  0.62767764  0.60036863  1  0  0.092481  0  0.98458  0  0  0.102183  0  1.049042  0  0  0.103914  0  1.050235  0  0.094902  0  0.0964  0.100938  0  1.04826  0
H  H40  1  0.62190570  0.48534958  0.63519667  1  0  0.081985  0  0.956895  0  0  0.095832  0  1.014136  0  0  0.098427  0  1.013387  0  0.027142  0  0.098364  0.093985  0  1.014737  0
H  H41  1  0.89471627  0.36522369  0.48432506  1  0  0.082051  0  0.954239  0  0  0.096012  0  1.011421  0  0  0.098527  0  1.010746  0  0.047469  0  0.098301  0.094228  0  1.011922  0
H  H42  1  0.74111040  0.51505790  0.36490020  1  0  0.083612  0  0.9556  0  0  0.097296  0  1.012975  0  0  0.099934  0  1.012147  0  0.05459  0  0.098575  0.095439  0  1.013581  0
H  H43  1  0.74308491  0.63486264  0.51596718  1  0  0.083324  0  0.956341  0  0  0.097185  0  1.013583  0  0  0.099713  0  1.012914  0  0.067755  0  0.098661  0.095361  0  1.014127  0
H  H44  1  0.52776338  0.64048407  0.73536228  1  0  0.093753  0  0.952272  0  0  0.106322  0  1.012106  0  0  0.109101  0  1.011048  0  0.060025  0  0.102814  0.104324  0  1.012916  0
H  H45  1  0.83261473  0.26451473  0.63969708  1  0  0.091246  0  0.954509  0  0  0.103688  0  1.014591  0  0  0.106395  0  1.013636  0  0.070359  0  0.101476  0.101702  0  1.015379  0
H  H46  1  0.90240044  0.36018656  0.26446884  1  0  0.091593  0  0.953111  0  0  0.104255  0  1.013083  0  0  0.106937  0  1.012135  0  0.075311  0  0.102085  0.102322  0  1.013804  0
H  H47  1  0.73568516  0.73558806  0.36061238  1  0  0.091894  0  0.952134  0  0  0.10455  0  1.011885  0  0  0.107258  0  1.010916  0  0.060513  0  0.102223  0.102573  0  1.012674  0
C  C48  1  0.67699303  0.89753063  0.74288468  1  0  0.050773  0  3.725827  0  0  0.058187  0  3.969215  0  0  0.055248  0  3.988322  0  0.470128  0  0.12125  0.059739  0  3.95657  0
C  C49  1  0.42627061  0.25665305  0.89734718  1  0  0.052152  0  3.724886  0  0  0.058879  0  3.969523  0  0  0.055806  0  3.988876  0  0.506112  0  0.12165  0.060483  0  3.956807  0
C  C50  1  0.31737318  0.10222247  0.25740607  1  0  0.055303  0  3.722714  0  0  0.062475  0  3.965815  0  0  0.059516  0  3.985001  0  0.476887  0  0.12274  0.064019  0  3.95316  0
C  C51  1  0.58011535  0.74337182  0.10252212  1  0  0.051033  0  3.723599  0  0  0.059209  0  3.965839  0  0  0.056194  0  3.985128  0  0.505214  0  0.1219  0.060766  0  3.953215  0
C  C52  1  0.87151275  0.95536600  0.61556987  1  0  0.106913  0  3.658967  0  0  0.079659  0  3.921923  0  0  0.082251  0  3.937541  0  0.500933  0  0.072337  0.077783  0  3.911353  0
C  C53  1  0.17397657  0.38284920  0.95483823  1  0  0.108476  0  3.657195  0  0  0.081017  0  3.920296  0  0  0.083571  0  3.935985  0  0.545959  0  0.073317  0.079215  0  3.909723  0
C  C54  1  0.44226909  0.04470135  0.38468644  1  0  0.105994  0  3.658008  0  0  0.078752  0  3.921228  0  0  0.081259  0  3.936888  0  0.493671  0  0.072295  0.076935  0  3.910649  0
C  C55  1  0.51116928  0.61697839  0.04518378  1  0  0.10604  0  3.658692  0  0  0.079184  0  3.921105  0  0  0.081642  0  3.936796  0  0.533991  0  0.07263  0.077415  0  3.9105  0
C  C56  1  0.78117793  0.94471604  0.54899641  1  0  0.086217  0  3.679425  0  0  0.059021  0  3.947016  0  0  0.061356  0  3.963827  0  0.540762  0  0.064642  0.057496  0  3.935673  0
C  C57  1  0.27477659  0.44924104  0.94428936  1  0  0.08782  0  3.679977  0  0  0.060764  0  3.947639  0  0  0.063025  0  3.964531  0  0.4626  0  0.065193  0.059281  0  3.936239  0
C  C58  1  0.27479112  0.05549035  0.45135722  1  0  0.090338  0  3.673997  0  0  0.063042  0  3.941947  0  0  0.065295  0  3.958816  0  0.54673  0  0.06688  0.061553  0  3.930594  0
C  C59  1  0.66759041  0.55070352  0.05573789  1  0  0.087458  0  3.678382  0  0  0.060787  0  3.94549  0  0  0.063081  0  3.962369  0  0.50155  0  0.064799  0.059284  0  3.934101  0
C  C60  1  0.58867023  0.88697361  0.67545335  1  0  0.071976  0  3.663037  0  0  0.043245  0  3.916456  0  0  0.045889  0  3.932461  0  0.546001  0  0.062035  0.041276  0  3.906213  0
C  C61  1  0.52491699  0.32395063  0.88675489  1  0  0.070499  0  3.668002  0  0  0.041467  0  3.922235  0  0  0.044355  0  3.937876  0  0.495026  0  0.060732  0.039518  0  3.91194  0
C  C62  1  0.15111635  0.11307115  0.32496540  1  0  0.0687  0  3.665109  0  0  0.039316  0  3.919479  0  0  0.042235  0  3.935082  0  0.549697  0  0.059993  0.037379  0  3.909215  0
C  C63  1  0.73541418  0.67622401  0.11299239  1  0  0.070721  0  3.664088  0  0  0.041429  0  3.918074  0  0  0.044295  0  3.933701  0  0.506211  0  0.060265  0.039477  0  3.907819  0
C  C64  1  0.61775139  0.87406587  0.85294267  1  0  0.684867  0  3.893165  0  0  0.633395  0  4.197143  0  0  0.66878  0  4.185821  0  1.622376  0  0.237665  0.609392  0  4.204093  0
C  C65  1  0.50897252  0.14726436  0.87395282  1  0  0.678484  0  3.898934  0  0  0.626868  0  4.203733  0  0  0.662258  0  4.192548  0  1.597595  0  0.234319  0.60284  0  4.210655  0
C  C66  1  0.34470777  0.12564656  0.14732263  1  0  0.67887  0  3.898491  0  0  0.628091  0  4.201571  0  0  0.663435  0  4.190451  0  1.618934  0  0.235169  0.604079  0  4.208457  0
C  C67  1  0.53012109  0.85274427  0.12603999  1  0  0.681882  0  3.897311  0  0  0.630499  0  4.200751  0  0  0.665823  0  4.189593  0  1.627764  0  0.235151  0.606486  0  4.207686  0
C  C68  1  0.25532922  0.64675973  0.77974883  1  0  -0.097028  0  3.721772  0  0  -0.076789  0  3.951823  0  0  -0.082025  0  3.970253  0  -0.04393  0  -0.010682  -0.073466  0  3.939559  0
C  C69  1  0.09837177  0.22026843  0.64620890  1  0  -0.100663  0  3.724805  0  0  -0.080767  0  3.955301  0  0  -0.086036  0  3.973701  0  -0.109965  0  -0.012108  -0.077505  0  3.94316  0
C  C70  1  0.68100277  0.35346657  0.21997973  1  0  -0.096933  0  3.720303  0  0  -0.076929  0  3.950704  0  0  -0.082094  0  3.968926  0  -0.10427  0  -0.010995  -0.07371  0  3.938627  0
C  C71  1  0.96404581  0.77979591  0.35383781  1  0  -0.101136  0  3.726566  0  0  -0.081215  0  3.956351  0  0  -0.086486  0  3.974746  0  -0.03432  0  -0.011798  -0.077891  0  3.94409  0
C  C72  1  0.12573052  0.60125722  0.77495124  1  0  0.028369  0  3.780396  0  0  0.038621  0  4.003766  0  0  0.038889  0  4.027317  0  0.020248  0  -0.007933  0.038482  0  3.987886  0
C  C73  1  0.27358414  0.22521265  0.60099818  1  0  0.027372  0  3.779406  0  0  0.037753  0  4.002453  0  0  0.038002  0  4.026086  0  0.018333  0  -0.008079  0.037633  0  3.986539  0
C  C74  1  0.50119519  0.39863730  0.22482224  1  0  0.026211  0  3.781437  0  0  0.036725  0  4.004145  0  0  0.036908  0  4.027781  0  0.016416  0  -0.007864  0.036631  0  3.988238  0
C  C75  1  0.09905269  0.77490028  0.39897667  1  0  0.030172  0  3.78372  0  0  0.041146  0  4.005932  0  0  0.041349  0  4.029652  0  -0.027563  0  -0.006414  0.041045  0  3.989946  0
C  C76  1  0.94408237  0.64343787  0.82156554  1  0  -0.119092  0  3.732265  0  0  -0.139696  0  3.982808  0  0  -0.142974  0  4.004322  0  -0.094558  0  -0.096063  -0.137473  0  3.968228  0
C  C77  1  0.41260597  0.17836858  0.64344593  1  0  -0.117537  0  3.732501  0  0  -0.138332  0  3.982772  0  0  -0.141725  0  4.004339  0  -0.119783  0  -0.095527  -0.136026  0  3.968179  0
C  C78  1  0.40848163  0.35623612  0.17819297  1  0  -0.117459  0  3.734657  0  0  -0.138484  0  3.98522  0  0  -0.141725  0  4.006782  0  0.04917  0  -0.096454  -0.13627  0  3.970604  0
C  C79  1  0.23362261  0.82189725  0.35644658  1  0  -0.119675  0  3.73686  0  0  -0.140768  0  3.987044  0  0  -0.144161  0  4.008661  0  -0.099713  0  -0.096824  -0.138462  0  3.972422  0
C  C80  1  0.82277490  0.59648889  0.81663769  1  0  -0.078175  0  3.797216  0  0  -0.091612  0  4.048679  0  0  -0.093229  0  4.070778  0  -0.033571  0  -0.09815  -0.090328  0  4.03353  0
C  C81  1  0.58101504  0.18333204  0.59649252  1  0  -0.079656  0  3.798544  0  0  -0.093372  0  4.050059  0  0  -0.094975  0  4.072204  0  -0.036246  0  -0.098709  -0.09215  0  4.034887  0
C  C82  1  0.23543626  0.40290099  0.18320765  1  0  -0.079071  0  3.80019  0  0  -0.092758  0  4.051779  0  0  -0.094327  0  4.073943  0  -0.162077  0  -0.098404  -0.091493  0  4.036617  0
C  C83  1  0.36020503  0.81695529  0.40324054  1  0  -0.078925  0  3.802689  0  0  -0.091964  0  4.054011  0  0  -0.093607  0  4.076216  0  -0.03911  0  -0.09857  -0.090709  0  4.038792  0
C  C84  1  0.87809142  0.50409526  0.76699692  1  0  -0.078757  0  3.784991  0  0  -0.091486  0  4.032546  0  0  -0.093957  0  4.05349  0  -0.021676  0  -0.095254  -0.089757  0  4.018161  0
C  C85  1  0.61870780  0.23324761  0.50381712  1  0  -0.077623  0  3.784782  0  0  -0.089812  0  4.032192  0  0  -0.092288  0  4.053161  0  -0.05002  0  -0.096267  -0.088076  0  4.017798  0
C  C86  1  0.14867887  0.49527180  0.23284394  1  0  -0.077552  0  3.781976  0  0  -0.090012  0  4.029439  0  0  -0.092473  0  4.050346  0  -0.053254  0  -0.095528  -0.08829  0  4.015075  0
C  C87  1  0.35532906  0.76692723  0.49582237  1  0  -0.079623  0  3.788718  0  0  -0.092404  0  4.036095  0  0  -0.094904  0  4.05704  0  -0.023394  0  -0.096037  -0.090631  0  4.021724  0
C  C88  1  0.05337538  0.46209527  0.71995294  1  0  -0.107636  0  3.738617  0  0  -0.125326  0  3.980556  0  0  -0.126798  0  4.001471  0  -0.067091  0  -0.089999  -0.124218  0  3.966322  0
C  C89  1  0.48585836  0.28045690  0.46161939  1  0  -0.108424  0  3.740371  0  0  -0.126341  0  3.981757  0  0  -0.127752  0  4.002655  0  -0.037619  0  -0.089701  -0.125234  0  3.96755  0
C  C90  1  0.23475808  0.53750321  0.27992984  1  0  -0.1103  0  3.737868  0  0  -0.128302  0  3.979786  0  0  -0.129727  0  4.000634  0  -0.029269  0  -0.090959  -0.127226  0  3.965596  0
C  C91  1  0.22757057  0.71951172  0.53809421  1  0  -0.105449  0  3.740399  0  0  -0.123068  0  3.982387  0  0  -0.124473  0  4.003292  0  -0.06064  0  -0.089425  -0.121995  0  3.968146  0
C  C92  1  0.18145905  0.50956228  0.72115888  1  0  0.048642  0  3.797746  0  0  0.067219  0  4.021818  0  0  0.066505  0  4.045063  0  -0.074393  0  -0.009387  0.067637  0  4.006085  0
C  C93  1  0.31020022  0.27916540  0.50902792  1  0  0.04954  0  3.794318  0  0  0.06832  0  4.017932  0  0  0.067605  0  4.041109  0  -0.061572  0  -0.01005  0.068737  0  4.002232  0
C  C94  1  0.41139394  0.49028195  0.27868421  1  0  0.048203  0  3.798353  0  0  0.067527  0  4.021149  0  0  0.066821  0  4.044403  0  -0.064577  0  -0.00934  0.067947  0  4.005402  0
C  C95  1  0.09783256  0.72082459  0.49082715  1  0  0.048823  0  3.7991  0  0  0.06724  0  4.022895  0  0  0.066527  0  4.046118  0  -0.036217  0  -0.009083  0.067649  0  4.007176  0
C  C96  1  0.36205033  0.46932999  0.67043043  1  0  -0.107444  0  3.729377  0  0  -0.128544  0  3.975959  0  0  -0.129255  0  3.996342  0  -0.018459  0  -0.090362  -0.127956  0  3.962056  0
C  C97  1  0.17038312  0.32993133  0.46849577  1  0  -0.10825  0  3.726807  0  0  -0.129839  0  3.973423  0  0  -0.130454  0  3.993839  0  -0.10452  0  -0.091135  -0.129319  0  3.959511  0
C  C98  1  0.50077924  0.53068804  0.32954292  1  0  -0.105366  0  3.729197  0  0  -0.126734  0  3.975109  0  0  -0.127392  0  3.995465  0  -0.035899  0  -0.089803  -0.126184  0  3.961236  0
C  C99  1  0.96808641  0.67003414  0.53145438  1  0  -0.106303  0  3.727935  0  0  -0.127764  0  3.974369  0  0  -0.128386  0  3.994824  0  -0.084255  0  -0.089984  -0.127224  0  3.960392  0
C  C100  1  0.48339567  0.51660807  0.67446074  1  0  -0.074473  0  3.804678  0  0  -0.089504  0  4.062986  0  0  -0.092283  0  4.084152  0  -0.011603  0  -0.096604  -0.087595  0  4.048462  0
C  C101  1  0.00157864  0.32585020  0.51573363  1  0  -0.074238  0  3.800475  0  0  -0.089324  0  4.058744  0  0  -0.092051  0  4.07989  0  -0.004408  0  -0.096285  -0.087433  0  4.044208  0
C  C102  1  0.67327971  0.48369090  0.32552758  1  0  -0.078334  0  3.804131  0  0  -0.093435  0  4.062673  0  0  -0.096243  0  4.083833  0  -0.001457  0  -0.097139  -0.091509  0  4.048166  0
C  C103  1  0.84219094  0.67419155  0.48440516  1  0  -0.077192  0  3.801721  0  0  -0.092323  0  4.060265  0  0  -0.095094  0  4.081445  0  -0.048752  0  -0.097695  -0.090379  0  4.045723  0
C  C104  1  0.43035091  0.60476011  0.73087984  1  0  -0.084581  0  3.751283  0  0  -0.111743  0  4.005885  0  0  -0.112008  0  4.025124  0  -0.075433  0  -0.089085  -0.111382  0  3.992743  0
C  C105  1  0.96576956  0.26923515  0.60404262  1  0  -0.080207  0  3.753113  0  0  -0.107175  0  4.007402  0  0  -0.107354  0  4.026586  0  -0.00909  0  -0.087586  -0.106827  0  3.994322  0
C  C106  1  0.76488859  0.39568627  0.26896177  1  0  -0.080305  0  3.74915  0  0  -0.107357  0  4.003575  0  0  -0.10759  0  4.022867  0  -0.080233  0  -0.087941  -0.107008  0  3.990421  0
C  C107  1  0.83807021  0.73082317  0.39612387  1  0  -0.082412  0  3.750359  0  0  -0.109652  0  4.005013  0  0  -0.109863  0  4.024262  0  -0.055622  0  -0.08986  -0.109311  0  3.991879  0
C  C108  1  0.19776405  0.74028161  0.83989731  1  0  0.728991  0  3.851346  0  0  0.681906  0  4.149022  0  0  0.71754  0  4.136574  0  1.594803  0  0.23712  0.657499  0  4.156916  0
C  C109  1  0.06193633  0.15971691  0.73965309  1  0  0.73155  0  3.850576  0  0  0.684403  0  4.148247  0  0  0.720113  0  4.135629  0  1.595995  0  0.238013  0.660031  0  4.156127  0
C  C110  1  0.77753146  0.26001568  0.15985896  1  0  0.730884  0  3.84491  0  0  0.683232  0  4.14367  0  0  0.718986  0  4.131048  0  1.620199  0  0.238545  0.658855  0  4.15152  0
C  C111  1  0.96074925  0.84030558  0.26034721  1  0  0.730445  0  3.848665  0  0  0.683718  0  4.145355  0  0  0.719477  0  4.1327  0  1.607173  0  0.237699  0.659326  0  4.15323  0
N  N112  1  0.81805776  0.93303649  0.71251139  1  0  -0.350461  0  3.218761  0  0  -0.312936  0  3.479665  0  0  -0.322181  0  3.496272  0  -1.219095  0  -0.340599  -0.30598  0  3.468487  0
N  N113  1  0.24975752  0.28658224  0.93266704  1  0  -0.349359  0  3.213277  0  0  -0.311543  0  3.474356  0  0  -0.320859  0  3.491024  0  -1.218038  0  -0.338968  -0.304663  0  3.463158  0
N  N114  1  0.46347791  0.06676501  0.28769552  1  0  -0.351296  0  3.215023  0  0  -0.313533  0  3.475962  0  0  -0.32285  0  3.492626  0  -1.222852  0  -0.34043  -0.306584  0  3.464762  0
N  N115  1  0.46874571  0.71326791  0.06732952  1  0  -0.347086  0  3.214601  0  0  -0.310161  0  3.475115  0  0  -0.319434  0  3.491829  0  -1.217429  0  -0.337532  -0.303288  0  3.463906  0
N  N116  1  0.63892423  0.91150921  0.57842799  1  0  -0.254603  0  3.035883  0  0  -0.223863  0  3.308289  0  0  -0.231757  0  3.324434  0  -1.168003  0  -0.296833  -0.218314  0  3.297218  0
N  N117  1  0.45012662  0.42029872  0.91117405  1  0  -0.256664  0  3.036612  0  0  -0.22613  0  3.309139  0  0  -0.234079  0  3.32534  0  -1.135228  0  -0.29787  -0.220584  0  3.29804  0
N  N118  1  0.12884663  0.08869204  0.42201247  1  0  -0.255916  0  3.034657  0  0  -0.22488  0  3.307214  0  0  -0.232843  0  3.32339  0  -1.172117  0  -0.297825  -0.219322  0  3.296113  0
N  N119  1  0.78102793  0.57983561  0.08868552  1  0  -0.25561  0  3.034602  0  0  -0.225137  0  3.306821  0  0  -0.233096  0  3.322994  0  -1.169681  0  -0.296979  -0.219579  0  3.295732  0
O  O120  1  0.48359151  0.84269583  0.88345594  1  0  -0.69869  0  2.049609  0  0  -0.6541  0  2.300645  0  0  -0.680738  0  2.29083  0  -1.198731  0  -0.3647  -0.63519  0  2.307047  0
O  O121  1  0.67442759  0.11698737  0.84303083  1  0  -0.692855  0  2.044718  0  0  -0.648434  0  2.29612  0  0  -0.674931  0  2.286318  0  -1.17444  0  -0.359861  -0.62953  0  2.302558  0
O  O122  1  0.20971547  0.15706503  0.11691116  1  0  -0.695748  0  2.049941  0  0  -0.651445  0  2.301033  0  0  -0.678131  0  2.291251  0  -1.194762  0  -0.362995  -0.632514  0  2.307424  0
O  O123  1  0.63440631  0.88316539  0.15689686  1  0  -0.696056  0  2.050957  0  0  -0.651652  0  2.302298  0  0  -0.678202  0  2.29252  0  -1.197776  0  -0.361771  -0.632746  0  2.30872  0
O  O124  1  0.70814910  0.88711373  0.90701723  1  0  -0.697457  0  2.039826  0  0  -0.657736  0  2.296887  0  0  -0.683171  0  2.28562  0  -1.18402  0  -0.376281  -0.63959  0  2.304309  0
O  O125  1  0.40540583  0.09349402  0.88648990  1  0  -0.696477  0  2.043974  0  0  -0.656972  0  2.302183  0  0  -0.682398  0  2.290537  0  -1.187008  0  -0.375673  -0.63894  0  2.309799  0
O  O126  1  0.50209865  0.11262775  0.09318593  1  0  -0.695028  0  2.042266  0  0  -0.655696  0  2.299379  0  0  -0.681008  0  2.287744  0  -1.18273  0  -0.374706  -0.637702  0  2.307127  0
O  O127  1  0.38532893  0.90635529  0.11373048  1  0  -0.697315  0  2.042076  0  0  -0.657706  0  2.299249  0  0  -0.683167  0  2.287845  0  -1.191264  0  -0.375951  -0.639665  0  2.30685  0
O  O128  1  0.22655449  0.73151100  0.92517758  1  0  -0.707515  0  1.972407  0  0  -0.664248  0  2.216098  0  0  -0.6905  0  2.203824  0  -1.188171  0  -0.386402  -0.645393  0  2.224212  0
O  O129  1  0.04261765  0.07489561  0.73010881  1  0  -0.709367  0  1.970754  0  0  -0.665812  0  2.214417  0  0  -0.691986  0  2.202068  0  -1.191741  0  -0.38619  -0.646912  0  2.22256  0
O  O130  1  0.88333096  0.26881104  0.07473813  1  0  -0.709192  0  1.968429  0  0  -0.665663  0  2.212418  0  0  -0.692001  0  2.200049  0  -1.196878  0  -0.386952  -0.646799  0  2.220523  0
O  O131  1  0.84739972  0.92508243  0.26984882  1  0  -0.708415  0  1.968375  0  0  -0.665028  0  2.211773  0  0  -0.691298  0  2.199449  0  -1.199405  0  -0.38613  -0.646099  0  2.21982  0
O  O132  1  0.12238770  0.82065743  0.80274720  1  0  -0.72524  0  1.994325  0  0  -0.686193  0  2.2417  0  0  -0.712202  0  2.22962  0  -1.205225  0  -0.384154  -0.667302  0  2.249666  0
O  O133  1  0.05617021  0.19629621  0.82096518  1  0  -0.724767  0  1.998225  0  0  -0.685758  0  2.246442  0  0  -0.711902  0  2.234173  0  -1.19568  0  -0.385766  -0.666916  0  2.254361  0
O  O134  1  0.74545200  0.17952153  0.19699559  1  0  -0.725356  0  1.991535  0  0  -0.68609  0  2.239347  0  0  -0.712137  0  2.227062  0  -1.198552  0  -0.384241  -0.667275  0  2.247374  0
O  O135  1  0.07276027  0.80370801  0.17906431  1  0  -0.724376  0  1.99742  0  0  -0.685594  0  2.245377  0  0  -0.711675  0  2.233036  0  -1.203973  0  -0.385719  -0.666766  0  2.253341  0
O  O136  1  0.17439945  0.98348333  0.90025538  1  0  -1.172679  0  1.910252  0  0  -1.12306  0  2.130762  0  0  -1.152088  0  2.105572  0  -1.267785  0  -0.795698  -1.101252  0  2.148447  0
O  O137  1  0.84354373  0.09886715  0.98350702  1  0  -1.174685  0  1.916898  0  0  -1.124384  0  2.138042  0  0  -1.153504  0  2.112867  0  -1.26195  0  -0.79899  -1.102432  0  2.155689  0
O  O138  1  0.05794006  0.01650837  0.09984822  1  0  -1.173606  0  1.912616  0  0  -1.124122  0  2.132555  0  0  -1.15336  0  2.107609  0  -1.259922  0  -0.795935  -1.102215  0  2.15007  0
O  O139  1  0.92594665  0.90113220  0.01650451  1  0  -1.17526  0  1.915946  0  0  -1.125123  0  2.137543  0  0  -1.154311  0  2.112593  0  -1.261351  0  -0.798936  -1.103107  0  2.154997  0
