# generated using pymatgen
data_AgH2C3SO4
_symmetry_space_group_name_H-M   'P 1'
_cell_length_a   5.37006826
_cell_length_b   5.36161064
_cell_length_c   17.61209203
_cell_angle_alpha   98.09213949
_cell_angle_beta   97.00219400
_cell_angle_gamma   98.06241257
_symmetry_Int_Tables_number   1
_chemical_formula_structural   AgH2C3SO4
_chemical_formula_sum   'Ag4 H8 C12 S4 O16'
_cell_volume   491.86262566
_cell_formula_units_Z   4
loop_
 _symmetry_equiv_pos_site_id
 _symmetry_equiv_pos_as_xyz
  1  'x, y, z'
loop_
 _atom_site_type_symbol
 _atom_site_label
 _atom_site_symmetry_multiplicity
 _atom_site_fract_x
 _atom_site_fract_y
 _atom_site_fract_z
 _atom_site_occupancy
 _atom_site_hle17_bader_spin_density
 _atom_site_hle17_ddec_charge
 _atom_site_hle17_ddec_spin_density
 _atom_site_hle17_ddec_sum_bond_order
 _atom_site_hle17_magmom
 _atom_site_hse06_10hf_bader_spin_density
 _atom_site_hse06_10hf_ddec_charge
 _atom_site_hse06_10hf_ddec_spin_density
 _atom_site_hse06_10hf_ddec_sum_bond_order
 _atom_site_hse06_10hf_magmom
 _atom_site_hse06_bader_spin_density
 _atom_site_hse06_ddec_charge
 _atom_site_hse06_ddec_spin_density
 _atom_site_hse06_ddec_sum_bond_order
 _atom_site_hse06_magmom
 _atom_site_pbe_bader_spin_density
 _atom_site_pbe_cm5_charge
 _atom_site_pbe_ddec_charge
 _atom_site_pbe_ddec_spin_density
 _atom_site_pbe_ddec_sum_bond_order
 _atom_site_pbe_magmom
Ag  Ag0  1  0.17641189  0.31315590  0.49962728  1  0  0.71563  0  1.226666  0  0  0.6137  0  1.641302  0  0  0.644868  0  1.584861  0  0  0.456022  0.590674  0  1.681135  0
Ag  Ag1  1  0.31334444  0.67640491  0.00000955  1  0  0.715189  0  1.227051  0  0  0.613843  0  1.641022  0  0  0.645007  0  1.584724  0  0  0.456146  0.590823  0  1.680802  0
Ag  Ag2  1  0.82359043  0.68685186  0.50037314  1  0  0.715638  0  1.226722  0  0  0.613735  0  1.641318  0  0  0.6449  0  1.584881  0  0  0.456041  0.590709  0  1.68115  0
Ag  Ag3  1  0.68665472  0.32357419  0.99998903  1  0  0.715208  0  1.227038  0  0  0.613871  0  1.641009  0  0  0.645033  0  1.58471  0  0  0.456153  0.590851  0  1.680791  0
H  H4  1  0.81885384  0.34696411  0.63421891  1  0  0.42695  0  0.850283  0  0  0.400857  0  0.918469  0  0  0.411199  0  0.907189  0  0  0.317716  0.393608  0  0.92627  0
H  H5  1  0.21283331  0.18514651  0.86599064  1  0  0.426979  0  0.849049  0  0  0.400883  0  0.917343  0  0  0.411221  0  0.906051  0  0  0.318019  0.393583  0  0.925215  0
H  H6  1  0.18114240  0.65303035  0.36578017  1  0  0.426959  0  0.850303  0  0  0.400873  0  0.918465  0  0  0.411213  0  0.907187  0  0  0.317738  0.393624  0  0.926269  0
H  H7  1  0.78716548  0.81485171  0.13400812  1  0  0.426991  0  0.849073  0  0  0.400894  0  0.917355  0  0  0.411234  0  0.906061  0  0  0.318038  0.393591  0  0.925235  0
H  H8  1  0.70053255  0.95059308  0.74992238  1  0  0.114789  0  0.962005  0  0  0.124223  0  1.022928  0  0  0.127459  0  1.019806  0  0  0.112115  0.121838  0  1.025235  0
H  H9  1  0.29945597  0.04941113  0.25007848  1  0  0.114829  0  0.961981  0  0  0.124246  0  1.022925  0  0  0.127487  0  1.019803  0  0  0.112117  0.121862  0  1.02523  0
H  H10  1  0.99681547  0.24687016  0.75016111  1  0  0.147076  0  0.940721  0  0  0.158396  0  0.997597  0  0  0.162393  0  0.995769  0  0  0.114635  0.155552  0  0.999108  0
H  H11  1  0.00319150  0.75313173  0.24983756  1  0  0.147064  0  0.94071  0  0  0.158379  0  0.997596  0  0  0.162373  0  0.995769  0  0  0.114614  0.155534  0  0.999109  0
C  C12  1  0.54638869  0.79647407  0.74998885  1  0  0.005502  0  3.770975  0  0  -0.036822  0  4.026896  0  0  -0.026639  0  4.041832  0  0  -0.079241  -0.043226  0  4.016728  0
C  C13  1  0.45360967  0.20354336  0.25001293  1  0  0.005585  0  3.771015  0  0  -0.036719  0  4.026891  0  0  -0.02655  0  4.041836  0  0  -0.079132  -0.043119  0  4.016719  0
C  C14  1  0.34540805  0.74352539  0.68944753  1  0  -0.264297  0  3.704814  0  0  -0.244755  0  3.965635  0  0  -0.259429  0  3.985179  0  0  -0.043666  -0.235443  0  3.952867  0
C  C15  1  0.55416731  0.65620037  0.81058982  1  0  -0.263556  0  3.703823  0  0  -0.242044  0  3.962082  0  0  -0.256838  0  3.981792  0  0  -0.043186  -0.232646  0  3.9492  0
C  C16  1  0.65460005  0.25647272  0.31055331  1  0  -0.264455  0  3.704932  0  0  -0.244922  0  3.965786  0  0  -0.259581  0  3.985312  0  0  -0.043762  -0.235606  0  3.953018  0
C  C17  1  0.44582768  0.34379799  0.18941106  1  0  -0.263607  0  3.703959  0  0  -0.242061  0  3.96224  0  0  -0.25685  0  3.981946  0  0  -0.04323  -0.232664  0  3.949354  0
C  C18  1  0.14290157  0.54436714  0.68958566  1  0  0.407685  0  3.778623  0  0  0.386099  0  4.043944  0  0  0.405275  0  4.054942  0  0  0.098678  0.373203  0  4.036385  0
C  C19  1  0.35494651  0.45358013  0.81052830  1  0  0.407007  0  3.777276  0  0  0.385118  0  4.042473  0  0  0.404296  0  4.053534  0  0  0.09827  0.372216  0  4.034859  0
C  C20  1  0.85709188  0.45563316  0.31041524  1  0  0.407764  0  3.778457  0  0  0.386172  0  4.043785  0  0  0.405346  0  4.05478  0  0  0.098702  0.373273  0  4.036227  0
C  C21  1  0.64504667  0.54641819  0.18947024  1  0  0.406914  0  3.777061  0  0  0.384926  0  4.042373  0  0  0.404103  0  4.053432  0  0  0.098212  0.37203  0  4.034753  0
C  C22  1  0.15137927  0.40137228  0.75008428  1  0  -0.31685  0  3.647152  0  0  -0.345089  0  3.909639  0  0  -0.35722  0  3.925209  0  0  -0.118353  -0.337375  0  3.899531  0
C  C23  1  0.84861615  0.59862788  0.24991329  1  0  -0.316827  0  3.646896  0  0  -0.345037  0  3.909415  0  0  -0.357165  0  3.924983  0  0  -0.118342  -0.337335  0  3.899334  0
S  S24  1  0.37066892  0.91277553  0.61093654  1  0  1.343865  0  5.576416  0  0  1.242621  0  6.080626  0  0  1.291703  0  6.060799  0  0  0.514083  1.208683  0  6.093218  0
S  S25  1  0.80181994  0.75967841  0.88911635  1  0  1.344002  0  5.577138  0  0  1.241936  0  6.081653  0  0  1.291092  0  6.061864  0  0  0.514052  1.20793  0  6.094214  0
S  S26  1  0.62933018  0.08722464  0.38906344  1  0  1.344047  0  5.57586  0  0  1.242794  0  6.080066  0  0  1.291866  0  6.060241  0  0  0.514075  1.208858  0  6.092674  0
S  S27  1  0.19818031  0.24031795  0.11088523  1  0  1.344006  0  5.576998  0  0  1.241926  0  6.081511  0  0  1.291082  0  6.06172  0  0  0.514078  1.207926  0  6.094064  0
O  O28  1  0.12476559  0.00119326  0.59084908  1  0  -0.691293  0  2.119597  0  0  -0.619734  0  2.412071  0  0  -0.647013  0  2.39551  0  0  -0.340471  -0.600173  0  2.422577  0
O  O29  1  0.90973575  0.53314972  0.90907901  1  0  -0.690274  0  2.117611  0  0  -0.619486  0  2.410233  0  0  -0.646873  0  2.393945  0  0  -0.341024  -0.599965  0  2.420791  0
O  O30  1  0.87524039  0.99880290  0.40914875  1  0  -0.691322  0  2.119302  0  0  -0.619778  0  2.411813  0  0  -0.64706  0  2.395258  0  0  -0.340427  -0.600185  0  2.422257  0
O  O31  1  0.09025644  0.46684286  0.09091869  1  0  -0.690264  0  2.117454  0  0  -0.619512  0  2.410164  0  0  -0.646894  0  2.393869  0  0  -0.341046  -0.599987  0  2.420714  0
O  O32  1  0.58075560  0.12297057  0.63738351  1  0  -0.647743  0  2.014845  0  0  -0.590391  0  2.266713  0  0  -0.613176  0  2.254262  0  0  -0.321648  -0.574403  0  2.274792  0
O  O33  1  0.98550590  0.94352457  0.86278485  1  0  -0.648589  0  2.015173  0  0  -0.590765  0  2.267334  0  0  -0.61341  0  2.254551  0  0  -0.321722  -0.574804  0  2.275585  0
O  O34  1  0.41924834  0.87702578  0.36261992  1  0  -0.647806  0  2.014703  0  0  -0.590435  0  2.266573  0  0  -0.613214  0  2.254116  0  0  -0.321635  -0.57445  0  2.274659  0
O  O35  1  0.01448532  0.05647388  0.13721702  1  0  -0.648632  0  2.01521  0  0  -0.590796  0  2.267362  0  0  -0.613445  0  2.254584  0  0  -0.321707  -0.574831  0  2.275594  0
O  O36  1  0.42030398  0.72810536  0.54518231  1  0  -0.712136  0  2.142288  0  0  -0.643502  0  2.456429  0  0  -0.669946  0  2.434461  0  0  -0.353077  -0.624507  0  2.470763  0
O  O37  1  0.68327321  0.87518214  0.95490088  1  0  -0.711769  0  2.141696  0  0  -0.64292  0  2.455567  0  0  -0.669391  0  2.433661  0  0  -0.35218  -0.623912  0  2.46989  0
O  O38  1  0.57970255  0.27189472  0.45481967  1  0  -0.71221  0  2.142181  0  0  -0.643569  0  2.456315  0  0  -0.670012  0  2.434348  0  0  -0.353107  -0.624584  0  2.470672  0
O  O39  1  0.31672856  0.12481230  0.04510126  1  0  -0.711719  0  2.141682  0  0  -0.642868  0  2.45555  0  0  -0.669344  0  2.43365  0  0  -0.352195  -0.623856  0  2.46985  0
O  O40  1  0.94757127  0.49740554  0.63067399  1  0  -0.5539  0  2.218967  0  0  -0.495597  0  2.462315  0  0  -0.516822  0  2.447813  0  0  -0.342194  -0.480395  0  2.471768  0
O  O41  1  0.36681992  0.31728814  0.86950746  1  0  -0.554274  0  2.217811  0  0  -0.496599  0  2.46204  0  0  -0.517781  0  2.44751  0  0  -0.342981  -0.481291  0  2.471445  0
O  O42  1  0.05243194  0.50259643  0.36932509  1  0  -0.553902  0  2.218902  0  0  -0.495603  0  2.46226  0  0  -0.516824  0  2.447754  0  0  -0.34221  -0.480419  0  2.471755  0
O  O43  1  0.63317839  0.68271772  0.13049045  1  0  -0.554253  0  2.217681  0  0  -0.496491  0  2.461878  0  0  -0.517674  0  2.447346  0  0  -0.342966  -0.481189  0  2.471282  0
