# generated using pymatgen
data_NaZnFePH27C25S(IO)3
_symmetry_space_group_name_H-M   'P 1'
_cell_length_a   8.88321116
_cell_length_b   9.38163320
_cell_length_c   18.25540000
_cell_angle_alpha   91.08336478
_cell_angle_beta   99.66911155
_cell_angle_gamma   95.32806111
_symmetry_Int_Tables_number   1
_chemical_formula_structural   NaZnFePH27C25S(IO)3
_chemical_formula_sum   'Na2 Zn2 Fe2 P2 H54 C50 S2 I6 O6'
_cell_volume   1492.37178472
_cell_formula_units_Z   2
loop_
 _symmetry_equiv_pos_site_id
 _symmetry_equiv_pos_as_xyz
  1  'x, y, z'
loop_
 _atom_site_type_symbol
 _atom_site_label
 _atom_site_symmetry_multiplicity
 _atom_site_fract_x
 _atom_site_fract_y
 _atom_site_fract_z
 _atom_site_occupancy
 _atom_site_hle17_bader_spin_density
 _atom_site_hle17_ddec_charge
 _atom_site_hle17_ddec_spin_density
 _atom_site_hle17_ddec_sum_bond_order
 _atom_site_hle17_magmom
 _atom_site_hse06_10hf_bader_spin_density
 _atom_site_hse06_10hf_ddec_charge
 _atom_site_hse06_10hf_ddec_spin_density
 _atom_site_hse06_10hf_ddec_sum_bond_order
 _atom_site_hse06_10hf_magmom
 _atom_site_hse06_bader_spin_density
 _atom_site_hse06_ddec_charge
 _atom_site_hse06_ddec_spin_density
 _atom_site_hse06_ddec_sum_bond_order
 _atom_site_hse06_magmom
 _atom_site_pbe_bader_charge
 _atom_site_pbe_bader_spin_density
 _atom_site_pbe_cm5_charge
 _atom_site_pbe_ddec_charge
 _atom_site_pbe_ddec_spin_density
 _atom_site_pbe_ddec_sum_bond_order
 _atom_site_pbe_magmom
Na  Na0  1  0.71501618  0.05703818  0.03500312  1  0  0.886654  0  0.377049  0  0  0.8287  0  0.538498  0  0  0.840872  0  0.515946  0  0.884909  0  0.536583  0.819565  0  0.554944  0
Na  Na1  1  0.28497874  0.94295698  0.96499401  1  0  0.886671  0  0.377025  0  0  0.828714  0  0.538493  0  0  0.840884  0  0.515941  0  0.884869  0  0.536596  0.819581  0  0.554937  0
Zn  Zn2  1  0.68462413  0.15975448  0.24245158  1  0  0.421944  0  2.377192  0  0  0.289602  0  2.819979  0  0  0.321845  0  2.79234  0  0.686153  0  0.311156  0.267482  0  2.839742  0
Zn  Zn3  1  0.31537569  0.84024390  0.75754872  1  0  0.421889  0  2.377272  0  0  0.289518  0  2.820118  0  0  0.321761  0  2.792479  0  0.686209  0  0.31113  0.267401  0  2.839879  0
Fe  Fe4  1  0.13051521  0.46552851  0.27209620  1  0  0.116206  0  3.591583  0  0  0.22322  0  3.990826  0  0  0.229258  0  3.976723  0  0.714343  0  0.534691  0.226649  0  3.993333  0
Fe  Fe5  1  0.86948745  0.53447522  0.72790493  1  0  0.116116  0  3.591713  0  0  0.223074  0  3.990957  0  0  0.229157  0  3.976845  0  0.714106  0  0.534624  0.226559  0  3.993444  0
P  P6  1  0.81977213  0.30175917  0.34828604  1  0  0.361768  0  3.627414  0  0  0.328708  0  4.038595  0  0  0.338258  0  4.038878  0  1.390958  0  0.04906  0.321916  0  4.039027  0
P  P7  1  0.18023248  0.69824134  0.65171412  1  0  0.361893  0  3.627399  0  0  0.328837  0  4.038555  0  0  0.338392  0  4.038839  0  1.390838  0  0.049107  0.322045  0  4.038983  0
H  H8  1  0.37744694  0.50377570  0.19557900  1  0  0.116662  0  0.965821  0  0  0.129228  0  1.025993  0  0  0.13171  0  1.02596  0  0.076911  0  0.098229  0.127577  0  1.025998  0
H  H9  1  0.62255174  0.49622267  0.80441792  1  0  0.116688  0  0.965874  0  0  0.129241  0  1.026042  0  0  0.131735  0  1.025996  0  0.07689  0  0.09824  0.127591  0  1.026047  0
H  H10  1  0.25399155  0.73894373  0.23938400  1  0  0.111434  0  0.972204  0  0  0.123104  0  1.033639  0  0  0.12612  0  1.03234  0  0.102876  0  0.093711  0.120832  0  1.034958  0
H  H11  1  0.74601638  0.26105572  0.76061587  1  0  0.111461  0  0.972288  0  0  0.123135  0  1.033701  0  0  0.126149  0  1.032406  0  0.102874  0  0.093736  0.120862  0  1.035018  0
H  H12  1  0.94565169  0.67989169  0.21600169  1  0  0.111651  0  0.975557  0  0  0.125094  0  1.034193  0  0  0.128039  0  1.032977  0  0.095836  0  0.092209  0.12331  0  1.034682  0
H  H13  1  0.05435941  0.32011633  0.78400346  1  0  0.11167  0  0.97561  0  0  0.125115  0  1.034237  0  0  0.128062  0  1.033022  0  0.096019  0  0.092222  0.123332  0  1.034725  0
H  H14  1  0.87821172  0.40854603  0.15645974  1  0  0.1035  0  1.030105  0  0  0.113887  0  1.098208  0  0  0.117209  0  1.09679  0  0.115518  0  0.080366  0.111729  0  1.099199  0
H  H15  1  0.12178727  0.59146627  0.84354392  1  0  0.103367  0  1.030267  0  0  0.113809  0  1.098347  0  0  0.117098  0  1.096963  0  0.115468  0  0.080332  0.111655  0  1.09934  0
H  H16  1  0.12116681  0.17591996  0.30700156  1  0  0.110939  0  0.982871  0  0  0.120818  0  1.050892  0  0  0.124125  0  1.049217  0  0.085407  0  0.090644  0.118497  0  1.052236  0
H  H17  1  0.87884385  0.82408377  0.69300022  1  0  0.110932  0  0.982834  0  0  0.120759  0  1.050908  0  0  0.124054  0  1.049252  0  0.085611  0  0.090598  0.118431  0  1.052266  0
H  H18  1  0.39034225  0.34233623  0.34100028  1  0  0.108075  0  0.965142  0  0  0.119377  0  1.028591  0  0  0.121955  0  1.028224  0  0.089457  0  0.097779  0.11755  0  1.029063  0
H  H19  1  0.60966304  0.65767072  0.65900219  1  0  0.108082  0  0.965186  0  0  0.119398  0  1.028619  0  0  0.121978  0  1.02825  0  0.089435  0  0.097762  0.117572  0  1.02909  0
H  H20  1  0.33157303  0.60102673  0.39258516  1  0  0.109624  0  0.966512  0  0  0.124994  0  1.021449  0  0  0.127219  0  1.021773  0  0.107996  0  0.104585  0.123331  0  1.021479  0
H  H21  1  0.66842735  0.39897700  0.60741579  1  0  0.109535  0  0.966694  0  0  0.124866  0  1.021663  0  0  0.127092  0  1.021988  0  0.108022  0  0.104563  0.123209  0  1.021678  0
H  H22  1  0.02650557  0.59343193  0.39245480  1  0  0.11594  0  0.974208  0  0  0.129021  0  1.032835  0  0  0.131321  0  1.033428  0  0.115516  0  0.104064  0.127418  0  1.032537  0
H  H23  1  0.97349539  0.40656645  0.60754614  1  0  0.115901  0  0.97418  0  0  0.128996  0  1.032796  0  0  0.131295  0  1.033388  0  0.115469  0  0.104067  0.127393  0  1.032498  0
H  H24  1  0.07701554  0.17691189  0.15631858  1  0  0.131237  0  0.969405  0  0  0.138378  0  1.039809  0  0  0.141329  0  1.037858  0  0.124957  0  0.098382  0.136178  0  1.041357  0
H  H25  1  0.92297958  0.82309613  0.84367978  1  0  0.131198  0  0.969475  0  0  0.138386  0  1.039844  0  0  0.141337  0  1.037892  0  0.124905  0  0.098411  0.136188  0  1.041394  0
H  H26  1  0.27054514  0.23645882  0.14727029  1  0  0.127988  0  0.974445  0  0  0.133608  0  1.045249  0  0  0.136684  0  1.043758  0  0.102094  0  0.092217  0.131379  0  1.046577  0
H  H27  1  0.72945056  0.76354384  0.85273519  1  0  0.127992  0  0.974445  0  0  0.133597  0  1.045279  0  0  0.136674  0  1.043789  0  0.10152  0  0.092207  0.131371  0  1.046609  0
H  H28  1  0.07607263  0.25376941  0.46844465  1  0  0.096036  0  0.980002  0  0  0.108965  0  1.03808  0  0  0.110674  0  1.039389  0  0.112802  0  0.100197  0.107756  0  1.037148  0
H  H29  1  0.92392479  0.74622789  0.53155435  1  0  0.096084  0  0.979914  0  0  0.109044  0  1.037968  0  0  0.110761  0  1.03926  0  0.11288  0  0.100232  0.107858  0  1.037009  0
H  H30  1  0.08474501  0.14465270  0.59104367  1  0  0.088885  0  0.959662  0  0  0.09743  0  1.023892  0  0  0.099563  0  1.024584  0  0.092794  0  0.09806  0.095978  0  1.023401  0
H  H31  1  0.91525139  0.85534567  0.40895635  1  0  0.088875  0  0.959669  0  0  0.09741  0  1.023894  0  0  0.099548  0  1.024572  0  0.092749  0  0.098049  0.095959  0  1.023403  0
H  H32  1  0.84314327  0.04335146  0.63081360  1  0  0.083872  0  0.971359  0  0  0.090993  0  1.040123  0  0  0.094239  0  1.038169  0  0.05146  0  0.089864  0.088582  0  1.041655  0
H  H33  1  0.15685073  0.95664584  0.36918457  1  0  0.083901  0  0.971313  0  0  0.091017  0  1.040089  0  0  0.094263  0  1.038137  0  0.051449  0  0.089863  0.088605  0  1.041625  0
H  H34  1  0.59496589  0.04471510  0.54562947  1  0  0.079337  0  0.981905  0  0  0.090828  0  1.045461  0  0  0.093111  0  1.044933  0  0.058095  0  0.094252  0.089139  0  1.045959  0
H  H35  1  0.40503051  0.95528328  0.45436836  1  0  0.079318  0  0.981928  0  0  0.090841  0  1.045448  0  0  0.093101  0  1.044941  0  0.058173  0  0.094237  0.089151  0  1.045947  0
H  H36  1  0.58475000  0.15059679  0.42083073  1  0  0.077568  0  0.98766  0  0  0.085756  0  1.058822  0  0  0.088841  0  1.05699  0  0.068236  0  0.08736  0.083401  0  1.060429  0
H  H37  1  0.41524754  0.84940159  0.57916719  1  0  0.077611  0  0.987632  0  0  0.085788  0  1.058807  0  0  0.088879  0  1.05697  0  0.068236  0  0.087375  0.083435  0  1.060415  0
H  H38  1  0.73331918  0.44021498  0.48108406  1  0  0.08933  0  0.994032  0  0  0.101056  0  1.055199  0  0  0.102861  0  1.056285  0  0.101116  0  0.096993  0.099551  0  1.054944  0
H  H39  1  0.26669148  0.55978875  0.51891772  1  0  0.089355  0  0.993961  0  0  0.101094  0  1.055106  0  0  0.102896  0  1.056196  0  0.101125  0  0.097003  0.099589  0  1.054852  0
H  H40  1  0.62473607  0.66849734  0.49912234  1  0  0.090861  0  0.951134  0  0  0.105563  0  1.004893  0  0  0.107772  0  1.005115  0  0.075787  0  0.09989  0.104015  0  1.004763  0
H  H41  1  0.37526375  0.33150104  0.50088015  1  0  0.091008  0  0.951072  0  0  0.105665  0  1.00486  0  0  0.107872  0  1.005088  0  0.075792  0  0.099929  0.104116  0  1.004734  0
H  H42  1  0.56309366  0.82684104  0.39083527  1  0  0.075942  0  0.98838  0  0  0.080183  0  1.063443  0  0  0.082806  0  1.062403  0  0.065172  0  0.087473  0.078443  0  1.064026  0
H  H43  1  0.43690469  0.17315412  0.60916542  1  0  0.075914  0  0.988364  0  0  0.080167  0  1.063416  0  0  0.082788  0  1.062377  0  0.065154  0  0.087451  0.078427  0  1.063998  0
H  H44  1  0.60766144  0.75264652  0.26687276  1  0  0.076998  0  0.999459  0  0  0.083264  0  1.071472  0  0  0.086047  0  1.07069  0  0.074813  0  0.084399  0.081112  0  1.07241  0
H  H45  1  0.39234056  0.24735078  0.73312880  1  0  0.077007  0  0.999367  0  0  0.083278  0  1.071367  0  0  0.08606  0  1.070585  0  0.074778  0  0.084427  0.081126  0  1.072304  0
H  H46  1  0.71287206  0.52022505  0.24766792  1  0  0.084994  0  0.985219  0  0  0.096203  0  1.049412  0  0  0.098823  0  1.048326  0  0.08408  0  0.089184  0.094189  0  1.050557  0
H  H47  1  0.28712798  0.47977547  0.75233242  1  0  0.085057  0  0.985227  0  0  0.096249  0  1.049436  0  0  0.098869  0  1.04835  0  0.084061  0  0.089195  0.094236  0  1.050581  0
H  H48  1  0.30468677  0.39615117  0.01637344  1  0  0.156895  0  0.953089  0  0  0.17146  0  1.016985  0  0  0.174266  0  1.015763  0  0.090274  0  0.100536  0.169508  0  1.017553  0
H  H49  1  0.69531806  0.60385149  0.98362402  1  0  0.15689  0  0.953126  0  0  0.171446  0  1.017039  0  0  0.174252  0  1.015816  0  0.090331  0  0.100517  0.169495  0  1.017605  0
H  H50  1  0.13734164  0.49078098  0.01768130  1  0  0.175005  0  0.928827  0  0  0.193097  0  0.98169  0  0  0.195844  0  0.981485  0  0.105353  0  0.113367  0.190784  0  0.98262  0
H  H51  1  0.86265921  0.50921633  0.98231797  1  0  0.175008  0  0.928848  0  0  0.193103  0  0.981696  0  0  0.195851  0  0.981488  0  0.105243  0  0.113368  0.190789  0  0.982629  0
H  H52  1  0.14923810  0.37888878  0.93785518  1  0  0.17333  0  0.93105  0  0  0.194429  0  0.981143  0  0  0.196624  0  0.981225  0  0.109055  0  0.11493  0.192842  0  0.981137  0
H  H53  1  0.85076389  0.62110852  0.06214419  1  0  0.173352  0  0.931074  0  0  0.19445  0  0.981164  0  0  0.196646  0  0.981242  0  0.109047  0  0.114933  0.192862  0  0.981159  0
H  H54  1  0.45545186  0.97433350  0.11878919  1  0  0.338317  0  0.927294  0  0  0.315087  0  1.007747  0  0  0.32418  0  0.996493  0  0.585266  0  0.279782  0.308957  0  1.014937  0
H  H55  1  0.54454019  0.02566702  0.88120830  1  0  0.338323  0  0.927379  0  0  0.315092  0  1.007829  0  0  0.324185  0  0.996578  0  0.584914  0  0.279776  0.308962  0  1.015018  0
H  H56  1  0.37136685  0.72880911  0.11034147  1  0  0.08168  0  0.952592  0  0  0.102452  0  1.011405  0  0  0.10324  0  1.011819  0  0.060134  0  0.093347  0.101899  0  1.010888  0
H  H57  1  0.62862270  0.27118927  0.88965415  1  0  0.081661  0  0.95235  0  0  0.102435  0  1.011185  0  0  0.103224  0  1.011597  0  0.060247  0  0.093301  0.101882  0  1.010668  0
H  H58  1  0.57502624  0.76305537  0.14196804  1  0  0.067199  0  0.972431  0  0  0.081159  0  1.046437  0  0  0.082073  0  1.045755  0  0.031291  0  0.081109  0.080431  0  1.04685  0
H  H59  1  0.42496433  0.23694193  0.85802766  1  0  0.067172  0  0.972512  0  0  0.081124  0  1.04651  0  0  0.082035  0  1.045824  0  0.031203  0  0.081073  0.080389  0  1.046931  0
H  H60  1  0.50185434  0.71322957  0.04657868  1  0  0.074718  0  0.968407  0  0  0.091073  0  1.038237  0  0  0.091856  0  1.037735  0  0.056254  0  0.088247  0.090775  0  1.037487  0
H  H61  1  0.49813532  0.28676987  0.95341697  1  0  0.074813  0  0.968391  0  0  0.091156  0  1.038235  0  0  0.091939  0  1.037732  0  0.056135  0  0.08829  0.090856  0  1.037485  0
C  C62  1  0.13298242  0.40783903  0.16455038  1  0  0.07914  0  3.761022  0  0  0.092512  0  4.012976  0  0  0.089949  0  4.03688  0  -0.135302  0  -0.082595  0.093594  0  3.997239  0
C  C63  1  0.86701453  0.59216470  0.83545083  1  0  0.079318  0  3.760702  0  0  0.092651  0  4.012755  0  0  0.090036  0  4.036738  0  -0.134967  0  -0.082549  0.093739  0  3.996998  0
C  C64  1  0.25606592  0.51677900  0.19137286  1  0  -0.163328  0  3.696635  0  0  -0.194891  0  3.962771  0  0  -0.199918  0  3.981785  0  -0.109277  0  -0.155161  -0.192354  0  3.950346  0
C  C65  1  0.74393207  0.48322366  0.80862568  1  0  -0.163364  0  3.696645  0  0  -0.194899  0  3.962777  0  0  -0.199925  0  3.981803  0  -0.10937  0  -0.1552  -0.192368  0  3.950353  0
C  C66  1  0.19055452  0.64015231  0.21470517  1  0  -0.092898  0  3.715596  0  0  -0.12007  0  3.983713  0  0  -0.122921  0  4.001154  0  -0.194338  0  -0.150778  -0.118759  0  3.972619  0
C  C67  1  0.80944895  0.35984820  0.78529490  1  0  -0.092906  0  3.715598  0  0  -0.120079  0  3.9837  0  0  -0.122933  0  4.001147  0  -0.194071  0  -0.150722  -0.118773  0  3.97261  0
C  C68  1  0.02723394  0.60851871  0.20239394  1  0  -0.110197  0  3.725914  0  0  -0.137898  0  3.996384  0  0  -0.141288  0  4.013734  0  -0.111883  0  -0.158673  -0.136249  0  3.984798  0
C  C69  1  0.97277351  0.39148717  0.79760815  1  0  -0.110311  0  3.725791  0  0  -0.13801  0  3.996287  0  0  -0.141402  0  4.01363  0  -0.112105  0  -0.158772  -0.136366  0  3.984706  0
C  C70  1  0.99166811  0.46551887  0.17145275  1  0  -0.172556  0  3.726254  0  0  -0.209056  0  4.000344  0  0  -0.213972  0  4.018566  0  -0.183885  0  -0.164812  -0.206492  0  3.988276  0
C  C71  1  0.00833180  0.53449129  0.82854986  1  0  -0.172478  0  3.72613  0  0  -0.208982  0  4.000127  0  0  -0.213857  0  4.018392  0  -0.184165  0  -0.164766  -0.206432  0  3.988066  0
C  C72  1  0.01643615  0.36659141  0.34745439  1  0  -0.143127  0  3.767877  0  0  -0.120062  0  4.038553  0  0  -0.125796  0  4.056481  0  -0.662095  0  -0.092261  -0.116672  0  4.026136  0
C  C73  1  0.98357303  0.63340911  0.65254670  1  0  -0.143182  0  3.767873  0  0  -0.120108  0  4.03853  0  0  -0.125851  0  4.056465  0  -0.662194  0  -0.092263  -0.116725  0  4.026121  0
C  C74  1  0.13693254  0.28437467  0.33075400  1  0  -0.128778  0  3.714761  0  0  -0.16499  0  3.989625  0  0  -0.167359  0  4.005765  0  -0.140255  0  -0.157202  -0.163618  0  3.978405  0
C  C75  1  0.86307469  0.71562906  0.66924860  1  0  -0.128772  0  3.714752  0  0  -0.164883  0  3.98952  0  0  -0.167252  0  4.005689  0  -0.140153  0  -0.157149  -0.163516  0  3.978307  0
C  C76  1  0.27934621  0.37250872  0.34956626  1  0  -0.1065  0  3.716879  0  0  -0.133447  0  3.988402  0  0  -0.136196  0  4.004755  0  -0.125279  0  -0.154945  -0.132451  0  3.977551  0
C  C77  1  0.72065896  0.62749716  0.65043620  1  0  -0.106504  0  3.716893  0  0  -0.133485  0  3.988407  0  0  -0.136241  0  4.004767  0  -0.125425  0  -0.154926  -0.132494  0  3.977557  0
C  C78  1  0.24803601  0.50917669  0.37679530  1  0  -0.101832  0  3.721576  0  0  -0.129399  0  3.990998  0  0  -0.131991  0  4.006865  0  -0.1589  0  -0.151808  -0.128202  0  3.980603  0
C  C79  1  0.75196654  0.49082597  0.62320745  1  0  -0.101742  0  3.721687  0  0  -0.129279  0  3.991124  0  0  -0.131876  0  4.006997  0  -0.158896  0  -0.151799  -0.128089  0  3.980735  0
C  C80  1  0.08664706  0.50610663  0.37583023  1  0  -0.122976  0  3.703763  0  0  -0.158046  0  3.976072  0  0  -0.159605  0  3.991355  0  -0.129879  0  -0.151254  -0.157958  0  3.966161  0
C  C81  1  0.91335264  0.49389067  0.62417060  1  0  -0.122896  0  3.703536  0  0  -0.157969  0  3.975819  0  0  -0.159539  0  3.991126  0  -0.129695  0  -0.151242  -0.157887  0  3.965915  0
C  C82  1  0.15099973  0.26240007  0.13546825  1  0  -0.321146  0  3.63119  0  0  -0.35158  0  3.862758  0  0  -0.355661  0  3.870765  0  -0.147862  0  -0.15035  -0.348797  0  3.857694  0
C  C83  1  0.84899859  0.73760580  0.86453200  1  0  -0.321176  0  3.631276  0  0  -0.35163  0  3.862829  0  0  -0.355701  0  3.870858  0  -0.147355  0  -0.150373  -0.348859  0  3.857777  0
C  C84  1  0.82985508  0.21099426  0.43646400  1  0  -0.097059  0  3.740645  0  0  -0.058219  0  3.975046  0  0  -0.063719  0  4.000762  0  -0.54029  0  -0.026114  -0.0548  0  3.958068  0
C  C85  1  0.17014555  0.78900090  0.56353414  1  0  -0.097011  0  3.740736  0  0  -0.05816  0  3.97513  0  0  -0.063661  0  4.000849  0  -0.540245  0  -0.026064  -0.054743  0  3.958161  0
C  C86  1  0.97018038  0.20751607  0.48465463  1  0  -0.067181  0  3.722775  0  0  -0.086728  0  3.959527  0  0  -0.087199  0  3.981225  0  -0.062443  0  -0.081635  -0.086157  0  3.944823  0
C  C87  1  0.02981568  0.79247909  0.51534423  1  0  -0.067193  0  3.722613  0  0  -0.086794  0  3.95935  0  0  -0.087265  0  3.981049  0  -0.062531  0  -0.081664  -0.086239  0  3.944637  0
C  C88  1  0.97498430  0.14632806  0.55403267  1  0  -0.06165  0  3.754665  0  0  -0.070166  0  3.99705  0  0  -0.072912  0  4.018207  0  -0.022849  0  -0.085881  -0.068386  0  3.982608  0
C  C89  1  0.02501461  0.85367246  0.44596647  1  0  -0.06169  0  3.754705  0  0  -0.070164  0  3.997051  0  0  -0.07291  0  4.018215  0  -0.022727  0  -0.085885  -0.068386  0  3.982615  0
C  C90  1  0.83990999  0.08876606  0.57609562  1  0  -0.051437  0  3.740587  0  0  -0.06298  0  3.981468  0  0  -0.063428  0  4.001385  0  -0.041651  0  -0.085213  -0.062405  0  3.967709  0
C  C91  1  0.16008150  0.91122911  0.42390287  1  0  -0.051415  0  3.740526  0  0  -0.062966  0  3.981401  0  0  -0.063416  0  4.00131  0  -0.041894  0  -0.085211  -0.062391  0  3.967641  0
C  C92  1  0.70002465  0.08996044  0.52795546  1  0  -0.075193  0  3.766559  0  0  -0.083752  0  4.005959  0  0  -0.087078  0  4.028831  0  -0.031983  0  -0.092768  -0.081553  0  3.990381  0
C  C93  1  0.29997255  0.91003472  0.47204185  1  0  -0.075178  0  3.766483  0  0  -0.083766  0  4.005879  0  0  -0.087074  0  4.028761  0  -0.031989  0  -0.092718  -0.081566  0  3.990301  0
C  C94  1  0.69436347  0.14982767  0.45823268  1  0  -0.086749  0  3.768651  0  0  -0.104989  0  4.010213  0  0  -0.106391  0  4.032332  0  -0.054019  0  -0.090594  -0.103974  0  3.995826  0
C  C95  1  0.30563351  0.85016535  0.54176514  1  0  -0.086896  0  3.768865  0  0  -0.105134  0  4.010453  0  0  -0.106542  0  4.032564  0  -0.053933  0  -0.090678  -0.104125  0  3.99607  0
C  C96  1  0.73065227  0.46487293  0.36330876  1  0  -0.093241  0  3.753057  0  0  -0.05489  0  3.988679  0  0  -0.060556  0  4.014618  0  -0.552729  0  -0.024113  -0.051229  0  3.970841  0
C  C97  1  0.26935142  0.53512973  0.63668916  1  0  -0.093195  0  3.75311  0  0  -0.054866  0  3.988767  0  0  -0.060534  0  4.014706  0  -0.552591  0  -0.024068  -0.051203  0  3.970921  0
C  C98  1  0.70460394  0.50726567  0.43378080  1  0  -0.074115  0  3.734233  0  0  -0.093961  0  3.97293  0  0  -0.094534  0  3.994365  0  -0.039572  0  -0.086037  -0.092979  0  3.957939  0
C  C99  1  0.29539839  0.49273485  0.56622136  1  0  -0.074236  0  3.73425  0  0  -0.094078  0  3.97294  0  0  -0.094652  0  3.994376  0  -0.039681  0  -0.08612  -0.093095  0  3.957947  0
C  C100  1  0.64403636  0.63691193  0.44386656  1  0  -0.067946  0  3.747512  0  0  -0.076239  0  3.988717  0  0  -0.078663  0  4.008861  0  -0.090906  0  -0.088291  -0.074461  0  3.974387  0
C  C101  1  0.35596313  0.36308323  0.55613149  1  0  -0.067999  0  3.747388  0  0  -0.076246  0  3.988583  0  0  -0.078669  0  4.008722  0  -0.090411  0  -0.088255  -0.074469  0  3.974254  0
C  C102  1  0.60991179  0.72506955  0.38378589  1  0  -0.063857  0  3.762383  0  0  -0.075089  0  4.005852  0  0  -0.075369  0  4.025376  0  -0.055014  0  -0.088498  -0.074223  0  3.991707  0
C  C103  1  0.39008700  0.27492990  0.61621708  1  0  -0.063886  0  3.762539  0  0  -0.075138  0  4.006013  0  0  -0.075416  0  4.025533  0  -0.055373  0  -0.088505  -0.074273  0  3.99187  0
C  C104  1  0.63460400  0.68275822  0.31332815  1  0  -0.065816  0  3.761982  0  0  -0.075204  0  4.003877  0  0  -0.078171  0  4.025555  0  0.02287  0  -0.091079  -0.073396  0  3.989174  0
C  C105  1  0.36539206  0.31723694  0.68667072  1  0  -0.065822  0  3.762087  0  0  -0.075191  0  4.003981  0  0  -0.078157  0  4.025659  0  0.022833  0  -0.091143  -0.073383  0  3.989274  0
C  C106  1  0.69432912  0.55308197  0.30281226  1  0  -0.076208  0  3.738149  0  0  -0.093535  0  3.976402  0  0  -0.094646  0  3.998235  0  -0.093482  0  -0.086156  -0.092632  0  3.961809  0
C  C107  1  0.30567332  0.44691962  0.69718993  1  0  -0.076307  0  3.738168  0  0  -0.093618  0  3.976405  0  0  -0.094728  0  3.998238  0  -0.09342  0  -0.08618  -0.092716  0  3.961812  0
C  C108  1  0.18023590  0.39347210  0.99841784  1  0  -0.48254  0  3.526179  0  0  -0.553863  0  3.759666  0  0  -0.560101  0  3.762169  0  -0.21235  0  -0.226931  -0.549318  0  3.758557  0
C  C109  1  0.81976827  0.60652413  0.00158224  1  0  -0.482572  0  3.52613  0  0  -0.553891  0  3.759579  0  0  -0.560128  0  3.762081  0  -0.212341  0  -0.226902  -0.549347  0  3.758473  0
C  C110  1  0.48075385  0.77290827  0.09545976  1  0  -0.033124  0  3.673926  0  0  -0.124612  0  3.940281  0  0  -0.119021  0  3.943741  0  0.363078  0  -0.162317  -0.127523  0  3.936491  0
C  C111  1  0.51923456  0.22709011  0.90453577  1  0  -0.033149  0  3.673771  0  0  -0.124638  0  3.940128  0  0  -0.119042  0  3.943579  0  0.363162  0  -0.162276  -0.127545  0  3.936342  0
S  S112  1  0.09351555  0.24004627  0.03618793  1  0  1.237018  0  5.087317  0  0  1.184965  0  5.582316  0  0  1.220721  0  5.570284  0  2.382341  0  0.478267  1.160222  0  5.590174  0
S  S113  1  0.90649157  0.75995639  0.96381300  1  0  1.237161  0  5.087259  0  0  1.185131  0  5.582251  0  0  1.220888  0  5.570213  0  2.382661  0  0.478401  1.160387  0  5.590111  0
I  I114  1  0.42427905  0.02800974  0.26543682  1  0  -0.415112  0  1.132181  0  0  -0.352378  0  1.448275  0  0  -0.369665  0  1.427268  0  -0.517661  0  -0.176075  -0.340128  0  1.463506  0
I  I115  1  0.57571929  0.97198542  0.73456278  1  0  -0.415103  0  1.132237  0  0  -0.352358  0  1.448317  0  0  -0.369646  0  1.427315  0  -0.517714  0  -0.176068  -0.34011  0  1.463547  0
I  I116  1  0.86833940  0.97726965  0.20801328  1  0  -0.449272  0  1.121328  0  0  -0.39142  0  1.428015  0  0  -0.407137  0  1.40649  0  -0.52571  0  -0.17789  -0.380986  0  1.443444  0
I  I117  1  0.13165928  0.02272872  0.79198637  1  0  -0.44925  0  1.121342  0  0  -0.391405  0  1.428051  0  0  -0.407118  0  1.406522  0  -0.525719  0  -0.177877  -0.380968  0  1.443475  0
I  I118  1  0.58518417  0.30798392  0.12271155  1  0  -0.473899  0  1.14922  0  0  -0.410193  0  1.460385  0  0  -0.425649  0  1.437858  0  -0.549475  0  -0.172492  -0.40032  0  1.474632  0
I  I119  1  0.41481326  0.69201339  0.87728799  1  0  -0.473847  0  1.149279  0  0  -0.410149  0  1.460462  0  0  -0.4256  0  1.43793  0  -0.549502  0  -0.172478  -0.400281  0  1.474711  0
O  O120  1  0.92684246  0.24027444  0.01793685  1  0  -0.66458  0  1.881999  0  0  -0.615119  0  2.122098  0  0  -0.634844  0  2.110659  0  -1.300596  0  -0.360373  -0.60131  0  2.130315  0
O  O121  1  0.07316457  0.75971644  0.98206013  1  0  -0.664626  0  1.882117  0  0  -0.615173  0  2.122213  0  0  -0.634899  0  2.110774  0  -1.300884  0  -0.360478  -0.601373  0  2.130452  0
O  O122  1  0.16070021  0.11500189  0.01223280  1  0  -0.685594  0  1.938582  0  0  -0.640635  0  2.194671  0  0  -0.659851  0  2.180771  0  -1.337405  0  -0.400137  -0.62729  0  2.204599  0
O  O123  1  0.83931583  0.88499863  0.98777158  1  0  -0.685663  0  1.938721  0  0  -0.640702  0  2.194782  0  0  -0.659916  0  2.180875  0  -1.337468  0  -0.400172  -0.627365  0  2.204732  0
O  O124  1  0.47485212  0.92057532  0.07503445  1  0  -0.612831  0  2.169485  0  0  -0.550804  0  2.404829  0  0  -0.565791  0  2.391915  0  -1.15604  0  -0.488509  -0.539956  0  2.412442  0
O  O125  1  0.52513982  0.07942412  0.92496303  1  0  -0.612861  0  2.169592  0  0  -0.550826  0  2.404931  0  0  -0.565815  0  2.392019  0  -1.155657  0  -0.488504  -0.539975  0  2.412536  0
