# generated using pymatgen
data_MnMo6H18C16(N3O11)2
_symmetry_space_group_name_H-M   'P 1'
_cell_length_a   7.67985382
_cell_length_b   10.12064968
_cell_length_c   10.07022935
_cell_angle_alpha   105.27833496
_cell_angle_beta   93.06090495
_cell_angle_gamma   99.02538202
_symmetry_Int_Tables_number   1
_chemical_formula_structural   MnMo6H18C16(N3O11)2
_chemical_formula_sum   'Mn1 Mo6 H18 C16 N6 O22'
_cell_volume   742.00245380
_cell_formula_units_Z   1
loop_
 _symmetry_equiv_pos_site_id
 _symmetry_equiv_pos_as_xyz
  1  'x, y, z'
loop_
 _atom_site_type_symbol
 _atom_site_label
 _atom_site_symmetry_multiplicity
 _atom_site_fract_x
 _atom_site_fract_y
 _atom_site_fract_z
 _atom_site_occupancy
 _atom_site_hse06_10hf_ddec_charge
 _atom_site_hse06_10hf_ddec_spin_density
 _atom_site_hse06_10hf_ddec_sum_bond_order
 _atom_site_hse06_10hf_magmom
 _atom_site_hse06_ddec_charge
 _atom_site_hse06_ddec_spin_density
 _atom_site_hse06_ddec_sum_bond_order
 _atom_site_hse06_magmom
 _atom_site_pbe_cm5_charge
 _atom_site_pbe_ddec_charge
 _atom_site_pbe_ddec_spin_density
 _atom_site_pbe_ddec_sum_bond_order
 _atom_site_pbe_magmom
Mn  Mn0  1  0.00705624  0.50271147  0.50033060  1  1.34335  2.914093  3.078568  2.783  1.483628  3.129214  2.97405  3.02  0.886696  1.243404  2.73221  3.151649  2.587
Mo  Mo1  1  0.69632062  0.30924666  0.85739411  1  2.160492  -8.4e-05  4.661736  0.0  2.262249  -9e-06  4.624278  0.0  1.502639  2.089067  0.000873  4.69193  0.001
Mo  Mo2  1  0.30292692  0.69005863  0.14280673  1  2.164302  5.5e-05  4.655523  0.0  2.266518  6.6e-05  4.618051  0.0  1.502246  2.092465  0.001232  4.686041  0.001
Mo  Mo3  1  0.99627744  0.59187870  0.87613930  1  2.328124  0.011993  4.453751  0.01  2.443444  0.003856  4.411974  0.002  1.581331  2.249191  0.029764  4.482503  0.027
Mo  Mo4  1  0.00319943  0.40800439  0.12353780  1  2.326175  0.010934  4.460447  0.009  2.441459  0.002526  4.418852  0.001  1.581362  2.247217  0.028551  4.488985  0.026
Mo  Mo5  1  0.48979917  0.57249822  0.85082099  1  2.265803  0.000886  4.509239  0.001  2.367524  0.000359  4.47327  0.0  1.536483  2.193564  0.001291  4.539673  0.001
Mo  Mo6  1  0.50990827  0.42829838  0.14896163  1  2.260027  0.000627  4.515387  0.0  2.361121  0.000165  4.479919  0.0  1.534534  2.18773  0.001074  4.546224  0.001
H  H7  1  0.66373912  0.09958659  0.06712394  1  0.294922  4.5e-05  0.942664  0.0  0.303345  2e-05  0.936104  0.0  0.320822  0.289314  4.7e-05  0.94712  0.0
H  H8  1  0.33575548  0.90038106  0.93325789  1  0.294379  4e-05  0.941304  0.0  0.302842  1.5e-05  0.934655  0.0  0.321194  0.288751  4.5e-05  0.945798  0.0
H  H9  1  0.65244534  0.43517846  0.44878499  1  0.417744  -0.000155  0.899698  0.001  0.430596  -0.000108  0.88137  0.001  0.30899  0.408649  -7.2e-05  0.912806  0.001
H  H10  1  0.34447915  0.56539612  0.55449490  1  0.425127  0.000174  0.890207  0.002  0.438981  0.000114  0.870468  0.002  0.313798  0.415405  0.000337  0.904158  0.002
H  H11  1  0.71006699  0.34967716  0.55770081  1  0.427414  -0.000311  0.889963  0.001  0.440983  -0.000329  0.870674  0.001  0.30568  0.418336  -0.000203  0.902943  0.001
H  H12  1  0.28576615  0.64876823  0.43984558  1  0.436555  -9.6e-05  0.87772  0.001  0.451196  -0.000243  0.856931  0.001  0.311032  0.426899  0.000147  0.891514  0.001
H  H13  1  0.83336251  0.73827910  0.71486714  1  0.098254  -6e-06  1.090073  0.0  0.100761  2.7e-05  1.087965  0.0  0.110781  0.096781  -0.0  1.091012  0.0
H  H14  1  0.17052455  0.26209880  0.28515421  1  0.098639  -0.0  1.088031  0.0  0.101127  3.1e-05  1.085943  0.0  0.110833  0.097103  3e-06  1.089051  0.0
H  H15  1  0.72614547  0.95164164  0.63664047  1  0.137664  -0.000304  1.022447  0.0  0.140823  -0.000292  1.022104  0.0  0.107567  0.135778  -0.000331  1.022467  0.0
H  H16  1  0.27163155  0.04632442  0.36269909  1  0.13819  -0.000266  1.021526  0.0  0.141432  -0.000259  1.021031  0.0  0.107681  0.136168  -0.000308  1.021784  0.0
H  H17  1  0.56067842  0.17184764  0.28551053  1  0.107231  -0.000252  1.026569  0.0  0.109906  -0.000235  1.023686  0.0  0.128383  0.105286  -0.000288  1.028872  0.0
H  H18  1  0.43865842  0.82758608  0.71493538  1  0.106451  -0.000163  1.025936  0.0  0.109211  -0.00017  1.023028  0.0  0.128866  0.104445  -0.000206  1.028248  0.0
H  H19  1  0.64120751  0.06216320  0.47050477  1  0.13411  -7.7e-05  1.010467  0.0  0.137956  -6.2e-05  1.009132  0.0  0.112761  0.131418  -0.000122  1.011524  0.0
H  H20  1  0.35834848  0.93709930  0.52953195  1  0.134241  -3.3e-05  1.009461  0.0  0.13807  -1.9e-05  1.008155  0.0  0.113257  0.131539  -0.000112  1.010559  0.0
H  H21  1  0.91084908  0.79603695  0.17105144  1  0.146497  -7.8e-05  1.029176  0.0  0.151225  -6.3e-05  1.026348  0.0  0.115036  0.14334  -0.000105  1.031218  0.0
H  H22  1  0.09007403  0.20445020  0.82901094  1  0.146994  -5.6e-05  1.028028  0.0  0.151797  -4.7e-05  1.025092  0.0  0.115007  0.143779  -8.7e-05  1.030135  0.0
H  H23  1  0.83294962  0.92713586  0.00247192  1  0.122803  -4.9e-05  0.985522  0.0  0.125594  -2.8e-05  0.982271  0.0  0.131502  0.120648  -7e-05  0.988176  0.0
H  H24  1  0.16752127  0.07351176  0.99784864  1  0.123134  -5e-05  0.98565  0.0  0.125974  -3e-05  0.98236  0.0  0.131646  0.12097  -6.6e-05  0.988305  0.0
C  C25  1  0.83617276  0.75946760  0.61543354  1  -0.007795  -0.00042  3.990811  -0.002  -0.001206  -0.001555  4.014363  -0.002  0.000613  -0.010325  0.003307  3.971524  0.001
C  C26  1  0.16690904  0.24081762  0.38453927  1  -0.007118  -0.000888  3.98778  -0.002  -0.000331  -0.002131  4.010842  -0.003  0.001031  -0.009855  0.003151  3.968999  0.001
C  C27  1  0.78104784  0.86651562  0.57362263  1  -0.23915  0.009009  3.968459  0.005  -0.248587  0.002431  3.99328  0.001  -0.111201  -0.232935  0.013614  3.950241  0.008
C  C28  1  0.21907088  0.13261121  0.42606170  1  -0.236414  0.008313  3.966206  0.005  -0.245544  0.001864  3.990392  0.0  -0.109242  -0.230376  0.013431  3.948625  0.008
C  C29  1  0.81872164  0.84158391  0.43306700  1  0.121068  0.019586  4.057083  0.012  0.119094  0.011965  4.080829  0.007  0.089744  0.124542  0.029311  4.039577  0.02
C  C30  1  0.18250405  0.15852905  0.56691012  1  0.119613  0.016608  4.056417  0.01  0.118058  0.008711  4.079573  0.004  0.089382  0.122539  0.027859  4.039584  0.019
C  C31  1  0.63958136  0.09005500  0.26844773  1  0.117258  -0.002107  3.885251  -0.002  0.128126  -0.002521  3.898965  -0.002  0.064225  0.11028  -0.001207  3.876297  -0.001
C  C32  1  0.35949893  0.90926249  0.73165502  1  0.11393  -0.00198  3.890334  -0.002  0.12444  -0.002431  3.90418  -0.002  0.063599  0.107247  -0.000987  3.881315  -0.001
C  C33  1  0.68340139  0.02634847  0.36768002  1  -0.172952  0.006063  3.914925  0.004  -0.18335  0.004716  3.934415  0.004  -0.073446  -0.165576  0.00797  3.902232  0.006
C  C34  1  0.31599894  0.97290317  0.63230833  1  -0.172774  0.004694  3.915935  0.003  -0.182798  0.003279  3.935199  0.002  -0.073652  -0.165891  0.007666  3.903673  0.006
C  C35  1  0.78070267  0.91692792  0.33446029  1  0.129501  -0.004141  3.987327  -0.004  0.139943  -0.004507  4.006264  -0.004  0.034758  0.121823  -0.00342  3.974949  -0.004
C  C36  1  0.21936373  0.08285143  0.66546975  1  0.131616  -0.003853  3.983845  -0.004  0.142097  -0.004234  4.002444  -0.004  0.035316  0.123945  -0.003297  3.971843  -0.003
C  C37  1  0.83614499  0.88031565  0.20045921  1  -0.152669  0.007736  3.880926  0.006  -0.162697  0.005854  3.899394  0.005  -0.070567  -0.147267  0.00795  3.869431  0.006
C  C38  1  0.16426862  0.11984570  0.79958089  1  -0.151769  0.007798  3.878052  0.006  -0.161724  0.005902  3.896292  0.005  -0.06944  -0.146386  0.007808  3.86668  0.006
C  C39  1  0.79306655  0.94997118  0.10655164  1  0.127836  -0.000816  3.851751  -0.001  0.138516  -0.001509  3.864756  -0.001  0.067152  0.121024  -0.001068  3.843468  -0.001
C  C40  1  0.20706489  0.05025179  0.89365748  1  0.128117  -0.000282  3.851311  -0.001  0.138967  -0.000976  3.864018  -0.001  0.068476  0.121178  -0.000905  3.843216  -0.001
N  N41  1  0.89344152  0.72621177  0.39469619  1  -0.190182  -0.022479  3.209838  -0.016  -0.19146  -0.025233  3.231643  -0.018  -0.206328  -0.187886  -0.021817  3.192077  -0.015
N  N42  1  0.11106314  0.27557141  0.60572164  1  -0.189565  -0.021882  3.207716  -0.015  -0.190753  -0.02476  3.229025  -0.017  -0.206559  -0.187387  -0.02144  3.19045  -0.015
N  N43  1  0.90321102  0.67679201  0.50502271  1  -0.177006  -0.030657  3.563156  -0.03  -0.209552  -0.062133  3.594598  -0.057  -0.24246  -0.151832  -0.007009  3.538398  -0.009
N  N44  1  0.10222196  0.32489647  0.49532014  1  -0.173809  -0.034078  3.561592  -0.033  -0.20572  -0.066236  3.592303  -0.06  -0.240887  -0.149105  -0.008435  3.537377  -0.011
N  N45  1  0.69426356  0.05083962  0.14125416  1  -0.138307  0.00711  3.686236  0.007  -0.154228  0.005502  3.700177  0.006  -0.349618  -0.128435  0.007172  3.676718  0.007
N  N46  1  0.30514662  0.94888569  0.85899192  1  -0.137483  0.007105  3.69005  0.007  -0.153338  0.005502  3.704043  0.006  -0.349543  -0.127692  0.007031  3.680537  0.007
O  O47  1  0.75046255  0.54165400  0.87152894  1  -0.971393  0.014646  2.217691  0.017  -1.01857  0.011217  2.215088  0.013  -0.601362  -0.939697  0.0162  2.219986  0.017
O  O48  1  0.24873888  0.45735736  0.12474250  1  -0.96942  0.014429  2.221058  0.016  -1.016882  0.011049  2.219391  0.013  -0.601455  -0.937343  0.015929  2.222733  0.017
O  O49  1  0.95018490  0.37816253  0.91107570  1  -0.965639  -0.000236  2.080044  0.001  -1.007915  -0.001495  2.071335  -0.001  -0.593943  -0.936056  -0.000949  2.08582  -0.001
O  O50  1  0.04877436  0.62144381  0.08804693  1  -0.964191  -0.000178  2.081438  0.001  -1.006412  -0.001426  2.072771  -0.001  -0.593567  -0.934715  -0.00089  2.087154  -0.001
O  O51  1  0.48613765  0.38078557  0.90313922  1  -0.942546  -3.6e-05  2.009894  0.0  -0.983944  -0.000119  2.003953  0.0  -0.590158  -0.912012  0.000988  2.013439  0.001
O  O52  1  0.51394571  0.62087818  0.09727209  1  -0.94047  -0.000231  2.00903  0.0  -0.981722  -0.000276  2.003079  0.0  -0.589026  -0.910074  0.000847  2.01251  0.001
O  O53  1  0.68045051  0.26694107  0.67868615  1  -0.706807  -4e-06  1.762061  0.0  -0.735696  -0.000351  1.750999  0.0  -0.510098  -0.687449  0.000491  1.77028  0.001
O  O54  1  0.31665710  0.72868219  0.32183466  1  -0.716689  6.2e-05  1.772115  0.0  -0.746596  -0.00045  1.760943  0.0  -0.511757  -0.696708  0.000365  1.780321  0.0
O  O55  1  0.74452879  0.41877203  0.10319828  1  -0.989042  0.004415  2.189789  0.005  -1.036119  0.00293  2.184922  0.003  -0.607477  -0.957025  0.00444  2.19383  0.004
O  O56  1  0.25630378  0.58283282  0.89834997  1  -0.990975  0.004894  2.198231  0.005  -1.03825  0.003294  2.193635  0.004  -0.607829  -0.958814  0.004683  2.201383  0.005
O  O57  1  0.66509996  0.15293325  0.89893381  1  -0.697757  -0.000283  1.733259  0.0  -0.72584  -0.000319  1.725883  0.0  -0.515236  -0.678387  -3.2e-05  1.739039  0.0
O  O58  1  0.33314550  0.84757662  0.10371413  1  -0.693946  -0.000219  1.724622  0.0  -0.721702  -0.000287  1.716879  0.0  -0.512704  -0.674734  0.00027  1.730566  0.0
O  O59  1  0.00323137  0.53754826  0.68879323  1  -0.789332  0.048139  2.109992  0.035  -0.849646  0.029721  2.100217  0.017  -0.519348  -0.749036  0.052773  2.117641  0.037
O  O60  1  0.00187914  0.46405086  0.31136149  1  -0.787706  0.048018  2.113947  0.035  -0.848118  0.029183  2.104401  0.017  -0.520088  -0.747371  0.053373  2.121445  0.037
O  O61  1  0.00717318  0.76645910  0.90605870  1  -0.612099  0.014755  1.744543  0.016  -0.63596  0.012418  1.736225  0.014  -0.467628  -0.596604  0.019233  1.750465  0.021
O  O62  1  0.99163460  0.23343189  0.09429246  1  -0.611987  0.015635  1.742796  0.017  -0.635747  0.013329  1.734419  0.015  -0.467396  -0.596584  0.020297  1.748831  0.022
O  O63  1  0.57248201  0.74618315  0.87691539  1  -0.672311  -0.000597  1.710485  0.0  -0.698216  -0.000487  1.702622  0.0  -0.501584  -0.653673  -0.000368  1.716425  0.0
O  O64  1  0.42820545  0.25467445  0.12468720  1  -0.673706  -0.000444  1.71085  0.0  -0.699759  -0.000341  1.703036  0.0  -0.502886  -0.654818  -0.000287  1.716856  0.0
O  O65  1  0.45685289  0.50884209  0.67271095  1  -0.690943  0.000791  1.723569  0.001  -0.718538  8.2e-05  1.71284  0.0  -0.499678  -0.671989  0.001704  1.732351  0.002
O  O66  1  0.53873672  0.49505908  0.32639658  1  -0.681733  0.000885  1.716404  0.001  -0.708488  0.000367  1.705973  0.001  -0.498421  -0.663105  0.001619  1.724991  0.002
O  O67  1  0.74004111  0.38072506  0.47345610  1  -0.711444  -0.040995  2.032421  -0.04  -0.741235  -0.051982  1.997751  -0.052  -0.509136  -0.6917  -0.032321  2.057559  -0.032
O  O68  1  0.25276437  0.61370021  0.52247928  1  -0.700434  -0.03075  2.120305  -0.035  -0.73036  -0.048056  2.081954  -0.051  -0.510705  -0.680982  -0.018656  2.148178  -0.023
