# generated using pymatgen
data_CuH10C4(NO2)2
_symmetry_space_group_name_H-M   'P 1'
_cell_length_a   7.15726125
_cell_length_b   7.69956586
_cell_length_c   8.34148525
_cell_angle_alpha   65.58518749
_cell_angle_beta   64.59594289
_cell_angle_gamma   62.27667167
_symmetry_Int_Tables_number   1
_chemical_formula_structural   CuH10C4(NO2)2
_chemical_formula_sum   'Cu2 H20 C8 N4 O8'
_cell_volume   354.18654678
_cell_formula_units_Z   2
loop_
 _symmetry_equiv_pos_site_id
 _symmetry_equiv_pos_as_xyz
  1  'x, y, z'
loop_
 _atom_site_type_symbol
 _atom_site_label
 _atom_site_symmetry_multiplicity
 _atom_site_fract_x
 _atom_site_fract_y
 _atom_site_fract_z
 _atom_site_occupancy
 _atom_site_pbe_cm5_charge
 _atom_site_pbe_ddec_charge
 _atom_site_pbe_ddec_spin_density
 _atom_site_pbe_ddec_sum_bond_order
 _atom_site_pbe_magmom
Cu  Cu0  1  0.33562924  0.17876994  0.15007825  1  0.71013  0.874843  0.728438  2.125531  0.57
Cu  Cu1  1  0.66437331  0.82122162  0.84992775  1  0.710101  0.874786  0.728434  2.12552  0.57
H  H2  1  0.97658177  0.28466851  0.07973186  1  0.283839  0.316591  0.000595  0.986683  0.0
H  H3  1  0.34067803  0.71565438  0.92053156  1  0.284047  0.317132  0.000593  0.985164  0.0
H  H4  1  0.02341298  0.71533219  0.92027312  1  0.283827  0.316521  0.000595  0.986825  0.0
H  H5  1  0.65931779  0.28435698  0.07946431  1  0.284026  0.31713  0.000592  0.985126  0.0
H  H6  1  0.94127008  0.16582338  0.30221811  1  0.28481  0.323122  0.000596  0.976446  0.001
H  H7  1  0.40918564  0.83397592  0.69791518  1  0.284478  0.322655  0.000599  0.977044  0.001
H  H8  1  0.05873270  0.83417883  0.69779181  1  0.284748  0.323083  0.000596  0.976378  0.001
H  H9  1  0.59081281  0.16602326  0.30209016  1  0.284472  0.322689  0.0006  0.977037  0.001
H  H10  1  0.08213725  0.03335204  0.15131083  1  0.293422  0.335159  -0.000144  0.947237  0.0
H  H11  1  0.26667163  0.96692075  0.84844840  1  0.292901  0.334314  -0.000145  0.94863  0.0
H  H12  1  0.91785289  0.96664408  0.84870298  1  0.293419  0.335146  -0.000144  0.9473  0.0
H  H13  1  0.73333349  0.03307842  0.15153974  1  0.292854  0.334265  -0.000146  0.948646  0.0
H  H14  1  0.70359134  0.50684299  0.32871569  1  0.104148  0.122003  -0.000347  0.993745  0.0
H  H15  1  0.53928665  0.49301891  0.67119328  1  0.104613  0.122533  -0.000347  0.995155  0.0
H  H16  1  0.29642757  0.49316836  0.67125759  1  0.104243  0.122081  -0.000348  0.993736  0.0
H  H17  1  0.46071880  0.50698026  0.32878537  1  0.104614  0.122523  -0.000347  0.995184  0.0
H  H18  1  0.22865498  0.33723090  0.44680736  1  0.102516  0.114206  -0.000314  1.015158  0.0
H  H19  1  0.01297679  0.66244821  0.55322009  1  0.102891  0.115045  -0.000313  1.015851  0.0
H  H20  1  0.77136342  0.66276218  0.55319288  1  0.102541  0.11432  -0.000314  1.015142  0.0
H  H21  1  0.98702965  0.33755096  0.44678048  1  0.102872  0.114964  -0.000313  1.016009  0.0
C  C22  1  0.43224817  0.78253447  0.35310320  1  0.203907  0.626268  -0.002309  4.147487  -0.004
C  C23  1  0.56773285  0.21751494  0.64687161  1  0.203915  0.626667  -0.0023  4.148964  -0.004
C  C24  1  0.52505249  0.55224345  0.39768939  1  -0.168781  -0.277727  0.009265  3.945934  0.01
C  C25  1  0.47494346  0.44768112  0.60238091  1  -0.168944  -0.277692  0.009251  3.947006  0.01
C  C26  1  0.09589707  0.57642797  0.23154883  1  0.202965  0.614415  -0.001807  4.147172  -0.002
C  C27  1  0.90411021  0.42357425  0.76844448  1  0.202836  0.61442  -0.001808  4.147521  -0.002
C  C28  1  0.06559586  0.44081669  0.42794662  1  -0.174659  -0.309697  -0.000697  4.002261  0.0
C  C29  1  0.93439317  0.55917944  0.57208201  1  -0.174691  -0.309921  -0.000698  4.002582  0.0
N  N30  1  0.05373058  0.16644328  0.17319105  1  -0.802908  -0.848678  0.056539  3.215496  0.069
N  N31  1  0.39319628  0.83364920  0.82685353  1  -0.802144  -0.847406  0.056548  3.214183  0.068
N  N32  1  0.94626512  0.83355284  0.82682037  1  -0.802831  -0.848523  0.056537  3.215565  0.069
N  N33  1  0.60679617  0.16635454  0.17314420  1  -0.802101  -0.847437  0.056552  3.214101  0.068
O  O34  1  0.47260383  0.87515046  0.17981218  1  -0.32773  -0.572469  0.076684  2.360139  0.11
O  O35  1  0.52742080  0.12487458  0.82012575  1  -0.327704  -0.57259  0.076703  2.360886  0.11
O  O36  1  0.32414137  0.87305299  0.47869124  1  -0.322443  -0.569998  0.002414  2.15201  0.005
O  O37  1  0.67580722  0.12695533  0.52132981  1  -0.322557  -0.570248  0.002412  2.152212  0.005
O  O38  1  0.20720301  0.48656912  0.09884041  1  -0.338512  -0.583522  0.0619  2.296899  0.09
O  O39  1  0.79280820  0.51342243  0.90114186  1  -0.338464  -0.583502  0.061892  2.297029  0.089
O  O40  1  0.01682549  0.76643240  0.19991184  1  -0.317355  -0.528736  0.01225  2.116945  0.016
O  O41  1  0.98319333  0.23356828  0.80009248  1  -0.317312  -0.528734  0.012257  2.11696  0.016
