# generated using pymatgen
data_Sm4SiMo12H42C28N4O71
_symmetry_space_group_name_H-M   'P 1'
_cell_length_a   16.30218440
_cell_length_b   17.02416812
_cell_length_c   17.35472721
_cell_angle_alpha   77.85551098
_cell_angle_beta   63.40369737
_cell_angle_gamma   62.60930317
_symmetry_Int_Tables_number   1
_chemical_formula_structural   Sm4SiMo12H42C28N4O71
_chemical_formula_sum   'Sm8 Si2 Mo24 H84 C56 N8 O142'
_cell_volume   3823.91716303
_cell_formula_units_Z   2
loop_
 _symmetry_equiv_pos_site_id
 _symmetry_equiv_pos_as_xyz
  1  'x, y, z'
loop_
 _atom_site_type_symbol
 _atom_site_label
 _atom_site_symmetry_multiplicity
 _atom_site_fract_x
 _atom_site_fract_y
 _atom_site_fract_z
 _atom_site_occupancy
 _atom_site_pbe_bader_charge
 _atom_site_pbe_bader_spin_density
 _atom_site_pbe_cm5_charge
 _atom_site_pbe_ddec_charge
 _atom_site_pbe_ddec_spin_density
 _atom_site_pbe_ddec_sum_bond_order
 _atom_site_pbe_magmom
Sm  Sm0  1  0.04075853  0.19190254  0.96110187  1  2.23977  0  1.499336  2.099652  0  2.090159  0
Sm  Sm1  1  0.95924630  0.80809624  0.03889622  1  2.239905  0  1.49931  2.09953  0  2.090308  0
Sm  Sm2  1  0.98325268  0.97129330  0.32521205  1  2.240045  0  1.478886  2.083706  0  2.063473  0
Sm  Sm3  1  0.01674897  0.02870350  0.67478665  1  2.24016  0  1.478911  2.083715  0  2.063448  0
Sm  Sm4  1  0.31744983  0.68038757  0.44618805  1  2.230836  0  1.529872  2.095146  0  2.129014  0
Sm  Sm5  1  0.68255658  0.31960790  0.55381121  1  2.230878  0  1.529851  2.09519  0  2.12893  0
Sm  Sm6  1  0.77746363  0.51930682  0.19567551  1  2.230955  0  1.48271  2.060937  0  2.081309  0
Sm  Sm7  1  0.22253953  0.48069263  0.80432545  1  2.230944  0  1.482711  2.060898  0  2.081432  0
Si  Si8  1  0.37523175  0.24807775  0.24718764  1  3.146394  0  0.276248  1.772278  0  3.975963  0
Si  Si9  1  0.62476933  0.75192170  0.75281190  1  3.146428  0  0.276304  1.772368  0  3.975667  0
Mo  Mo10  1  0.31775562  0.16797894  0.11508262  1  2.667504  0  1.587816  2.241634  0  4.523206  0
Mo  Mo11  1  0.68224435  0.83201853  0.88491839  1  2.667482  0  1.587904  2.2418  0  4.523618  0
Mo  Mo12  1  0.21714150  0.46460015  0.32950089  1  2.663261  0  1.584565  2.237965  0  4.533824  0
Mo  Mo13  1  0.78285108  0.53540260  0.67049294  1  2.663572  0  1.58459  2.237953  0  4.533893  0
Mo  Mo14  1  0.11431080  0.31913564  0.37919015  1  2.660465  0  1.579121  2.238329  0  4.536149  0
Mo  Mo15  1  0.88568691  0.68086514  0.62081113  1  2.660361  0  1.579143  2.238252  0  4.536307  0
Mo  Mo16  1  0.28203182  0.08248212  0.31523505  1  2.670299  0  1.578868  2.24486  0  4.530042  0
Mo  Mo17  1  0.71795852  0.91752263  0.68477141  1  2.67042  0  1.578864  2.244782  0  4.530114  0
Mo  Mo18  1  0.55523009  0.10185755  0.32950725  1  2.67295  0  1.582766  2.243924  0  4.538229  0
Mo  Mo19  1  0.44476931  0.89814256  0.67049344  1  2.672891  0  1.58274  2.243848  0  4.53828  0
Mo  Mo20  1  0.18248025  0.40470995  0.17804334  1  2.672267  0  1.587864  2.249927  0  4.512601  0
Mo  Mo21  1  0.81752570  0.59528353  0.82195135  1  2.672003  0  1.587913  2.250023  0  4.512725  0
Mo  Mo22  1  0.45516451  0.31322729  0.02710149  1  2.66739  0  1.582129  2.241146  0  4.528133  0
Mo  Mo23  1  0.54483943  0.68677479  0.97289743  1  2.667472  0  1.582043  2.241013  0  4.52795  0
Mo  Mo24  1  0.51665023  0.03016335  0.16350013  1  2.668305  0  1.581251  2.243219  0  4.527125  0
Mo  Mo25  1  0.48334323  0.96983347  0.83650897  1  2.668129  0  1.581301  2.243257  0  4.527053  0
Mo  Mo26  1  0.31079508  0.18536827  0.46744663  1  2.663564  0  1.577538  2.238247  0  4.5254  0
Mo  Mo27  1  0.68920918  0.81463316  0.53255229  1  2.663402  0  1.577544  2.23821  0  4.525416  0
Mo  Mo28  1  0.43531556  0.31576871  0.38782993  1  2.680269  0  1.587454  2.251388  0  4.522562  0
Mo  Mo29  1  0.56468768  0.68423337  0.61216469  1  2.680335  0  1.587544  2.251539  0  4.522498  0
Mo  Mo30  1  0.48164912  0.40365368  0.16456544  1  2.670325  0  1.586299  2.244662  0  4.535707  0
Mo  Mo31  1  0.51834728  0.59634842  0.83543784  1  2.670226  0  1.586207  2.244519  0  4.535905  0
Mo  Mo32  1  0.63176239  0.19132323  0.10569704  1  2.673587  0  1.586105  2.256443  0  4.530427  0
Mo  Mo33  1  0.36823638  0.80867820  0.89430364  1  2.673407  0  1.586129  2.25642  0  4.530456  0
H  H34  1  0.87942841  0.97311756  0.53323934  1  0.634752  0  0.300867  0.411361  0  0.916511  0
H  H35  1  0.12057031  0.02688256  0.46676280  1  0.634761  0  0.30086  0.411373  0  0.916499  0
H  H36  1  0.99373833  0.93044171  0.51268032  1  0.618107  0  0.313598  0.413296  0  0.901766  0
H  H37  1  0.00626075  0.06955906  0.48731980  1  0.618099  0  0.313592  0.413281  0  0.901762  0
H  H38  1  0.91493887  0.13097356  0.13601389  1  0.627433  0  0.305617  0.40873  0  0.910896  0
H  H39  1  0.08506221  0.86902588  0.86398508  1  0.627431  0  0.305612  0.408701  0  0.910931  0
H  H40  1  0.84247092  0.15695641  0.08623495  1  0.635992  0  0.303496  0.404905  0  0.914267  0
H  H41  1  0.15752985  0.84304369  0.91376459  1  0.635953  0  0.303516  0.404893  0  0.914282  0
H  H42  1  0.39469295  0.57730757  0.27391416  1  0.620185  0  0.326836  0.425534  0  0.869641  0
H  H43  1  0.60530776  0.42269121  0.72608510  1  0.620213  0  0.326818  0.425498  0  0.869696  0
H  H44  1  0.28203237  0.59200191  0.33675413  1  0.663902  0  0.304777  0.405495  0  0.924608  0
H  H45  1  0.71797046  0.40799820  0.66324453  1  0.663873  0  0.30479  0.405535  0  0.924575  0
H  H46  1  0.86522754  0.85089059  0.39632666  1  0.631053  0  0.30484  0.412822  0  0.908363  0
H  H47  1  0.13477255  0.14910952  0.60367317  1  0.63104  0  0.304826  0.41282  0  0.908367  0
H  H48  1  0.92931223  0.83368263  0.44838377  1  0.627158  0  0.322689  0.407648  0  0.895193  0
H  H49  1  0.07068885  0.16631681  0.55161520  1  0.627208  0  0.322668  0.407605  0  0.895222  0
H  H50  1  0.98084002  0.39772418  0.06684674  1  0.645514  0  0.318842  0.418327  0  0.892021  0
H  H51  1  0.01916313  0.60227526  0.93315307  1  0.645522  0  0.318885  0.418345  0  0.89198  0
H  H52  1  0.01401324  0.45618956  0.09789458  1  0.652204  0  0.309586  0.426977  0  0.884687  0
H  H53  1  0.98599060  0.54380989  0.90210552  1  0.652321  0  0.30956  0.426923  0  0.884776  0
H  H54  1  0.12273968  0.78332390  0.43261632  1  0.635592  0  0.300786  0.398426  0  0.94008  0
H  H55  1  0.87726003  0.21667555  0.56738323  1  0.635586  0  0.300817  0.398481  0  0.940011  0
H  H56  1  0.10022972  0.69990476  0.48806120  1  0.64377  0  0.303811  0.430901  0  0.882881  0
H  H57  1  0.89976967  0.30009535  0.51193892  1  0.643799  0  0.30382  0.430946  0  0.882818  0
H  H58  1  0.56878678  0.54106847  0.28339486  1  0.626834  0  0.298695  0.392881  0  0.945322  0
H  H59  1  0.43121330  0.45893163  0.71660440  1  0.626841  0  0.298694  0.392879  0  0.945331  0
H  H60  1  0.60123416  0.48972109  0.20028476  1  0.636138  0  0.303266  0.412199  0  0.904655  0
H  H61  1  0.39876597  0.51028034  0.79971420  1  0.636142  0  0.303273  0.412188  0  0.904676  0
H  H62  1  0.36269809  0.57798246  0.59377292  1  0.654957  0  0.304536  0.409349  0  0.919748  0
H  H63  1  0.63730231  0.42201698  0.40622692  1  0.654954  0  0.30453  0.409345  0  0.919749  0
H  H64  1  0.45202441  0.61338584  0.55193994  1  0.660848  0  0.305461  0.431595  0  0.882444  0
H  H65  1  0.54797567  0.38661427  0.44805989  1  0.660857  0  0.305462  0.431612  0  0.882423  0
H  H66  1  0.88779264  0.32470023  0.15935164  1  0.643221  0  0.310504  0.402646  0  0.922954  0
H  H67  1  0.11220645  0.67530054  0.84064962  1  0.643242  0  0.310502  0.402676  0  0.922937  0
H  H68  1  0.80606056  0.32779873  0.25461652  1  0.620332  0  0.338047  0.424979  0  0.853831  0
H  H69  1  0.19393884  0.67220138  0.74538360  1  0.62034  0  0.338055  0.424988  0  0.853832  0
H  H70  1  0.89805143  0.94171052  0.22048095  1  0.633003  0  0.296352  0.390112  0  0.952198  0
H  H71  1  0.10195003  0.05828958  0.77951829  1  0.632995  0  0.296339  0.390095  0  0.952228  0
H  H72  1  0.79440039  0.99929417  0.29889966  1  0.654931  0  0.301111  0.419725  0  0.898837  0
H  H73  1  0.20560069  0.00070527  0.70109988  1  0.654812  0  0.301095  0.419679  0  0.898905  0
H  H74  1  0.91025727  0.14664543  0.40139501  1  0.655002  0  0.303165  0.399671  0  0.936378  0
H  H75  1  0.08974181  0.85335534  0.59860510  1  0.655014  0  0.303176  0.399685  0  0.936361  0
H  H76  1  0.02256027  0.13415478  0.33630175  1  0.62302  0  0.340265  0.433684  0  0.842451  0
H  H77  1  0.97743886  0.86584731  0.66369749  1  0.623042  0  0.340255  0.433657  0  0.842497  0
H  H78  1  0.19215809  0.22041421  0.00034564  1  0.635716  0  0.302593  0.417887  0  0.902543  0
H  H79  1  0.80784305  0.77958655  0.99965360  1  0.63572  0  0.302604  0.417927  0  0.902475  0
H  H80  1  0.15215764  0.29977433  0.93679617  1  0.658334  0  0.299786  0.398047  0  0.93955  0
H  H81  1  0.84784255  0.70022842  0.06320191  1  0.658377  0  0.299725  0.397974  0  0.939675  0
H  H82  1  0.14535161  0.97178966  0.96663568  1  0.640509  0  0.302013  0.41615  0  0.903756  0
H  H83  1  0.85464953  0.02821110  0.03336241  1  0.640491  0  0.302037  0.416179  0  0.903703  0
H  H84  1  0.05501328  0.01163602  0.93885469  1  0.61895  0  0.319259  0.404218  0  0.905527  0
H  H85  1  0.94498549  0.98836541  0.06114600  1  0.618932  0  0.319244  0.4042  0  0.90553  0
H  H86  1  0.66918800  0.69394379  0.12981076  1  0.606734  0  0.334517  0.419187  0  0.858457  0
H  H87  1  0.33081345  0.30605631  0.87018791  1  0.606852  0  0.334499  0.419175  0  0.85847  0
H  H88  1  0.64808189  0.63290911  0.09224046  1  0.642212  0  0.305493  0.407095  0  0.917659  0
H  H89  1  0.35192125  0.36709033  0.90775878  1  0.642269  0  0.305487  0.407076  0  0.917691  0
H  H90  1  0.23980923  0.08549152  0.79829702  1  0.628765  0  0.331558  0.424663  0  0.863899  0
H  H91  1  0.76019053  0.91450925  0.20170281  1  0.628751  0  0.331548  0.424655  0  0.863882  0
H  H92  1  0.27841452  0.10949782  0.85466103  1  0.654928  0  0.302168  0.413695  0  0.911735  0
H  H93  1  0.72158556  0.89050228  0.14533880  1  0.654918  0  0.302132  0.413663  0  0.911789  0
H  H94  1  0.96510026  0.66368651  0.29172764  1  0.093903  0  0.120933  0.134608  0  0.970116  0
H  H95  1  0.03490152  0.33631294  0.70827218  1  0.093797  0  0.120938  0.1346  0  0.970156  0
H  H96  1  0.75789427  0.27890831  0.82334996  1  0.116196  0  0.120467  0.132468  0  0.974513  0
H  H97  1  0.24210820  0.72109114  0.17665015  1  0.116403  0  0.120445  0.13246  0  0.974516  0
H  H98  1  0.34762985  0.96819417  0.51451811  1  0.133817  0  0.117057  0.129466  0  1.008277  0
H  H99  1  0.65236882  0.03180462  0.48548433  1  0.133822  0  0.117046  0.129442  0  1.00828  0
H  H100  1  0.62854333  0.42053277  0.90627088  1  0.125177  0  0.110054  0.105902  0  1.01773  0
H  H101  1  0.37145744  0.57946734  0.09372866  1  0.125181  0  0.110046  0.105885  0  1.017738  0
H  H102  1  0.66850613  0.47312313  0.00447195  1  0.127681  0  0.115823  0.128378  0  1.01086  0
H  H103  1  0.33149527  0.52687565  0.99552760  1  0.127706  0  0.115826  0.12837  0  1.010839  0
H  H104  1  0.62596176  0.79053166  0.32465700  1  0.114085  0  0.120445  0.132606  0  0.969593  0
H  H105  1  0.37403702  0.20946977  0.67534427  1  0.113972  0  0.120484  0.132686  0  0.969588  0
H  H106  1  0.52783294  0.93098971  0.41189773  1  0.113621  0  0.110997  0.110786  0  1.009731  0
H  H107  1  0.47216483  0.06901239  0.58810381  1  0.113618  0  0.111013  0.110778  0  1.009786  0
H  H108  1  0.84630795  0.49462441  0.48887250  1  0.135725  0  0.11244  0.115557  0  1.038008  0
H  H109  1  0.15369282  0.50537570  0.51112819  1  0.135736  0  0.112447  0.115579  0  1.037993  0
H  H110  1  0.43136704  0.90663961  0.04478024  1  0.147277  0  0.11368  0.125111  0  0.99788  0
H  H111  1  0.56863267  0.09335984  0.95521931  1  0.147283  0  0.113684  0.12514  0  0.997864  0
H  H112  1  0.40487122  0.82728599  0.18893752  1  0.119903  0  0.119566  0.130472  0  0.972777  0
H  H113  1  0.59513017  0.17271279  0.81106088  1  0.119917  0  0.119553  0.130458  0  0.972779  0
H  H114  1  0.27810339  0.02130291  0.02091994  1  0.13774  0  0.116545  0.123344  0  1.020266  0
H  H115  1  0.72189564  0.97869654  0.97908048  1  0.13775  0  0.11654  0.123356  0  1.020241  0
H  H116  1  0.94188801  0.59024409  0.43829006  1  0.113818  0  0.114881  0.1247  0  0.988358  0
H  H117  1  0.05811338  0.40975470  0.56170892  1  0.11372  0  0.11491  0.124721  0  0.988293  0
C  C118  1  0.21941417  0.84927408  0.31956714  1  1.592918  0  0.242334  0.613717  0  4.159739  0
C  C119  1  0.78058654  0.15072471  0.68043270  1  1.592957  0  0.242293  0.613656  0  4.159832  0
C  C120  1  0.35593740  0.92175040  0.09525063  1  0.028102  0  -0.052728  0.012146  0  3.870151  0
C  C121  1  0.64406367  0.07824904  0.90474776  1  0.028078  0  -0.05277  0.012032  0  3.87025  0
C  C122  1  0.34195921  0.87800842  0.17449568  1  -0.044402  0  -0.055804  -0.092876  0  3.859064  0
C  C123  1  0.65804181  0.12198970  0.82550302  1  -0.044385  0  -0.055795  -0.092802  0  3.859076  0
C  C124  1  0.27146864  0.98542358  0.08148899  1  -0.027695  0  -0.06335  -0.101076  0  3.878513  0
C  C125  1  0.72853087  0.01457917  0.91851168  1  -0.027775  0  -0.063315  -0.101041  0  3.878526  0
C  C126  1  0.24353047  0.89862519  0.23627445  1  0.556754  0  0.122003  0.116324  0  3.990437  0
C  C127  1  0.75647098  0.10137491  0.76372480  1  0.556697  0  0.121967  0.116209  0  3.990524  0
C  C128  1  0.17603879  0.00448216  0.14826956  1  0.507832  0  0.123151  0.121264  0  3.977459  0
C  C129  1  0.82396166  0.99551860  0.85172940  1  0.507941  0  0.12316  0.121271  0  3.977439  0
C  C130  1  0.24458989  0.86555147  0.54469485  1  1.584518  0  0.244279  0.610371  0  4.145819  0
C  C131  1  0.75540945  0.13444731  0.45530615  1  1.584207  0  0.244452  0.610733  0  4.145455  0
C  C132  1  0.84019434  0.38437213  0.03772367  1  1.597438  0  0.241323  0.601754  0  4.155996  0
C  C133  1  0.15980785  0.61562930  0.96227499  1  1.597602  0  0.241359  0.601794  0  4.155932  0
C  C134  1  0.88840888  0.60398814  0.26670565  1  0.511345  0  0.124665  0.11711  0  3.981599  0
C  C135  1  0.11159153  0.39601131  0.73329591  1  0.511318  0  0.124617  0.117086  0  3.981464  0
C  C136  1  0.82365520  0.51534404  0.37269348  1  0.518223  0  0.125164  0.121182  0  3.964774  0
C  C137  1  0.17634559  0.48465607  0.62730836  1  0.518333  0  0.125119  0.121109  0  3.964836  0
C  C138  1  0.75902946  0.46577691  0.40049463  1  1.591526  0  0.245867  0.611767  0  4.142585  0
C  C139  1  0.24097506  0.53422253  0.59950460  1  1.591626  0  0.245901  0.611865  0  4.142441  0
C  C140  1  0.89330353  0.64792259  0.18114428  1  1.590689  0  0.239196  0.606503  0  4.162015  0
C  C141  1  0.10669488  0.35207819  0.81885786  1  1.590962  0  0.23919  0.606538  0  4.162034  0
C  C142  1  0.81107286  0.36001806  0.97851880  1  0.470656  0  0.12605  0.119019  0  3.95395  0
C  C143  1  0.18892692  0.63998271  0.02148217  1  0.47073  0  0.125981  0.118995  0  3.953752  0
C  C144  1  0.85865105  0.25655346  0.88172815  1  0.449892  0  0.123788  0.114817  0  3.983444  0
C  C145  1  0.14135072  0.74344598  0.11827168  1  0.450071  0  0.123812  0.114861  0  3.983359  0
C  C146  1  0.91265812  0.58017040  0.39762246  1  0.009774  0  -0.052352  0.005207  0  3.87127  0
C  C147  1  0.08734297  0.41982905  0.60237823  1  0.010086  0  -0.052344  0.005219  0  3.871139  0
C  C148  1  0.93999811  0.17202032  0.83587597  1  1.596702  0  0.24364  0.612832  0  4.146449  0
C  C149  1  0.06000472  0.82797979  0.16412327  1  1.596661  0  0.243602  0.612782  0  4.146424  0
C  C150  1  0.77019605  0.30432483  0.86789535  1  0.006702  0  -0.055731  -0.09093  0  3.859737  0
C  C151  1  0.22980641  0.69567461  0.13210418  1  0.006334  0  -0.055727  -0.090966  0  3.859828  0
C  C152  1  0.92616425  0.62037050  0.31678823  1  0.003529  0  -0.055974  -0.093052  0  3.865839  0
C  C153  1  0.07383584  0.37962960  0.68321218  1  0.003619  0  -0.056018  -0.093077  0  3.865844  0
C  C154  1  0.39286389  0.90860511  0.47571559  1  0.03594  0  -0.055421  -0.088822  0  3.856535  0
C  C155  1  0.60713547  0.09139368  0.52428714  1  0.036002  0  -0.055435  -0.088757  0  3.856535  0
C  C156  1  0.49909108  0.75631248  0.38167064  1  0.486562  0  0.123811  0.115804  0  3.976364  0
C  C157  1  0.50090632  0.24368895  0.61833063  1  0.486119  0  0.123784  0.115731  0  3.976376  0
C  C158  1  0.69983872  0.38282052  0.91298715  1  0.04649  0  -0.05378  0.008594  0  3.883317  0
C  C159  1  0.30016205  0.61717959  0.08701239  1  0.046363  0  -0.053755  0.008644  0  3.883465  0
C  C160  1  0.72088421  0.41208403  0.96834243  1  0.040833  0  -0.055176  -0.079928  0  3.848319  0
C  C161  1  0.27911762  0.58791674  0.03165709  1  0.040935  0  -0.055154  -0.079932  0  3.848244  0
C  C162  1  0.54748832  0.81015547  0.37017834  1  0.0151  0  -0.053285  -0.086975  0  3.852005  0
C  C163  1  0.45250809  0.18984663  0.62982494  1  0.015439  0  -0.053396  -0.087125  0  3.852063  0
C  C164  1  0.49299615  0.88753829  0.41813696  1  -0.003057  0  -0.050543  0.01591  0  3.870294  0
C  C165  1  0.50700088  0.11246249  0.58186575  1  -0.003127  0  -0.050484  0.016007  0  3.870059  0
C  C166  1  0.85992040  0.52716659  0.42640512  1  0.015927  0  -0.058744  -0.084109  0  3.859976  0
C  C167  1  0.14008037  0.47283352  0.57359499  1  0.015767  0  -0.058708  -0.084094  0  3.859922  0
C  C168  1  0.54944510  0.67268576  0.33210522  1  1.621911  0  0.241588  0.608835  0  4.159933  0
C  C169  1  0.45055025  0.32731568  0.66789923  1  1.622094  0  0.241609  0.608865  0  4.159714  0
C  C170  1  0.35110614  0.85015769  0.48428626  1  0.507457  0  0.126192  0.120894  0  3.965467  0
C  C171  1  0.64889422  0.14984044  0.51571617  1  0.507341  0  0.126199  0.120703  0  3.965716  0
C  C172  1  0.08093074  0.07304563  0.13994919  1  1.578456  0  0.23548  0.605869  0  4.172204  0
C  C173  1  0.91907060  0.92695183  0.86005066  1  1.578465  0  0.235504  0.605848  0  4.172275  0
N  N174  1  0.16234117  0.96109814  0.22365098  1  -1.256521  0  -0.378933  -0.384263  0  3.559692  0
N  N175  1  0.83765954  0.03890064  0.77634829  1  -1.256537  0  -0.37894  -0.384231  0  3.559692  0
N  N176  1  0.40343256  0.77590282  0.43799554  1  -1.246947  0  -0.387553  -0.373115  0  3.560127  0
N  N177  1  0.59656606  0.22409465  0.56200778  1  -1.246768  0  -0.387523  -0.373021  0  3.560193  0
N  N178  1  0.87751953  0.28326117  0.93695381  1  -1.23219  0  -0.377319  -0.362087  0  3.543152  0
N  N179  1  0.12248024  0.71673960  0.06304602  1  -1.232302  0  -0.377284  -0.362027  0  3.543019  0
N  N180  1  0.83979930  0.55127218  0.29364763  1  -1.260916  0  -0.378193  -0.383738  0  3.535871  0
N  N181  1  0.16020078  0.44872793  0.70635220  1  -1.26096  0  -0.378175  -0.383714  0  3.535872  0
O  O182  1  0.64033346  0.64921397  0.27976951  1  -1.205842  0  -0.371408  -0.637429  0  2.330201  0
O  O183  1  0.35966462  0.35078746  0.72023204  1  -1.205979  0  -0.371402  -0.637412  0  2.330215  0
O  O184  1  0.29040187  0.79483885  0.34089941  1  -1.194729  0  -0.382414  -0.639535  0  2.295534  0
O  O185  1  0.70959547  0.20516127  0.65910331  1  -1.194733  0  -0.382418  -0.639532  0  2.295531  0
O  O186  1  0.12571476  0.86508957  0.36307725  1  -1.190139  0  -0.362163  -0.625009  0  2.299407  0
O  O187  1  0.87428464  0.13491054  0.63692402  1  -1.190166  0  -0.362131  -0.624975  0  2.299428  0
O  O188  1  0.09048915  0.12447765  0.07576375  1  -1.190578  0  -0.395556  -0.614975  0  2.311077  0
O  O189  1  0.90951087  0.87552113  0.92423581  1  -1.190612  0  -0.395582  -0.614963  0  2.311135  0
O  O190  1  0.92362693  0.32869867  0.04378179  1  -1.192185  0  -0.369584  -0.657406  0  2.334604  0
O  O191  1  0.07637351  0.67130210  0.95621544  1  -1.192213  0  -0.369612  -0.657447  0  2.334569  0
O  O192  1  0.49493535  0.63106959  0.34650031  1  -1.192087  0  -0.368147  -0.637701  0  2.257944  0
O  O193  1  0.50506538  0.36892920  0.65350241  1  -1.192019  0  -0.36815  -0.637717  0  2.257831  0
O  O194  1  0.93753339  0.69867660  0.15140152  1  -1.179938  0  -0.376179  -0.632779  0  2.309859  0
O  O195  1  0.06246407  0.30132616  0.84860060  1  -1.179859  0  -0.376173  -0.632811  0  2.309907  0
O  O196  1  0.84853720  0.63158882  0.14567114  1  -1.177052  0  -0.357367  -0.617909  0  2.283682  0
O  O197  1  0.15146015  0.36841129  0.85433216  1  -1.177306  0  -0.357336  -0.61791  0  2.283756  0
O  O198  1  0.92715383  0.14094295  0.78467397  1  -1.191692  0  -0.367847  -0.614898  0  2.301125  0
O  O199  1  0.07284762  0.85905715  0.21532528  1  -1.191554  0  -0.367882  -0.614928  0  2.301228  0
O  O200  1  0.18990317  0.93503179  0.58905397  1  -1.195698  0  -0.373917  -0.603744  0  2.281989  0
O  O201  1  0.81009437  0.06496502  0.41094764  1  -1.195449  0  -0.373945  -0.603854  0  2.281755  0
O  O202  1  0.78212004  0.45582282  0.07865489  1  -1.179811  0  -0.362527  -0.591772  0  2.264315  0
O  O203  1  0.21788215  0.54417861  0.92134318  1  -1.180002  0  -0.362528  -0.591775  0  2.264312  0
O  O204  1  0.99684037  0.07449213  0.19812687  1  -1.188314  0  -0.358947  -0.644984  0  2.240419  0
O  O205  1  0.00315896  0.92550665  0.80187183  1  -1.188277  0  -0.358926  -0.644944  0  2.240484  0
O  O206  1  0.72127980  0.46781038  0.34898948  1  -1.180201  0  -0.350819  -0.615036  0  2.296706  0
O  O207  1  0.27872640  0.53218840  0.65100802  1  -1.180357  0  -0.350844  -0.615111  0  2.296724  0
O  O208  1  0.74437684  0.42672465  0.47274539  1  -1.1953  0  -0.38934  -0.62453  0  2.26995  0
O  O209  1  0.25562774  0.57327612  0.52725411  1  -1.19531  0  -0.389327  -0.62453  0  2.269975  0
O  O210  1  0.70075382  0.63649526  0.10321027  1  -1.210273  0  -0.613041  -0.801828  0  2.027168  0
O  O211  1  0.29924833  0.36350485  0.89678926  1  -1.210477  0  -0.613021  -0.801808  0  2.027229  0
O  O212  1  0.01911633  0.13702378  0.85271493  1  -1.1937  0  -0.366121  -0.646915  0  2.290869  0
O  O213  1  0.98088792  0.86297764  0.14728227  1  -1.193657  0  -0.366059  -0.646857  0  2.290832  0
O  O214  1  0.95617964  0.45234137  0.09653165  1  -1.272314  0  -0.63809  -0.85041  0  2.033333  0
O  O215  1  0.04382360  0.54766071  0.90346469  1  -1.272381  0  -0.638112  -0.850369  0  2.033474  0
O  O216  1  0.14406846  0.73116886  0.46976773  1  -1.266588  0  -0.665028  -0.874238  0  2.047207  0
O  O217  1  0.85593294  0.26882992  0.53023067  1  -1.26664  0  -0.665066  -0.874302  0  2.047149  0
O  O218  1  0.62574632  0.49356378  0.24118820  1  -1.252364  0  -0.645993  -0.846855  0  2.038419  0
O  O219  1  0.37425381  0.50643765  0.75881018  1  -1.252356  0  -0.646003  -0.846823  0  2.038425  0
O  O220  1  0.39363922  0.61404010  0.54713723  1  -1.306115  0  -0.661708  -0.901036  0  2.036285  0
O  O221  1  0.60636417  0.38595735  0.45286002  1  -1.306096  0  -0.66168  -0.901038  0  2.036212  0
O  O222  1  0.85400638  0.35247567  0.21659771  1  -1.244388  0  -0.613672  -0.82263  0  2.008912  0
O  O223  1  0.14599239  0.64752576  0.78340240  1  -1.244387  0  -0.613685  -0.822664  0  2.008847  0
O  O224  1  0.86634605  0.98690155  0.26565839  1  -1.280148  0  -0.654563  -0.855234  0  2.050889  0
O  O225  1  0.13365403  0.01309856  0.73434144  1  -1.280003  0  -0.654553  -0.855195  0  2.050946  0
O  O226  1  0.94663912  0.95241055  0.48455223  1  -1.240718  0  -0.631064  -0.852719  0  2.077232  0
O  O227  1  0.05336065  0.04759022  0.51544875  1  -1.24072  0  -0.631063  -0.852713  0  2.077224  0
O  O228  1  0.98295147  0.10216532  0.37512435  1  -1.261443  0  -0.604134  -0.844701  0  2.055731  0
O  O229  1  0.01704735  0.89783743  0.62487604  1  -1.261483  0  -0.604124  -0.84469  0  2.055786  0
O  O230  1  0.13630704  0.25520221  0.98181221  1  -1.280632  0  -0.651476  -0.854051  0  2.050384  0
O  O231  1  0.86369384  0.74480054  0.01818730  1  -1.280654  0  -0.651425  -0.85402  0  2.050465  0
O  O232  1  0.89783451  0.16471752  0.08731985  1  -1.258352  0  -0.626248  -0.848312  0  2.043826  0
O  O233  1  0.10216888  0.83527993  0.91267740  1  -1.258316  0  -0.626236  -0.848234  0  2.04385  0
O  O234  1  0.34074450  0.60109074  0.32974123  1  -1.258585  0  -0.628296  -0.841893  0  2.015693  0
O  O235  1  0.65925463  0.39891135  0.67025858  1  -1.258603  0  -0.628306  -0.841939  0  2.015649  0
O  O236  1  0.92990619  0.84742974  0.39077529  1  -1.232559  0  -0.621372  -0.81877  0  2.007897  0
O  O237  1  0.07009452  0.15256904  0.60922455  1  -1.232634  0  -0.621344  -0.818724  0  2.007877  0
O  O238  1  0.21695500  0.11972794  0.84798079  1  -1.264911  0  -0.621  -0.844217  0  1.990143  0
O  O239  1  0.78304571  0.88027085  0.15201905  1  -1.264885  0  -0.620952  -0.844166  0  1.990121  0
O  O240  1  0.08328836  0.02548085  0.97055509  1  -1.247598  0  -0.619953  -0.846202  0  2.070188  0
O  O241  1  0.91671383  0.97452058  0.02944299  1  -1.247575  0  -0.619941  -0.846173  0  2.070186  0
O  O242  1  0.21531898  0.80651221  0.54625425  1  -1.184706  0  -0.362625  -0.642441  0  2.265693  0
O  O243  1  0.78468099  0.19348525  0.45374619  1  -1.18465  0  -0.362726  -0.64262  0  2.265613  0
O  O244  1  0.45406621  0.09437954  0.43447455  1  -0.955178  0  -0.555958  -0.801487  0  1.93913  0
O  O245  1  0.54593001  0.90561859  0.56552734  1  -0.955141  0  -0.555969  -0.801404  0  1.939  0
O  O246  1  0.41291051  0.22467180  0.04668936  1  -0.969015  0  -0.568731  -0.845877  0  2.058148  0
O  O247  1  0.58708826  0.77532963  0.95331075  1  -0.969008  0  -0.568769  -0.845895  0  2.058302  0
O  O248  1  0.40898872  0.99688519  0.25470704  1  -0.944408  0  -0.562372  -0.801902  0  1.938942  0
O  O249  1  0.59100530  0.00311757  0.74529482  1  -0.944297  0  -0.56237  -0.801885  0  1.938847  0
O  O250  1  0.44928243  0.05819573  0.09295223  1  -0.944863  0  -0.553574  -0.793478  0  1.919482  0
O  O251  1  0.55071761  0.94180306  0.90705019  1  -0.944747  0  -0.553575  -0.793532  0  1.919529  0
O  O252  1  0.30916825  0.10439461  0.39812154  1  -0.964453  0  -0.5656  -0.843316  0  2.056362  0
O  O253  1  0.69083383  0.89560417  0.60187600  1  -0.964521  0  -0.565596  -0.843329  0  2.056333  0
O  O254  1  0.53699637  0.04292035  0.26519399  1  -0.970568  0  -0.571086  -0.853312  0  2.069413  0
O  O255  1  0.46299999  0.95708043  0.73481189  1  -0.970487  0  -0.571077  -0.853332  0  2.069479  0
O  O256  1  0.11351460  0.43214969  0.40109894  1  -0.947736  0  -0.552206  -0.797906  0  1.952091  0
O  O257  1  0.88648405  0.56784909  0.59890063  1  -0.94784  0  -0.552199  -0.797898  0  1.952054  0
O  O258  1  0.08123240  0.37752613  0.28763445  1  -0.941258  0  -0.557249  -0.799001  0  1.907522  0
O  O259  1  0.91876657  0.62247199  0.71236570  1  -0.941273  0  -0.557301  -0.799017  0  1.907571  0
O  O260  1  0.22331059  0.28007341  0.15252153  1  -0.951907  0  -0.565529  -0.823066  0  2.029777  0
O  O261  1  0.77668418  0.71993068  0.84748261  1  -0.951803  0  -0.565558  -0.82315  0  2.029896  0
O  O262  1  0.45723373  0.27802080  0.16539499  1  -1.46378  0  -0.475335  -1.077881  0  2.331828  0
O  O263  1  0.54276435  0.72198064  0.83460541  1  -1.463861  0  -0.475325  -1.077874  0  2.331732  0
O  O264  1  0.21636008  0.01867508  0.36891046  1  -0.833383  0  -0.491209  -0.650295  0  1.712545  0
O  O265  1  0.78363541  0.98132173  0.63109374  1  -0.833219  0  -0.491173  -0.65016  0  1.712617  0
O  O266  1  0.47485823  0.40749096  0.05927221  1  -0.952305  0  -0.558162  -0.804734  0  1.935576  0
O  O267  1  0.52513915  0.59251047  0.94072619  1  -0.952341  0  -0.558125  -0.804688  0  1.93566  0
O  O268  1  0.40791016  0.22151404  0.32885047  1  -1.468369  0  -0.475996  -1.078095  0  2.332004  0
O  O269  1  0.59208692  0.77848806  0.67115137  1  -1.468382  0  -0.47599  -1.078173  0  2.332072  0
O  O270  1  0.51676199  0.48707646  0.15646948  1  -0.836607  0  -0.494339  -0.660481  0  1.694112  0
O  O271  1  0.48323508  0.51292563  0.84353006  1  -0.836596  0  -0.494331  -0.660439  0  1.694113  0
O  O272  1  0.25691314  0.10700016  0.20788743  1  -0.955892  0  -0.563047  -0.813275  0  1.939637  0
O  O273  1  0.74308472  0.89299598  0.79211476  1  -0.956014  0  -0.563072  -0.813297  0  1.939749  0
O  O274  1  0.34943160  0.26332986  0.48655464  1  -0.942613  0  -0.558468  -0.80492  0  1.931188  0
O  O275  1  0.65057023  0.73667090  0.51344373  1  -0.942672  0  -0.558496  -0.804957  0  1.931165  0
O  O276  1  0.34499380  0.45680959  0.22741299  1  -0.970552  0  -0.570249  -0.8503  0  2.08987  0
O  O277  1  0.65500542  0.54319514  0.77258277  1  -0.970539  0  -0.570259  -0.850327  0  2.089925  0
O  O278  1  0.37354568  0.16237334  0.22027534  1  -1.466151  0  -0.475678  -1.079508  0  2.33413  0
O  O279  1  0.62645247  0.83762942  0.77972706  1  -1.466094  0  -0.47575  -1.07955  0  2.334126  0
O  O280  1  0.45002426  0.37377078  0.44657461  1  -0.821822  0  -0.485149  -0.63636  0  1.65304  0
O  O281  1  0.54997757  0.62622999  0.55342434  1  -0.821856  0  -0.48519  -0.636403  0  1.653038  0
O  O282  1  0.48975951  0.35294407  0.27653933  1  -0.958174  0  -0.5684  -0.830939  0  2.03222  0
O  O283  1  0.51024187  0.64705471  0.72345735  1  -0.958164  0  -0.568374  -0.830947  0  2.031961  0
O  O284  1  0.26241764  0.32964467  0.27422457  1  -1.467896  0  -0.473414  -1.077569  0  2.327492  0
O  O285  1  0.73758449  0.67035543  0.72577324  1  -1.467952  0  -0.473409  -1.077536  0  2.327394  0
O  O286  1  0.61766991  0.15497018  0.21627595  1  -0.956084  0  -0.568013  -0.82907  0  2.026248  0
O  O287  1  0.38233086  0.84502993  0.78372358  1  -0.956101  0  -0.568024  -0.8291  0  2.026262  0
O  O288  1  0.54379751  0.20564605  0.37626871  1  -0.946409  0  -0.561131  -0.80404  0  1.916112  0
O  O289  1  0.45620520  0.79435140  0.62372941  1  -0.946396  0  -0.561176  -0.80409  0  1.91614  0
O  O290  1  0.58684381  0.09999600  0.10766135  1  -0.972349  0  -0.56689  -0.850326  0  2.071146  0
O  O291  1  0.41314949  0.90000545  0.89234455  1  -0.972393  0  -0.566944  -0.850312  0  2.071273  0
O  O292  1  0.30917974  0.38835502  0.09556139  1  -0.963933  0  -0.56334  -0.837185  0  2.051161  0
O  O293  1  0.69081833  0.61164641  0.90443844  1  -0.963934  0  -0.563321  -0.837212  0  2.051188  0
O  O294  1  0.66447206  0.02325210  0.33811631  1  -0.830545  0  -0.492526  -0.653838  0  1.70138  0
O  O295  1  0.33552428  0.97674868  0.66188497  1  -0.830599  0  -0.492441  -0.653723  0  1.701393  0
O  O296  1  0.30318734  0.39977642  0.38444459  1  -0.967028  0  -0.565553  -0.841352  0  2.073206  0
O  O297  1  0.69681092  0.60022169  0.61555298  1  -0.967069  0  -0.56559  -0.841294  0  2.073276  0
O  O298  1  0.46040050  0.34844438  0.92554960  1  -0.817449  0  -0.496221  -0.643172  0  1.650827  0
O  O299  1  0.53959622  0.65155705  0.07445254  1  -0.817451  0  -0.496169  -0.643118  0  1.650675  0
O  O300  1  0.61806350  0.30312640  0.11691409  1  -0.942713  0  -0.561202  -0.798791  0  1.92339  0
O  O301  1  0.38193659  0.69687371  0.88308746  1  -0.94271  0  -0.561185  -0.798728  0  1.92345  0
O  O302  1  0.17602612  0.57069969  0.35929864  1  -0.81544  0  -0.489425  -0.634278  0  1.642608  0
O  O303  1  0.82397150  0.42929975  0.64069834  1  -0.815503  0  -0.489429  -0.634285  0  1.642613  0
O  O304  1  0.29081342  0.15524668  0.03536407  1  -0.797328  0  -0.479699  -0.625966  0  1.738887  0
O  O305  1  0.70918358  0.84475409  0.96463520  1  -0.797298  0  -0.479734  -0.626024  0  1.738957  0
O  O306  1  0.10525278  0.46123304  0.12466829  1  -0.806757  0  -0.47908  -0.627158  0  1.648901  0
O  O307  1  0.89475216  0.53876110  0.87532497  1  -0.806617  0  -0.479135  -0.627239  0  1.649075  0
O  O308  1  0.16773994  0.20479315  0.34437456  1  -0.975756  0  -0.572055  -0.847594  0  2.010584  0
O  O309  1  0.83225726  0.79520431  0.65562302  1  -0.97584  0  -0.572036  -0.847531  0  2.010633  0
O  O310  1  0.76065138  0.13645104  0.04770332  1  -0.881695  0  -0.503184  -0.693517  0  1.720609  0
O  O311  1  0.23934808  0.86355039  0.95229823  1  -0.881511  0  -0.503168  -0.693457  0  1.720591  0
O  O312  1  0.19972775  0.26734604  0.44775130  1  -0.959158  0  -0.56946  -0.848936  0  2.066615  0
O  O313  1  0.80027206  0.73265605  0.55224650  1  -0.95919  0  -0.569463  -0.848942  0  2.06675  0
O  O314  1  0.58898218  0.23961299  0.00769578  1  -0.94621  0  -0.559971  -0.812451  0  1.961369  0
O  O315  1  0.41101445  0.76038711  0.99230264  1  -0.946194  0  -0.560001  -0.812498  0  1.96135  0
O  O316  1  0.16442148  0.49328791  0.23851814  1  -0.941837  0  -0.560286  -0.807365  0  1.945454  0
O  O317  1  0.83557960  0.50671153  0.76148026  1  -0.941864  0  -0.560261  -0.807323  0  1.945391  0
O  O318  1  0.25635611  0.14824201  0.56912197  1  -0.820499  0  -0.495806  -0.644115  0  1.647771  0
O  O319  1  0.74364671  0.85175809  0.43087554  1  -0.820284  0  -0.495851  -0.644139  0  1.647764  0
O  O320  1  0.60959559  0.92526876  0.13371031  1  -0.82414  0  -0.495999  -0.64425  0  1.664346  0
O  O321  1  0.39040413  0.07473069  0.86629097  1  -0.824149  0  -0.496034  -0.644286  0  1.664316  0
O  O322  1  0.99992940  0.33147108  0.46088640  1  -0.819772  0  -0.487703  -0.640758  0  1.696623  0
O  O323  1  0.00006626  0.66852970  0.53911747  1  -0.819678  0  -0.487666  -0.640662  0  1.696686  0
