# generated using pymatgen
data_Cd2H45C64N3O13
_symmetry_space_group_name_H-M   'P 1'
_cell_length_a   14.30642993
_cell_length_b   14.74191570
_cell_length_c   16.78849690
_cell_angle_alpha   113.40238555
_cell_angle_beta   102.97171143
_cell_angle_gamma   100.29577291
_symmetry_Int_Tables_number   1
_chemical_formula_structural   Cd2H45C64N3O13
_chemical_formula_sum   'Cd4 H90 C128 N6 O26'
_cell_volume   3021.17127650
_cell_formula_units_Z   2
loop_
 _symmetry_equiv_pos_site_id
 _symmetry_equiv_pos_as_xyz
  1  'x, y, z'
loop_
 _atom_site_type_symbol
 _atom_site_label
 _atom_site_symmetry_multiplicity
 _atom_site_fract_x
 _atom_site_fract_y
 _atom_site_fract_z
 _atom_site_occupancy
 _atom_site_pbe_bader_charge
 _atom_site_pbe_bader_spin_density
 _atom_site_pbe_cm5_charge
 _atom_site_pbe_ddec_charge
 _atom_site_pbe_ddec_spin_density
 _atom_site_pbe_ddec_sum_bond_order
 _atom_site_pbe_magmom
Cd  Cd0  1  0.35622036  0.44722968  0.58635694  1  1.274603  0  0.773072  0.886344  0  2.151632  0
Cd  Cd1  1  0.64378183  0.55277331  0.41364552  1  1.274667  0  0.773092  0.886315  0  2.151591  0
Cd  Cd2  1  0.06408638  0.11086094  0.11646271  1  1.252931  0  0.804671  0.934786  0  2.019946  0
Cd  Cd3  1  0.93592361  0.88914673  0.88354524  1  1.252821  0  0.804717  0.934824  0  2.019779  0
H  H4  1  0.12638862  0.48330661  0.13581548  1  0.13893  0  0.109502  0.115928  0  1.047146  0
H  H5  1  0.89366973  0.14576367  0.33754140  1  0.036044  0  0.10174  0.101804  0  0.990356  0
H  H6  1  0.15202730  0.35193671  0.18607320  1  0.094523  0  0.114866  0.085383  0  1.016868  0
H  H7  1  0.74278651  0.99011673  0.67488389  1  0.62841  0  0.293281  0.340047  0  0.999499  0
H  H8  1  0.69358912  0.29971369  0.91299877  1  0.060199  0  0.094876  0.089482  0  1.055099  0
H  H9  1  0.09728400  0.05930342  0.39995086  1  0.098201  0  0.103334  0.108262  0  1.04174  0
H  H10  1  0.89567720  0.42519100  0.93244342  1  0.097449  0  0.10332  0.100507  0  1.040316  0
H  H11  1  0.52871629  0.87932225  0.19835770  1  0.05421  0  0.091278  0.087912  0  1.069534  0
H  H12  1  0.90216784  0.76147933  0.32406538  1  0.112746  0  0.102008  0.105889  0  1.065992  0
H  H13  1  0.55727922  0.58585911  0.62299658  1  0.644158  0  0.285288  0.383926  0  0.964374  0
H  H14  1  0.28949276  0.23762789  0.06338643  1  0.62267  0  0.300144  0.345317  0  0.989921  0
H  H15  1  0.88654447  0.13453705  0.98754275  1  0.117549  0  0.115451  0.090117  0  1.036922  0
H  H16  1  0.50826136  0.99728824  0.40912234  1  0.096019  0  0.10806  0.103158  0  1.000968  0
H  H17  1  0.85092225  0.25771173  0.92671482  1  0.099534  0  0.113433  0.123843  0  1.008493  0
H  H18  1  0.57467512  0.72647058  0.16578779  1  0.032879  0  0.094261  0.096274  0  1.005468  0
H  H19  1  0.71052249  0.76236816  0.93661679  1  0.622621  0  0.300173  0.34544  0  0.98981  0
H  H20  1  0.42937280  0.00084150  0.22782298  1  0.063086  0  0.093933  0.087834  0  1.018011  0
H  H21  1  0.47115060  0.13307665  0.37866449  1  0.076598  0  0.112812  0.116849  0  0.995991  0
H  H22  1  0.47757076  0.50619508  0.86086276  1  0.631166  0  0.295127  0.340064  0  0.99743  0
H  H23  1  0.35168617  0.17277544  0.71118615  1  0.030936  0  0.09507  0.088976  0  1.054548  0
H  H24  1  0.47129563  0.12067224  0.80164315  1  0.055037  0  0.091261  0.087879  0  1.069486  0
H  H25  1  0.24153160  0.61528166  0.49983182  1  0.6424  0  0.302415  0.358596  0  0.971636  0
H  H26  1  0.52886109  0.86692954  0.62134745  1  0.0766  0  0.112798  0.116791  0  0.995995  0
H  H27  1  0.72509638  0.97401211  0.44210384  1  0.072013  0  0.098395  0.099868  0  1.004604  0
H  H28  1  0.12198462  0.93128156  0.82371354  1  0.071733  0  0.100393  0.096946  0  1.02416  0
H  H29  1  0.22147867  0.48330258  0.88748924  1  0.105895  0  0.097533  0.097665  0  1.022824  0
H  H30  1  0.00395330  0.06319284  0.59993082  1  0.072309  0  0.104757  0.103192  0  1.01053  0
H  H31  1  0.21617377  0.21588000  0.41780820  1  0.114109  0  0.112618  0.086887  0  1.013535  0
H  H32  1  0.78837321  0.60946644  0.31980442  1  0.124794  0  0.1132  0.08372  0  1.038025  0
H  H33  1  0.84879284  0.13469566  0.46800838  1  0.05496  0  0.099307  0.100698  0  1.02545  0
H  H34  1  0.84798566  0.64806619  0.81392238  1  0.09467  0  0.11483  0.085282  0  1.016928  0
H  H35  1  0.64934890  0.56010893  0.87129769  1  0.086834  0  0.101182  0.107599  0  1.040505  0
H  H36  1  0.19546340  0.78314874  0.43452636  1  0.05693  0  0.100928  0.110428  0  1.029019  0
H  H37  1  0.44272566  0.41414081  0.37700655  1  0.644285  0  0.285251  0.383946  0  0.96437  0
H  H38  1  0.50124400  0.83667299  0.34936917  1  0.073489  0  0.109204  0.114595  0  1.008761  0
H  H39  1  0.71493275  0.29971380  0.16802731  1  0.092093  0  0.104002  0.112503  0  1.000419  0
H  H40  1  0.70937479  0.01068158  0.89893030  1  0.075216  0  0.091989  0.096808  0  1.020774  0
H  H41  1  0.28930827  0.84886835  0.40831820  1  0.088083  0  0.099481  0.114322  0  1.001849  0
H  H42  1  0.30641056  0.70028318  0.08700767  1  0.060358  0  0.094922  0.089567  0  1.055244  0
H  H43  1  0.90289662  0.48418726  0.21991687  1  0.088407  0  0.102215  0.101515  0  0.986446  0
H  H44  1  0.49873446  0.16332000  0.65063481  1  0.073398  0  0.109185  0.11461  0  1.008646  0
H  H45  1  0.52242121  0.49380465  0.13912529  1  0.631677  0  0.295082  0.340019  0  0.997521  0
H  H46  1  0.25720784  0.00987152  0.32511084  1  0.628866  0  0.293322  0.340112  0  0.999463  0
H  H47  1  0.33911606  0.43223412  0.26939410  1  0.055141  0  0.102472  0.097088  0  1.026257  0
H  H48  1  0.43299698  0.30085903  0.42808598  1  0.152979  0  0.11662  0.095202  0  1.037174  0
H  H49  1  0.11346871  0.86546668  0.01245732  1  0.117783  0  0.115378  0.090086  0  1.036877  0
H  H50  1  0.75847167  0.38471511  0.50016694  1  0.64242  0  0.302367  0.358501  0  0.971655  0
H  H51  1  0.66089262  0.56777893  0.73061126  1  0.055246  0  0.102422  0.09703  0  1.026289  0
H  H52  1  0.87362007  0.51669398  0.86418027  1  0.139093  0  0.109519  0.115948  0  1.047043  0
H  H53  1  0.64831831  0.82722059  0.28881498  1  0.030827  0  0.095066  0.088939  0  1.054651  0
H  H54  1  0.17706093  0.31950354  0.90052875  1  0.046789  0  0.101812  0.107295  0  1.007671  0
H  H55  1  0.07037144  0.60991456  0.31160828  1  0.078132  0  0.099922  0.105187  0  1.03352  0
H  H56  1  0.09710423  0.51579868  0.78007833  1  0.088615  0  0.102295  0.101662  0  0.986618  0
H  H57  1  0.87801317  0.06871366  0.17628422  1  0.071834  0  0.100409  0.096944  0  1.02416  0
H  H58  1  0.80453408  0.21685041  0.56547745  1  0.05667  0  0.100934  0.110495  0  1.028877  0
H  H59  1  0.14907249  0.74229282  0.07328911  1  0.099434  0  0.11345  0.123921  0  1.008592  0
H  H60  1  0.27489998  0.02599543  0.55789249  1  0.072116  0  0.098405  0.099918  0  1.004517  0
H  H61  1  0.56702230  0.69915092  0.57191919  1  0.152777  0  0.116664  0.095188  0  1.037103  0
H  H62  1  0.92962901  0.39007985  0.68838675  1  0.07798  0  0.099926  0.105261  0  1.03342  0
H  H63  1  0.25102862  0.85020181  0.94133803  1  0.040424  0  0.095318  0.093659  0  1.015735  0
H  H64  1  0.34786659  0.53292006  0.03490288  1  0.071292  0  0.101952  0.107385  0  1.01449  0
H  H65  1  0.35064369  0.43989563  0.12870701  1  0.087042  0  0.101213  0.107627  0  1.040494  0
H  H66  1  0.28507011  0.70030383  0.83197490  1  0.09221  0  0.104048  0.112668  0  1.000322  0
H  H67  1  0.10432463  0.57481823  0.06756526  1  0.097364  0  0.103325  0.100537  0  1.040338  0
H  H68  1  0.49170980  0.00269930  0.59087717  1  0.09595  0  0.108022  0.103097  0  1.001082  0
H  H69  1  0.48749427  0.36289465  0.29599423  1  0.585211  0  0.32323  0.40352  0  0.874461  0
H  H70  1  0.42532452  0.27351616  0.83421043  1  0.032571  0  0.094231  0.096257  0  1.005542  0
H  H71  1  0.77850500  0.51668110  0.11250960  1  0.10574  0  0.097504  0.097597  0  1.022572  0
H  H72  1  0.65213062  0.46708059  0.96509722  1  0.071433  0  0.101969  0.107406  0  1.014523  0
H  H73  1  0.29063390  0.98931925  0.10108520  1  0.074837  0  0.09202  0.096892  0  1.020934  0
H  H74  1  0.38694542  0.34760543  0.92491566  1  0.097852  0  0.106383  0.123803  0  0.983894  0
H  H75  1  0.45814652  0.32946843  0.68799612  1  0.124641  0  0.117206  0.098036  0  1.010976  0
H  H76  1  0.78384385  0.78412921  0.58219877  1  0.114052  0  0.11267  0.086998  0  1.013428  0
H  H77  1  0.10632825  0.85423456  0.66245028  1  0.036152  0  0.10179  0.101813  0  0.990406  0
H  H78  1  0.61305104  0.65238505  0.07507308  1  0.097684  0  0.106298  0.123702  0  0.98397  0
H  H79  1  0.57064451  0.99915924  0.77218582  1  0.063311  0  0.093923  0.08784  0  1.018076  0
H  H80  1  0.51250496  0.63711294  0.70400624  1  0.58518  0  0.323238  0.403525  0  0.874464  0
H  H81  1  0.73193396  0.22654507  0.76948162  1  0.07639  0  0.095442  0.100205  0  1.056826  0
H  H82  1  0.94256018  0.84811846  0.14676503  1  0.102474  0  0.101786  0.111876  0  1.024226  0
H  H83  1  0.71068082  0.15113152  0.59168065  1  0.088085  0  0.099481  0.114327  0  1.00188  0
H  H84  1  0.54184732  0.67053304  0.31200777  1  0.124718  0  0.117229  0.098058  0  1.011076  0
H  H85  1  0.90272361  0.94070330  0.60004141  1  0.098258  0  0.103326  0.108292  0  1.041841  0
H  H86  1  0.15119608  0.86531338  0.53198403  1  0.054904  0  0.099357  0.10078  0  1.025322  0
H  H87  1  0.21161494  0.39053262  0.68019159  1  0.106522  0  0.113155  0.083684  0  1.038106  0
H  H88  1  0.26806083  0.77345712  0.23051853  1  0.076427  0  0.095413  0.100178  0  1.056816  0
H  H89  1  0.99603714  0.93681149  0.40005432  1  0.071994  0  0.104798  0.103284  0  1.010331  0
H  H90  1  0.82292822  0.68048167  0.09946989  1  0.046775  0  0.101802  0.10735  0  1.007686  0
H  H91  1  0.74897563  0.14980590  0.05867239  1  0.04066  0  0.095315  0.093681  0  1.015803  0
H  H92  1  0.09781964  0.23851735  0.67592552  1  0.112713  0  0.101978  0.105923  0  1.066026  0
H  H93  1  0.05743897  0.15186889  0.85321959  1  0.102588  0  0.101754  0.111837  0  1.024437  0
C  C94  1  0.90806849  0.09544430  0.75872014  1  -0.044261  0  -0.043899  -0.184216  0  4.044414  0
C  C95  1  0.31525995  0.50194933  0.29002763  1  -0.006634  0  -0.087177  -0.131483  0  4.023925  0
C  C96  1  0.70709948  0.46031587  0.62909333  1  -0.099102  0  -0.041468  -0.178233  0  4.042759  0
C  C97  1  0.83868718  0.07666654  0.32676199  1  0.011173  0  -0.085115  -0.111297  0  3.97799  0
C  C98  1  0.97958667  0.95238124  0.46392029  1  0.048464  0  -0.07289  -0.10503  0  3.949066  0
C  C99  1  0.18634127  0.92946383  0.60077527  1  -0.018858  0  -0.099323  -0.095532  0  4.04018  0
C  C100  1  0.98226526  0.37435816  0.73541921  1  -0.033161  0  -0.095919  -0.140134  0  3.969697  0
C  C101  1  0.69969749  0.89715928  0.29749853  1  -0.007975  0  -0.102004  -0.156742  0  4.010749  0
C  C102  1  0.46471969  0.62953290  0.94603816  1  0.516221  0  0.085956  0.249241  0  4.066402  0
C  C103  1  0.08675345  0.13524129  0.53726339  1  -0.006519  0  0.010893  0.148434  0  4.023714  0
C  C104  1  0.12065325  0.13082443  0.46362048  1  -0.001938  0  -0.082348  -0.168522  0  3.918695  0
C  C105  1  0.04690274  0.71942289  0.25809403  1  -0.016206  0  -0.005772  0.038575  0  3.975014  0
C  C106  1  0.87702921  0.66402302  0.14507372  1  0.010245  0  -0.08766  -0.119913  0  3.971115  0
C  C107  1  0.16550902  0.88466238  0.30053210  1  0.511481  0  0.077368  0.229382  0  4.074146  0
C  C108  1  0.08567956  0.33371798  0.12901101  1  0.426046  0  0.0412  0.091859  0  3.956664  0
C  C109  1  0.06244752  0.78733624  0.98189263  1  0.468177  0  0.043373  0.094229  0  3.948571  0
C  C110  1  0.51748699  0.81087018  0.40202944  1  -0.082918  0  -0.075302  -0.164445  0  3.912421  0
C  C111  1  0.83448555  0.11532667  0.69946532  1  0.512608  0  0.077559  0.229727  0  4.074075  0
C  C112  1  0.71668847  0.30080994  0.79189154  1  -0.065772  0  -0.105149  -0.160121  0  3.999933  0
C  C113  1  0.85645942  0.20598277  0.68987401  1  0.022129  0  -0.026169  -0.052501  0  3.923278  0
C  C114  1  0.46812147  0.87167325  0.14149012  1  -0.014546  0  -0.09746  -0.139137  0  3.988587  0
C  C115  1  0.25649124  0.02037819  0.61578869  1  -0.142053  0  -0.089647  -0.067495  0  4.014248  0
C  C116  1  0.27758687  0.09957737  0.77996974  1  -0.059866  0  -0.001386  0.05149  0  3.965613  0
C  C117  1  0.14761685  0.42640359  0.84758534  1  -0.087433  0  -0.100182  -0.099125  0  4.030714  0
C  C118  1  0.30549051  0.65831552  0.12763202  1  -0.098272  0  -0.096709  -0.082068  0  4.038313  0
C  C119  1  0.25967705  0.63046493  0.39698779  1  0.536326  0  0.083601  0.242808  0  4.061031  0
C  C120  1  0.82582689  0.91819153  0.00316130  1  1.458566  0  0.204825  0.59526  0  4.138479  0
C  C121  1  0.46852673  0.17358669  0.44798069  1  -0.046971  0  -0.075231  -0.155768  0  3.905337  0
C  C122  1  0.29291061  0.53968710  0.37090767  1  -0.099463  0  -0.041581  -0.178185  0  4.042469  0
C  C123  1  0.53147873  0.82642019  0.55202432  1  -0.047201  0  -0.07513  -0.155641  0  3.905325  0
C  C124  1  0.88191970  0.99921938  0.76917788  1  1.530685  0  0.197665  0.573817  0  4.22654  0
C  C125  1  0.17697772  0.00121926  0.83671150  1  -0.027965  0  -0.074721  -0.096511  0  3.980282  0
C  C126  1  0.21460434  0.08436077  0.92404469  1  -0.035936  0  -0.040514  -0.183921  0  4.029234  0
C  C127  1  0.82301869  0.99877362  0.16328401  1  -0.027987  0  -0.074747  -0.096495  0  3.980624  0
C  C128  1  0.11808084  0.00077044  0.23081918  1  1.530513  0  0.197836  0.574134  0  4.226257  0
C  C129  1  0.02040135  0.04762464  0.53606610  1  -0.106197  0  -0.072785  -0.104809  0  3.949243  0
C  C130  1  0.59148548  0.72337508  0.10428794  1  -0.032501  0  -0.153574  -0.194821  0  3.944517  0
C  C131  1  0.48250254  0.18913133  0.59797780  1  -0.083597  0  -0.075366  -0.164593  0  3.912928  0
C  C132  1  0.87915482  0.76930527  0.38337293  1  -0.014621  0  -0.080244  -0.164102  0  3.917769  0
C  C133  1  0.30914351  0.55217559  0.23394101  1  0.079502  0  -0.022855  0.038985  0  4.054797  0
C  C134  1  0.55377331  0.21047459  0.94804974  1  -0.041604  0  -0.00686  0.04185  0  3.974705  0
C  C135  1  0.22258524  0.78078847  0.37776035  1  -0.028382  0  -0.160352  -0.209285  0  3.957932  0
C  C136  1  0.92350355  0.55509400  0.21313169  1  -0.100134  0  -0.08913  -0.07199  0  4.022163  0
C  C137  1  0.00202364  0.16785833  0.80852274  1  -0.076915  0  -0.083081  -0.118577  0  3.979207  0
C  C138  1  0.07649160  0.44490194  0.78686104  1  -0.100574  0  -0.089148  -0.072185  0  4.021964  0
C  C139  1  0.01772146  0.62562859  0.26457889  1  -0.033573  0  -0.095828  -0.139836  0  3.969477  0
C  C140  1  0.61054339  0.37300980  0.12819725  1  -0.080965  0  -0.043048  -0.176585  0  4.041283  0
C  C141  1  0.44713830  0.26735715  0.47505697  1  0.491469  0  0.045795  0.09588  0  3.955434  0
C  C142  1  0.12295598  0.33596832  0.85492147  1  0.010298  0  -0.087799  -0.120071  0  3.971243  0
C  C143  1  0.31097490  0.85645307  0.99830778  1  -0.051622  0  -0.093751  -0.126484  0  4.011616  0
C  C144  1  0.96776100  0.45312759  0.98671910  1  -0.07267  0  -0.068271  -0.096906  0  3.904947  0
C  C145  1  0.72241057  0.90041158  0.22001927  1  -0.060176  0  -0.001531  0.051405  0  3.96543  0
C  C146  1  0.40851617  0.27661857  0.89570706  1  -0.032288  0  -0.153682  -0.194961  0  3.944488  0
C  C147  1  0.53905290  0.71754778  0.38007122  1  0.520473  0  0.043463  0.087966  0  3.958952  0
C  C148  1  0.79490519  0.99309245  0.23654717  1  -0.003125  0  -0.016505  0.052858  0  4.0228  0
C  C149  1  0.95309429  0.28057472  0.74190976  1  -0.01565  0  -0.005677  0.038945  0  3.975137  0
C  C150  1  0.74032698  0.36954200  0.60302173  1  0.53599  0  0.083557  0.242845  0  4.061166  0
C  C151  1  0.69361211  0.51060822  0.56809952  1  1.511036  0  0.198868  0.578767  0  4.193569  0
C  C152  1  0.99798205  0.83213692  0.19147717  1  -0.076789  0  -0.08315  -0.118621  0  3.979648  0
C  C153  1  0.74548210  0.31625390  0.65593642  1  0.07471  0  -0.026619  -0.054547  0  3.92845  0
C  C154  1  0.17418498  0.08181768  0.99684634  1  1.458345  0  0.204958  0.595549  0  4.138222  0
C  C155  1  0.28847854  0.17576293  0.94065371  1  0.535474  0  0.08902  0.246128  0  4.03489  0
C  C156  1  0.51584080  0.86976376  0.49113543  1  0.008196  0  0.013032  0.151718  0  4.011803  0
C  C157  1  0.37126444  0.54990369  0.77551002  1  1.530113  0  0.188686  0.556321  0  4.236711  0
C  C158  1  0.77741108  0.21920916  0.62224510  1  -0.028085  0  -0.160398  -0.209417  0  3.958045  0
C  C159  1  0.91433358  0.66627568  0.87098562  1  0.42584  0  0.041238  0.091889  0  3.956576  0
C  C160  1  0.74350759  0.97962552  0.38420919  1  -0.14207  0  -0.089656  -0.067489  0  4.014598  0
C  C161  1  0.48414722  0.13023004  0.50887127  1  0.008329  0  0.013024  0.151683  0  4.011804  0
C  C162  1  0.81488831  0.68467739  0.38011657  1  0.436171  0  0.044627  0.100351  0  3.957122  0
C  C163  1  0.50199031  0.28643455  0.96640226  1  0.065864  0  -0.024625  -0.048682  0  3.900204  0
C  C164  1  0.30639282  0.48938936  0.43190222  1  1.510691  0  0.198808  0.578638  0  4.193606  0
C  C165  1  0.87934642  0.86918469  0.53637881  1  -0.002484  0  -0.082368  -0.168657  0  3.918524  0
C  C166  1  0.53188991  0.12832438  0.85851528  1  -0.015203  0  -0.097477  -0.139058  0  3.988711  0
C  C167  1  0.71152939  0.82422776  0.05935163  1  0.534435  0  0.089011  0.246177  0  4.034321  0
C  C168  1  0.28154098  0.64659010  0.26310052  1  -0.095889  0  -0.010192  0.03596  0  3.9999  0
C  C169  1  0.66703352  0.06650585  0.91378407  1  -0.071745  0  -0.109649  -0.110461  0  4.047858  0
C  C170  1  0.53527608  0.37046768  0.05395627  1  0.516672  0  0.085999  0.249301  0  4.066214  0
C  C171  1  0.78540386  0.91564068  0.07595840  1  -0.034973  0  -0.040521  -0.18389  0  4.029103  0
C  C172  1  0.98644830  0.38213135  0.02444022  1  0.034653  0  0.020401  0.161097  0  3.97836  0
C  C173  1  0.69451015  0.34169211  0.87237112  1  -0.098294  0  -0.096659  -0.081901  0  4.038271  0
C  C174  1  0.33103454  0.51202172  0.15056636  1  -0.111385  0  -0.089923  -0.120939  0  3.973041  0
C  C175  1  0.12083369  0.23069989  0.61661809  1  -0.015019  0  -0.080158  -0.163978  0  3.917743  0
C  C176  1  0.49937477  0.02852344  0.47697498  1  -0.104608  0  -0.071459  -0.105633  0  3.948234  0
C  C177  1  0.08162079  0.71782670  0.01523696  1  -0.00772  0  -0.072118  -0.158595  0  3.895041  0
C  C178  1  0.28331202  0.69919464  0.20811470  1  -0.065735  0  -0.10507  -0.160002  0  3.999791  0
C  C179  1  0.49800866  0.71356219  0.03359387  1  0.065954  0  -0.024617  -0.048785  0  3.900273  0
C  C180  1  0.34127674  0.70271065  0.88933105  1  -0.028956  0  -0.083395  -0.121616  0  3.984997  0
C  C181  1  0.92889480  0.59290775  0.90027268  1  -0.0433  0  -0.072443  -0.153776  0  3.897636  0
C  C182  1  0.32867030  0.56343718  0.09764048  1  -0.017664  0  -0.098612  -0.091725  0  4.005334  0
C  C183  1  0.18510550  0.31532628  0.61987853  1  0.45438  0  0.044692  0.10039  0  3.957243  0
C  C184  1  0.07111789  0.40709681  0.09973294  1  -0.043298  0  -0.072476  -0.153931  0  3.897588  0
C  C185  1  0.97340309  0.73846790  0.19711418  1  -0.068285  0  -0.02253  0.038632  0  4.045902  0
C  C186  1  0.58770251  0.05975196  0.84187937  1  -0.102604  0  -0.098767  -0.076231  0  4.035291  0
C  C187  1  0.41230740  0.94024804  0.15813131  1  -0.102422  0  -0.098692  -0.076131  0  4.03482  0
C  C188  1  0.81330114  0.78160564  0.52696680  1  0.427091  0  0.039276  0.086318  0  3.974176  0
C  C189  1  0.44623368  0.78952761  0.05195099  1  -0.041743  0  -0.006843  0.042031  0  3.974437  0
C  C190  1  0.63507385  0.21738425  0.02095416  1  0.011734  0  -0.022078  0.047111  0  4.040727  0
C  C191  1  0.25451695  0.68375069  0.34407074  1  0.07472  0  -0.026697  -0.054729  0  3.928646  0
C  C192  1  0.01355143  0.61787550  0.97556247  1  0.034914  0  0.020417  0.160988  0  3.978251  0
C  C193  1  0.55287882  0.73265287  0.52495316  1  0.491509  0  0.045641  0.09583  0  3.955054  0
C  C194  1  0.09191819  0.90454463  0.24126737  1  -0.042909  0  -0.043767  -0.184015  0  4.044742  0
C  C195  1  0.91838884  0.28218718  0.98477423  1  -0.008033  0  -0.0721  -0.158479  0  3.895174  0
C  C196  1  0.65872603  0.29729924  0.11066851  1  -0.029135  0  -0.083419  -0.121431  0  3.985555  0
C  C197  1  0.02659228  0.26152890  0.80288604  1  -0.068634  0  -0.022531  0.038618  0  4.046212  0
C  C198  1  0.20509193  0.00690040  0.76344549  1  -0.003003  0  -0.016452  0.052885  0  4.02275  0
C  C199  1  0.16131497  0.92332625  0.67322626  1  0.011788  0  -0.085278  -0.111369  0  3.978527  0
C  C200  1  0.93755081  0.21266822  0.01810422  1  0.468851  0  0.043264  0.094197  0  3.948208  0
C  C201  1  0.91323816  0.86476458  0.46272191  1  -0.006551  0  0.010952  0.148689  0  4.023281  0
C  C202  1  0.69086150  0.44782985  0.76607236  1  0.078881  0  -0.022819  0.039228  0  4.054616  0
C  C203  1  0.68903752  0.14355307  0.00170071  1  -0.052201  0  -0.093655  -0.126477  0  4.011415  0
C  C204  1  0.68474821  0.49805445  0.70997685  1  -0.0066  0  -0.087096  -0.131422  0  4.023607  0
C  C205  1  0.32278119  0.18246078  0.87078485  1  0.112903  0  -0.021375  -0.053019  0  3.901763  0
C  C206  1  0.33296629  0.93349643  0.08622304  1  -0.071304  0  -0.109712  -0.110645  0  4.047951  0
C  C207  1  0.85238493  0.57359559  0.15242051  1  -0.087228  0  -0.100196  -0.099262  0  4.030993  0
C  C208  1  0.81365028  0.07054452  0.39922337  1  -0.017954  0  -0.099287  -0.095445  0  4.039712  0
C  C209  1  0.46093987  0.28244748  0.61992916  1  0.521027  0  0.043545  0.088159  0  3.959084  0
C  C210  1  0.30030524  0.10284067  0.70250776  1  -0.008437  0  -0.102042  -0.156804  0  4.010847  0
C  C211  1  0.66896357  0.48798207  0.84943915  1  -0.110987  0  -0.089934  -0.121038  0  3.973484  0
C  C212  1  0.03224132  0.54688088  0.01329061  1  0.010701  0  -0.06831  -0.096962  0  3.904826  0
C  C213  1  0.62873057  0.45011162  0.22449107  1  1.530638  0  0.188735  0.556154  0  4.237045  0
C  C214  1  0.14353196  0.79401011  0.31012112  1  0.022113  0  -0.026017  -0.052215  0  3.923534  0
C  C215  1  0.18670222  0.21839881  0.47302923  1  0.426878  0  0.039341  0.086502  0  3.974192  0
C  C216  1  0.50059297  0.97146718  0.52302373  1  0.015902  0  -0.071494  -0.105519  0  3.948099  0
C  C217  1  0.71846211  0.35341602  0.73690555  1  -0.095717  0  -0.010214  0.035815  0  3.999932  0
C  C218  1  0.67132543  0.43656577  0.90235892  1  -0.017721  0  -0.098615  -0.091753  0  4.005738  0
C  C219  1  0.36493296  0.78262730  0.97905508  1  0.011617  0  -0.022073  0.047205  0  4.040472  0
C  C220  1  0.38946195  0.62699156  0.87179812  1  -0.080917  0  -0.043046  -0.176702  0  4.041376  0
C  C221  1  0.67722293  0.81752903  0.12921171  1  0.11295  0  -0.02134  -0.052966  0  3.902105  0
N  N222  1  0.21869848  0.30961028  0.54995276  1  -1.231498  0  -0.334437  -0.254713  0  3.524206  0
N  N223  1  0.02041342  0.23711036  0.08892294  1  -1.24562  0  -0.343042  -0.265762  0  3.557416  0
N  N224  1  0.55827526  0.67911246  0.44074334  1  -1.242188  0  -0.3291  -0.258242  0  3.513347  0
N  N225  1  0.78130124  0.69039654  0.45004754  1  -1.231653  0  -0.334386  -0.254575  0  3.524266  0
N  N226  1  0.44173024  0.32089207  0.55925910  1  -1.242321  0  -0.329153  -0.258326  0  3.513418  0
N  N227  1  0.97959703  0.76288634  0.91107005  1  -1.245765  0  -0.343137  -0.26578  0  3.557752  0
O  O228  1  0.35240973  0.42092303  0.41909061  1  -1.182274  0  -0.32197  -0.563209  0  2.214835  0
O  O229  1  0.79203923  0.83838538  0.92315485  1  -1.148372  0  -0.322501  -0.556917  0  2.21149  0
O  O230  1  0.50606056  0.40513757  0.36188277  1  -1.201566  0  -0.579014  -0.749064  0  2.06815  0
O  O231  1  0.10293891  0.00421391  0.98247237  1  -1.189346  0  -0.338577  -0.585773  0  2.3249  0
O  O232  1  0.41666432  0.47949351  0.76135070  1  -1.186147  0  -0.334498  -0.583031  0  2.203097  0
O  O233  1  0.31546058  0.55780705  0.70945264  1  -1.161095  0  -0.334498  -0.535796  0  2.174963  0
O  O234  1  0.25817898  0.95457368  0.34718361  1  -1.164555  0  -0.355378  -0.458258  0  2.346481  0
O  O235  1  0.49394122  0.59486153  0.63811709  1  -1.201417  0  -0.579051  -0.749055  0  2.068183  0
O  O236  1  0.72748949  0.48121466  0.50010523  1  -1.146504  0  -0.314943  -0.523563  0  2.229216  0
O  O237  1  0.49367117  0.44809299  0.06965885  1  -1.152938  0  -0.345076  -0.439402  0  2.395346  0
O  O238  1  0.74182102  0.04541917  0.65280961  1  -1.164341  0  -0.355337  -0.458259  0  2.346598  0
O  O239  1  0.23319821  0.66591697  0.47355571  1  -1.156585  0  -0.354128  -0.448572  0  2.304129  0
O  O240  1  0.58333038  0.52051321  0.23864205  1  -1.186294  0  -0.334519  -0.58298  0  2.203165  0
O  O241  1  0.79293077  0.93840123  0.73189787  1  -1.174888  0  -0.320188  -0.547851  0  2.143185  0
O  O242  1  0.64759165  0.57907217  0.58090546  1  -1.182115  0  -0.322019  -0.563235  0  2.214778  0
O  O243  1  0.20796852  0.16161451  0.07684704  1  -1.148648  0  -0.322589  -0.557012  0  2.21154  0
O  O244  1  0.76680403  0.33408377  0.52645134  1  -1.156497  0  -0.354131  -0.448548  0  2.303973  0
O  O245  1  0.68452600  0.44219890  0.29053886  1  -1.16129  0  -0.334444  -0.535635  0  2.175385  0
O  O246  1  0.32571540  0.25789725  0.02513472  1  -1.148804  0  -0.344018  -0.431035  0  2.363221  0
O  O247  1  0.67429994  0.74209409  0.97486096  1  -1.148905  0  -0.344018  -0.431182  0  2.362793  0
O  O248  1  0.27251118  0.51878057  0.49989369  1  -1.146067  0  -0.314897  -0.523494  0  2.22927  0
O  O249  1  0.50632183  0.55190293  0.93033226  1  -1.152107  0  -0.345063  -0.439351  0  2.395252  0
O  O250  1  0.04450416  0.01555237  0.18179483  1  -1.135033  0  -0.334763  -0.550663  0  2.377001  0
O  O251  1  0.20706254  0.06159095  0.26810276  1  -1.174978  0  -0.320247  -0.547988  0  2.143322  0
O  O252  1  0.89706771  0.99579450  0.01753220  1  -1.189777  0  -0.338516  -0.585619  0  2.325042  0
O  O253  1  0.95549059  0.98443964  0.81819231  1  -1.135018  0  -0.334652  -0.550418  0  2.37738  0
