# generated using pymatgen
data_CdH10C14NO5
_symmetry_space_group_name_H-M   'P 1'
_cell_length_a   5.28999733
_cell_length_b   10.48263321
_cell_length_c   12.90266285
_cell_angle_alpha   68.28945556
_cell_angle_beta   82.20123087
_cell_angle_gamma   76.66862817
_symmetry_Int_Tables_number   1
_chemical_formula_structural   CdH10C14NO5
_chemical_formula_sum   'Cd2 H20 C28 N2 O10'
_cell_volume   645.82008221
_cell_formula_units_Z   2
loop_
 _symmetry_equiv_pos_site_id
 _symmetry_equiv_pos_as_xyz
  1  'x, y, z'
loop_
 _atom_site_type_symbol
 _atom_site_label
 _atom_site_symmetry_multiplicity
 _atom_site_fract_x
 _atom_site_fract_y
 _atom_site_fract_z
 _atom_site_occupancy
 _atom_site_pbe_bader_spin_density
 _atom_site_pbe_cm5_charge
 _atom_site_pbe_ddec_charge
 _atom_site_pbe_ddec_spin_density
 _atom_site_pbe_ddec_sum_bond_order
 _atom_site_pbe_magmom
Cd  Cd0  1  0.25417085  0.57136091  0.38857136  1  0  0.776349  0.984442  0  2.098102  0
Cd  Cd1  1  0.74582222  0.42864329  0.61142796  1  0  0.776345  0.984452  0  2.098158  0
H  H2  1  0.21862554  0.57446845  0.63260049  1  0  0.292043  0.398863  0  0.940688  0
H  H3  1  0.78136548  0.42553576  0.36740124  1  0  0.292045  0.398862  0  0.940705  0
H  H4  1  0.42771762  0.67896111  0.56015883  1  0  0.285958  0.373593  0  0.974079  0
H  H5  1  0.57227754  0.32104206  0.43984380  1  0  0.285991  0.373636  0  0.974008  0
H  H6  1  0.58931954  0.73422793  0.22591087  1  0  0.106567  0.120432  0  1.016099  0
H  H7  1  0.41067396  0.26577623  0.77408146  1  0  0.106571  0.120502  0  1.016044  0
H  H8  1  0.87513409  0.88994563  0.09875883  1  0  0.105723  0.108377  0  0.986952  0
H  H9  1  0.12484939  0.11006060  0.90122869  1  0  0.105696  0.108418  0  0.986805  0
H  H10  1  0.77434762  0.14506569  0.06806677  1  0  0.101406  0.098178  0  1.022027  0
H  H11  1  0.22564793  0.85493745  0.93192966  1  0  0.101405  0.098181  0  1.022029  0
H  H12  1  0.39265113  0.24420942  0.16992860  1  0  0.102599  0.105789  0  1.016626  0
H  H13  1  0.60735557  0.75578850  0.83007353  1  0  0.102592  0.105743  0  1.016525  0
H  H14  1  0.01298312  0.20552380  0.30937668  1  0  0.107657  0.109669  0  1.009446  0
H  H15  1  0.98703421  0.79447521  0.69063162  1  0  0.10761  0.10967  0  1.00932  0
H  H16  1  0.72155828  0.04069765  0.42993281  1  0  0.110054  0.131822  0  1.036925  0
H  H17  1  0.27844532  0.95930341  0.57006929  1  0  0.110048  0.131809  0  1.03695  0
H  H18  1  0.34739037  0.62795836  0.99106605  1  0  0.10379  0.105583  0  1.035347  0
H  H19  1  0.65261326  0.37203224  0.00893842  1  0  0.103809  0.105619  0  1.035287  0
H  H20  1  0.75603795  0.40318652  0.18126467  1  0  0.103722  0.103764  0  1.015767  0
H  H21  1  0.24397182  0.59680302  0.81873906  1  0  0.10372  0.103769  0  1.015719  0
C  C22  1  0.96126610  0.86366638  0.39345091  1  0  0.120224  0.117189  0  3.96845  0
C  C23  1  0.03872491  0.13633361  0.60654589  1  0  0.120222  0.11717  0  3.968556  0
C  C24  1  0.32940138  0.89954022  0.27208080  1  0  0.114  0.202633  0  3.992823  0
C  C25  1  0.67059879  0.10046081  0.72791526  1  0  0.114038  0.202864  0  3.99281  0
C  C26  1  0.54957615  0.84512792  0.21432731  1  0  -0.085365  -0.154264  0  3.937127  0
C  C27  1  0.45041801  0.15487416  0.78566717  1  0  -0.085332  -0.154377  0  3.93724  0
C  C28  1  0.70544605  0.93292862  0.14241843  1  0  -0.081221  -0.053125  0  3.981572  0
C  C29  1  0.29454554  0.06707554  0.85757399  1  0  -0.081257  -0.053196  0  3.981622  0
C  C30  1  0.64845456  0.07767152  0.12549688  1  0  -0.085751  -0.078076  0  4.00688  0
C  C31  1  0.35154332  0.92233056  0.87449897  1  0  -0.085732  -0.078137  0  4.007037  0
C  C32  1  0.43743323  0.13301749  0.18171620  1  0  -0.083025  -0.117582  0  3.956582  0
C  C33  1  0.56256666  0.86698880  0.81828295  1  0  -0.083046  -0.117444  0  3.956682  0
C  C34  1  0.27277588  0.04582956  0.25646735  1  0  0.001237  0.044343  0  3.977555  0
C  C35  1  0.72722290  0.95416940  0.74353328  1  0  0.001222  0.044165  0  3.97768  0
C  C36  1  0.05385660  0.09550101  0.31714388  1  0  -0.057318  -0.052761  0  3.893827  0
C  C37  1  0.94615405  0.90449689  0.68285574  1  0  -0.057239  -0.052645  0  3.893436  0
C  C38  1  0.89557110  0.00565193  0.38428575  1  0  -0.079394  -0.138201  0  3.941009  0
C  C39  1  0.10443603  0.99435017  0.61571432  1  0  -0.079377  -0.138197  0  3.941014  0
C  C40  1  0.78467269  0.76307550  0.46165182  1  0  0.212106  0.540162  0  4.191892  0
C  C41  1  0.21533507  0.23692553  0.53834467  1  0  0.212  0.540095  0  4.191897  0
C  C42  1  0.19421777  0.57319558  0.99319216  1  0  -0.084783  -0.104568  0  3.979669  0
C  C43  1  0.80578972  0.42679500  0.00681136  1  0  -0.084894  -0.104672  0  3.979466  0
C  C44  1  0.05964780  0.51736055  0.09579867  1  0  -0.01545  -0.027477  0  3.967561  0
C  C45  1  0.94035550  0.48263109  0.90420472  1  0  -0.01543  -0.027414  0  3.96746  0
C  C46  1  0.86380648  0.44425454  0.10202496  1  0  -0.082198  -0.089066  0  3.969547  0
C  C47  1  0.13620471  0.55573082  0.89798151  1  0  -0.08228  -0.089144  0  3.969688  0
C  C48  1  0.13308096  0.53366912  0.19740851  1  0  0.194404  0.557489  0  4.230906  0
C  C49  1  0.86691996  0.46632881  0.80259465  1  0  0.194453  0.557392  0  4.230924  0
N  N50  1  0.17323407  0.81257579  0.34163800  1  0  -0.322045  -0.314216  0  3.512485  0
N  N51  1  0.82676219  0.18742526  0.65835979  1  0  -0.322113  -0.314377  0  3.512691  0
O  O52  1  0.84375836  0.63871352  0.45833436  1  0  -0.332753  -0.562332  0  2.40541  0
O  O53  1  0.15623643  0.36129070  0.54166797  1  0  -0.332711  -0.562324  0  2.40516  0
O  O54  1  0.36823637  0.58774787  0.57544368  1  0  -0.577274  -0.771279  0  2.22371  0
O  O55  1  0.63175884  0.41225529  0.42455818  1  0  -0.577303  -0.771364  0  2.223709  0
O  O56  1  0.58753216  0.80671967  0.51491312  1  0  -0.297049  -0.499986  0  2.179286  0
O  O57  1  0.41244842  0.19328666  0.48509078  1  0  -0.29696  -0.499855  0  2.179611  0
O  O58  1  0.04460973  0.46110378  0.29390952  1  0  -0.330797  -0.581483  0  2.277259  0
O  O59  1  0.95538620  0.53890253  0.70609213  1  0  -0.330826  -0.581436  0  2.277141  0
O  O60  1  0.28469547  0.61605268  0.18646214  1  0  -0.323328  -0.557829  0  2.186043  0
O  O61  1  0.71530960  0.38394522  0.81353542  1  0  -0.323355  -0.557849  0  2.186141  0
