# generated using pymatgen
data_AlH14C20O7F3
_symmetry_space_group_name_H-M   'P 1'
_cell_length_a   6.67710286
_cell_length_b   23.94485751
_cell_length_c   25.79645814
_cell_angle_alpha   78.94509444
_cell_angle_beta   89.99980648
_cell_angle_gamma   89.99844313
_symmetry_Int_Tables_number   1
_chemical_formula_structural   AlH14C20O7F3
_chemical_formula_sum   'Al4 H56 C80 O28 F12'
_cell_volume   4047.86367464
_cell_formula_units_Z   4
loop_
 _symmetry_equiv_pos_site_id
 _symmetry_equiv_pos_as_xyz
  1  'x, y, z'
loop_
 _atom_site_type_symbol
 _atom_site_label
 _atom_site_symmetry_multiplicity
 _atom_site_fract_x
 _atom_site_fract_y
 _atom_site_fract_z
 _atom_site_occupancy
 _atom_site_pbe_bader_charge
 _atom_site_pbe_bader_spin_density
 _atom_site_pbe_cm5_charge
 _atom_site_pbe_ddec_charge
 _atom_site_pbe_ddec_spin_density
 _atom_site_pbe_ddec_sum_bond_order
 _atom_site_pbe_magmom
Al  Al0  1  0.75494100  0.25104782  0.75037459  1  2.501826  0  0.400368  1.638038  0  2.582524  0
Al  Al1  1  0.24505885  0.74895099  0.24962686  1  2.501857  0  0.400346  1.638143  0  2.582225  0
Al  Al2  1  0.25493384  0.24894921  0.74963205  1  2.501887  0  0.400495  1.638129  0  2.58215  0
Al  Al3  1  0.74505702  0.75104920  0.25037334  1  2.501944  0  0.40037  1.637998  0  2.582522  0
H  H4  1  0.26189708  0.68374884  0.10967939  1  0.10519  0  0.113653  0.12256  0  0.979469  0
H  H5  1  0.73809827  0.31624485  0.89033666  1  0.105223  0  0.113665  0.122653  0  0.979376  0
H  H6  1  0.76191453  0.81625869  0.39032913  1  0.105738  0  0.113644  0.122463  0  0.97945  0
H  H7  1  0.23809280  0.18375777  0.60967787  1  0.104976  0  0.113721  0.122678  0  0.979377  0
H  H8  1  0.26594472  0.61646420  0.04694938  1  0.082596  0  0.105842  0.116249  0  0.984728  0
H  H9  1  0.73402966  0.38354954  0.95304655  1  0.082755  0  0.105852  0.116226  0  0.984835  0
H  H10  1  0.76601863  0.88357957  0.45302126  1  0.080963  0  0.105884  0.116239  0  0.984891  0
H  H11  1  0.23408305  0.11649031  0.54693365  1  0.08252  0  0.105835  0.116279  0  0.984794  0
H  H12  1  0.33102846  0.46283673  0.53612899  1  0.162588  0  0.114424  0.150655  0  1.017054  0
H  H13  1  0.66897288  0.53714991  0.46385466  1  0.162437  0  0.114411  0.150571  0  1.017175  0
H  H14  1  0.83104112  0.03714831  0.96386032  1  0.162326  0  0.114388  0.150548  0  1.017122  0
H  H15  1  0.16896921  0.96284924  0.03613718  1  0.162392  0  0.114357  0.150519  0  1.017182  0
H  H16  1  0.90667978  0.46459905  0.15920305  1  0.03564  0  0.096153  0.052214  0  0.97524  0
H  H17  1  0.80685164  0.45457551  0.09746194  1  0.044121  0  0.089777  0.048427  0  1.006307  0
H  H18  1  0.46794777  0.43495006  0.13838460  1  0.065288  0  0.087879  0.12848  0  1.021687  0
H  H19  1  0.65017113  0.38664763  0.17156675  1  0.056567  0  0.092542  0.125098  0  0.994167  0
H  H20  1  0.56453652  0.44422725  0.20057011  1  0.056641  0  0.091006  0.124566  0  1.004756  0
H  H21  1  0.19387756  0.54542130  0.90263353  1  0.040725  0  0.089716  0.047982  0  1.006766  0
H  H22  1  0.09327662  0.53544234  0.84095924  1  0.036991  0  0.095889  0.052063  0  0.974855  0
H  H23  1  0.43494064  0.55576241  0.79932268  1  0.054661  0  0.091074  0.124743  0  1.004591  0
H  H24  1  0.34997698  0.61334355  0.82842521  1  0.057649  0  0.092541  0.125188  0  0.994205  0
H  H25  1  0.53240402  0.56499156  0.86143387  1  0.058389  0  0.087717  0.128447  0  1.02155  0
H  H26  1  0.40674777  0.03549421  0.34106519  1  0.040042  0  0.096061  0.052349  0  0.975042  0
H  H27  1  0.30557557  0.04544276  0.40269037  1  0.03965  0  0.089662  0.048048  0  1.007298  0
H  H28  1  0.96731706  0.06495961  0.36130195  1  0.059229  0  0.087779  0.128277  0  1.021856  0
H  H29  1  0.14985412  0.11335384  0.32841672  1  0.057035  0  0.092645  0.125209  0  0.994182  0
H  H30  1  0.06538951  0.05577809  0.29924104  1  0.055223  0  0.090987  0.124654  0  1.004414  0
H  H31  1  0.69312581  0.95459503  0.59744307  1  0.043127  0  0.089738  0.048364  0  1.006218  0
H  H32  1  0.59333594  0.96461416  0.65919080  1  0.035765  0  0.096184  0.052345  0  0.974964  0
H  H33  1  0.93550144  0.94422745  0.70054115  1  0.05741  0  0.090977  0.124547  0  1.004817  0
H  H34  1  0.84981474  0.88665407  0.67153693  1  0.056953  0  0.092594  0.12506  0  0.993931  0
H  H35  1  0.03204778  0.93495329  0.63835134  1  0.064023  0  0.087915  0.128738  0  1.021685  0
H  H36  1  0.86303008  0.57652552  0.25519032  1  0.038543  0  0.094365  0.050586  0  0.982509  0
H  H37  1  0.75172886  0.52109812  0.22729073  1  0.040482  0  0.092374  0.04383  0  1.011203  0
H  H38  1  0.40916227  0.55319594  0.25290815  1  0.02244  0  0.09112  0.125064  0  0.995277  0
H  H39  1  0.56815099  0.53073320  0.30853713  1  0.029505  0  0.091768  0.122967  0  0.997916  0
H  H40  1  0.52781864  0.60446388  0.28482411  1  0.079211  0  0.09982  0.146117  0  1.005758  0
H  H41  1  0.24818561  0.47887745  0.77267987  1  0.041069  0  0.092292  0.043736  0  1.011233  0
H  H42  1  0.13690387  0.42342894  0.74480753  1  0.037863  0  0.094552  0.050834  0  0.982658  0
H  H43  1  0.47203293  0.39548646  0.71516543  1  0.080137  0  0.099814  0.145925  0  1.005612  0
H  H44  1  0.43169909  0.46921164  0.69143265  1  0.043335  0  0.091726  0.122938  0  0.997766  0
H  H45  1  0.59077916  0.44676814  0.74704940  1  0.02184  0  0.090994  0.124874  0  0.995364  0
H  H46  1  0.36305939  0.92342044  0.24479334  1  0.038325  0  0.094548  0.050894  0  0.982629  0
H  H47  1  0.25187789  0.97888324  0.27266520  1  0.041085  0  0.092339  0.043743  0  1.0113  0
H  H48  1  0.90921722  0.94680474  0.24706177  1  0.022213  0  0.090967  0.124883  0  0.995456  0
H  H49  1  0.06825309  0.96922863  0.19143286  1  0.043752  0  0.091748  0.122957  0  0.997677  0
H  H50  1  0.02784832  0.89550938  0.21517469  1  0.079898  0  0.099879  0.146028  0  1.00562  0
H  H51  1  0.74827921  0.02110416  0.72729870  1  0.040252  0  0.09238  0.043795  0  1.011026  0
H  H52  1  0.63691499  0.07654001  0.75517567  1  0.038345  0  0.094412  0.050498  0  0.982641  0
H  H53  1  0.97199576  0.10450164  0.78483230  1  0.080511  0  0.099777  0.146004  0  1.005627  0
H  H54  1  0.93172579  0.03077191  0.80856029  1  0.043893  0  0.091784  0.123023  0  0.997657  0
H  H55  1  0.09082006  0.05323209  0.75294762  1  0.021984  0  0.090929  0.124839  0  0.995423  0
H  H56  1  0.49769290  0.31214461  0.77435769  1  0.629987  0  0.348396  0.425575  0  0.873169  0
H  H57  1  0.50231293  0.68785530  0.22564454  1  0.629925  0  0.348417  0.42566  0  0.873109  0
H  H58  1  0.99769789  0.18785343  0.72564560  1  0.629914  0  0.348421  0.425683  0  0.873096  0
H  H59  1  0.00231244  0.81214456  0.27435782  1  0.629971  0  0.348414  0.425687  0  0.873025  0
C  C60  1  0.50704796  0.16966289  0.82353192  1  1.6785  0  0.269963  0.693129  0  4.191673  0
C  C61  1  0.49295637  0.83033467  0.17646755  1  1.679009  0  0.269993  0.693154  0  4.191809  0
C  C62  1  0.00705497  0.33033532  0.67646977  1  1.678455  0  0.269975  0.693249  0  4.191419  0
C  C63  1  0.99296435  0.66965946  0.32352693  1  1.677911  0  0.269922  0.69321  0  4.191079  0
C  C64  1  0.50778350  0.19207648  0.68353752  1  1.554164  0  0.275972  0.669086  0  4.077522  0
C  C65  1  0.49220286  0.80792469  0.31646867  1  1.553791  0  0.275827  0.668724  0  4.077936  0
C  C66  1  0.00780061  0.30791833  0.81647048  1  1.554165  0  0.275703  0.668761  0  4.077642  0
C  C67  1  0.99217527  0.69207700  0.18353570  1  1.554418  0  0.275659  0.668879  0  4.077877  0
C  C68  1  0.14505459  0.65180021  0.11095443  1  -0.054098  0  -0.085137  -0.084072  0  4.007807  0
C  C69  1  0.85492429  0.34820295  0.88904821  1  -0.053976  0  -0.085272  -0.084382  0  4.007808  0
C  C70  1  0.64508083  0.84822333  0.38903742  1  -0.055131  0  -0.085107  -0.084052  0  4.00802  0
C  C71  1  0.35494597  0.15180985  0.61095538  1  -0.054468  0  -0.08523  -0.084393  0  4.008021  0
C  C72  1  0.14797574  0.61398831  0.07649984  1  0.034109  0  -0.090798  -0.121599  0  4.001893  0
C  C73  1  0.85199115  0.38602651  0.92349293  1  0.028892  0  -0.09073  -0.121612  0  4.002359  0
C  C74  1  0.64803648  0.88605019  0.42347622  1  0.030825  0  -0.090891  -0.121692  0  4.002681  0
C  C75  1  0.35204124  0.11401345  0.57648658  1  0.034188  0  -0.090901  -0.121555  0  4.002157  0
C  C76  1  0.99805757  0.57245420  0.07879926  1  0.01236  0  -0.017839  0.003536  0  4.020495  0
C  C77  1  0.00189435  0.42756468  0.92118602  1  0.016566  0  -0.017871  0.00363  0  4.020556  0
C  C78  1  0.49813557  0.92758923  0.42116882  1  -0.007872  0  -0.017985  0.003521  0  4.021073  0
C  C79  1  0.50196761  0.07248138  0.57878056  1  0.012856  0  -0.017521  0.003514  0  4.020832  0
C  C80  1  0.84837275  0.56779942  0.11790799  1  0.534499  0  0.078844  0.097571  0  4.039685  0
C  C81  1  0.15161810  0.43220671  0.88208438  1  0.534345  0  0.078954  0.097657  0  4.039838  0
C  C82  1  0.34838513  0.93223291  0.38207259  1  0.560011  0  0.079006  0.097799  0  4.039777  0
C  C83  1  0.65165066  0.06781498  0.61789770  1  0.534012  0  0.079064  0.097989  0  4.039635  0
C  C84  1  0.84060209  0.60776057  0.15174708  1  0.520445  0  0.086194  0.146603  0  4.02767  0
C  C85  1  0.15936480  0.39223939  0.84824883  1  0.520887  0  0.086238  0.14658  0  4.027558  0
C  C86  1  0.34064907  0.89225249  0.34824610  1  0.520117  0  0.086025  0.146392  0  4.027682  0
C  C87  1  0.65939271  0.10776925  0.65174352  1  0.520922  0  0.086115  0.146284  0  4.027958  0
C  C88  1  0.98956581  0.65003655  0.14782163  1  0.02615  0  -0.018516  -0.133603  0  3.978831  0
C  C89  1  0.01040708  0.34996143  0.85217981  1  0.026332  0  -0.018549  -0.133372  0  3.978302  0
C  C90  1  0.48958850  0.84997515  0.35217484  1  0.02675  0  -0.018338  -0.133074  0  3.978802  0
C  C91  1  0.51042332  0.15004160  0.64782267  1  0.025148  0  -0.018605  -0.133482  0  3.978817  0
C  C92  1  0.83667882  0.53419833  0.00451581  1  0.527558  0  0.088833  0.133387  0  4.096731  0
C  C93  1  0.16323715  0.46582547  0.99546789  1  0.527069  0  0.088776  0.133222  0  4.096838  0
C  C94  1  0.33678453  0.96585159  0.49545687  1  0.527364  0  0.088298  0.13269  0  4.097582  0
C  C95  1  0.66335310  0.03422995  0.50449212  1  0.525305  0  0.088745  0.133352  0  4.096237  0
C  C96  1  0.83875026  0.49950656  0.96694580  1  0.515178  0  0.087948  0.120771  0  4.10157  0
C  C97  1  0.16118069  0.50051173  0.03303829  1  0.515498  0  0.087496  0.120276  0  4.102233  0
C  C98  1  0.33886049  0.00054715  0.53302028  1  0.516335  0  0.087586  0.120493  0  4.10205  0
C  C99  1  0.66131158  0.99952855  0.46692870  1  0.515185  0  0.088017  0.120773  0  4.101422  0
C  C100  1  0.00201642  0.46457029  0.96100516  1  0.091117  0  -0.019308  -0.106441  0  4.091118  0
C  C101  1  0.99790255  0.53545425  0.03897498  1  0.090821  0  -0.019104  -0.106129  0  4.090752  0
C  C102  1  0.50213458  0.03548884  0.53895274  1  0.092218  0  -0.019278  -0.10621  0  4.090875  0
C  C103  1  0.49802550  0.96459077  0.46099151  1  0.091455  0  -0.019472  -0.10675  0  4.090701  0
C  C104  1  0.18639472  0.47882627  0.52061698  1  0.039548  0  -0.085081  -0.229008  0  3.944251  0
C  C105  1  0.81361711  0.52116492  0.47937695  1  0.039439  0  -0.085168  -0.229081  0  3.94438  0
C  C106  1  0.68640120  0.02116323  0.97938011  1  0.039794  0  -0.085206  -0.229162  0  3.944362  0
C  C107  1  0.31360913  0.97883642  0.02062134  1  0.03973  0  -0.085145  -0.229083  0  3.944308  0
C  C108  1  0.00855501  0.45639055  0.54587317  1  0.123877  0  0.000388  0.054028  0  4.134322  0
C  C109  1  0.99144334  0.54360849  0.45412116  1  0.124353  0  0.000478  0.054136  0  4.134201  0
C  C110  1  0.50857618  0.04360905  0.95412378  1  0.124498  0  0.000424  0.054094  0  4.134517  0
C  C111  1  0.49144163  0.95639368  0.04587491  1  0.124003  0  0.00052  0.054139  0  4.134337  0
C  C112  1  0.82568692  0.47885326  0.52389795  1  0.468214  0  0.105922  0.236416  0  4.042197  0
C  C113  1  0.17432041  0.52113811  0.47609914  1  0.468156  0  0.105965  0.236539  0  4.041995  0
C  C114  1  0.32569240  0.02114621  0.97609848  1  0.46815  0  0.105992  0.236573  0  4.041881  0
C  C115  1  0.67431643  0.97885510  0.02390100  1  0.468213  0  0.105963  0.236666  0  4.041901  0
C  C116  1  0.01120911  0.41298553  0.59130872  1  -0.336099  0  -0.028095  -0.032603  0  4.10403  0
C  C117  1  0.98879972  0.58700805  0.40867968  1  -0.339965  0  -0.028163  -0.032611  0  4.104544  0
C  C118  1  0.51122079  0.08700612  0.90868822  1  -0.340613  0  -0.028239  -0.032798  0  4.104642  0
C  C119  1  0.48879254  0.91299129  0.09131599  1  -0.339861  0  -0.028283  -0.032886  0  4.104102  0
C  C120  1  0.99129329  0.62469522  0.36963077  1  0.083811  0  -0.02255  -0.159096  0  3.928865  0
C  C121  1  0.00873351  0.37529445  0.63036039  1  0.079642  0  -0.022576  -0.159164  0  3.928525  0
C  C122  1  0.49128616  0.87529750  0.13036450  1  0.083739  0  -0.022427  -0.158808  0  3.928421  0
C  C123  1  0.50872566  0.12470040  0.86963932  1  0.08396  0  -0.022432  -0.158842  0  3.928578  0
C  C124  1  0.76972075  0.46788646  0.13487939  1  0.397987  0  -0.069007  0.087576  0  3.906079  0
C  C125  1  0.60267831  0.43142529  0.16311492  1  -0.103977  0  -0.245725  -0.397014  0  3.974152  0
C  C126  1  0.23048877  0.53211790  0.86517975  1  0.40067  0  -0.068453  0.088954  0  3.905243  0
C  C127  1  0.39736946  0.56855583  0.83681895  1  -0.096569  0  -0.245631  -0.39754  0  3.973824  0
C  C128  1  0.26931835  0.03214306  0.36521207  1  0.400202  0  -0.068622  0.088423  0  3.906323  0
C  C129  1  0.10258279  0.06856316  0.33677012  1  -0.098642  0  -0.245651  -0.397164  0  3.973866  0
C  C130  1  0.73028911  0.96789834  0.63485777  1  0.398895  0  -0.069063  0.087593  0  3.90568  0
C  C131  1  0.89733767  0.93143673  0.66308752  1  -0.103507  0  -0.245686  -0.397212  0  3.974369  0
C  C132  1  0.72573034  0.56354038  0.23672907  1  0.402636  0  -0.065537  0.092736  0  3.91722  0
C  C133  1  0.54664186  0.56329449  0.27265726  1  -0.062072  0  -0.243692  -0.398594  0  3.960692  0
C  C134  1  0.27419612  0.43643157  0.76325694  1  0.402223  0  -0.06582  0.092161  0  3.917376  0
C  C135  1  0.45326363  0.43667333  0.72731847  1  -0.076315  0  -0.243393  -0.397912  0  3.959766  0
C  C136  1  0.22579844  0.93644091  0.26324621  1  0.402041  0  -0.065836  0.092194  0  3.917499  0
C  C137  1  0.04669863  0.93669284  0.22732340  1  -0.076965  0  -0.243503  -0.398067  0  3.960104  0
C  C138  1  0.77424035  0.06355180  0.73672837  1  0.402447  0  -0.065679  0.092682  0  3.917025  0
C  C139  1  0.95326677  0.06331748  0.77267293  1  -0.076779  0  -0.243365  -0.398196  0  3.959938  0
O  O140  1  0.33574842  0.20721957  0.69734791  1  -1.258001  0  -0.232346  -0.593436  0  2.334413  0
O  O141  1  0.66424543  0.79277460  0.30266183  1  -1.257594  0  -0.23234  -0.5934  0  2.334498  0
O  O142  1  0.83574441  0.29278334  0.80265170  1  -1.257879  0  -0.232384  -0.593484  0  2.334239  0
O  O143  1  0.16422997  0.70720715  0.19735764  1  -1.258245  0  -0.232419  -0.593629  0  2.334365  0
O  O144  1  0.67796864  0.18789090  0.80607920  1  -1.228141  0  -0.226753  -0.574604  0  2.293702  0
O  O145  1  0.32203869  0.81210121  0.19391632  1  -1.229122  0  -0.226721  -0.574561  0  2.293775  0
O  O146  1  0.17795019  0.31211283  0.69393410  1  -1.228101  0  -0.226769  -0.574453  0  2.293817  0
O  O147  1  0.82206762  0.68787962  0.30606181  1  -1.228042  0  -0.226661  -0.574408  0  2.293598  0
O  O148  1  0.67399528  0.20994046  0.69775763  1  -1.249923  0  -0.229201  -0.589185  0  2.376921  0
O  O149  1  0.32598660  0.79006554  0.30224541  1  -1.249946  0  -0.229075  -0.589008  0  2.376905  0
O  O150  1  0.17399797  0.29004486  0.80225999  1  -1.250684  0  -0.228888  -0.588878  0  2.377066  0
O  O151  1  0.82598240  0.70995270  0.19774145  1  -1.250443  0  -0.228763  -0.588723  0  2.377234  0
O  O152  1  0.83548825  0.31420400  0.69500302  1  -1.223453  0  -0.226555  -0.571509  0  2.282288  0
O  O153  1  0.16453256  0.68579766  0.30500080  1  -1.223489  0  -0.226599  -0.571577  0  2.282174  0
O  O154  1  0.33549987  0.18579014  0.80499460  1  -1.22364  0  -0.226544  -0.571385  0  2.282684  0
O  O155  1  0.66449698  0.81420994  0.19500883  1  -1.223423  0  -0.22661  -0.57142  0  2.282672  0
O  O156  1  0.50355037  0.28379020  0.75195427  1  -1.432445  0  -0.449696  -0.991361  0  2.191399  0
O  O157  1  0.49644798  0.71620863  0.24804915  1  -1.432383  0  -0.449687  -0.991509  0  2.191587  0
O  O158  1  0.00355252  0.21620688  0.74804899  1  -1.4324  0  -0.449668  -0.991574  0  2.191593  0
O  O159  1  0.99643984  0.78379185  0.25195285  1  -1.432427  0  -0.449672  -0.991573  0  2.191487  0
O  O160  1  0.70309169  0.52662559  0.12468669  1  -1.079406  0  -0.19332  -0.209587  0  2.544482  0
O  O161  1  0.29694859  0.47336108  0.87530289  1  -1.079087  0  -0.193426  -0.209989  0  2.544944  0
O  O162  1  0.20301469  0.97337392  0.37529214  1  -1.080304  0  -0.193321  -0.209899  0  2.544898  0
O  O163  1  0.79692375  0.02664202  0.62466705  1  -1.079449  0  -0.193405  -0.2097  0  2.544311  0
O  O164  1  0.68863184  0.60387685  0.18810027  1  -1.053406  0  -0.198416  -0.223465  0  2.522036  0
O  O165  1  0.31134404  0.39611453  0.81189880  1  -1.052775  0  -0.198399  -0.223282  0  2.522229  0
O  O166  1  0.18864766  0.89613085  0.31189595  1  -1.052979  0  -0.198361  -0.223451  0  2.521749  0
O  O167  1  0.81136865  0.10387577  0.68809405  1  -1.053141  0  -0.198358  -0.223157  0  2.522089  0
F  F168  1  0.67624523  0.56837153  0.00625042  1  -0.619875  0  -0.092603  -0.109241  0  1.378385  0
F  F169  1  0.32368572  0.43165033  0.99372853  1  -0.619581  0  -0.092509  -0.109032  0  1.37851  0
F  F170  1  0.17636040  0.93167862  0.49372884  1  -0.62021  0  -0.092226  -0.108715  0  1.379215  0
F  F171  1  0.82379670  0.06840188  0.50622924  1  -0.619764  0  -0.092602  -0.109288  0  1.37789  0
F  F172  1  0.68000197  0.50160465  0.93395728  1  -0.623685  0  -0.078811  -0.100334  0  1.439545  0
F  F173  1  0.31990352  0.49841066  0.06603312  1  -0.623284  0  -0.078632  -0.100198  0  1.440279  0
F  F174  1  0.18017538  0.99843682  0.56602491  1  -0.62297  0  -0.078611  -0.100279  0  1.440149  0
F  F175  1  0.82007756  0.00159666  0.43395840  1  -0.623883  0  -0.078634  -0.100041  0  1.439628  0
F  F176  1  0.34620998  0.54255137  0.45181209  1  -0.631741  0  -0.084713  -0.130962  0  1.375244  0
F  F177  1  0.65379585  0.45743904  0.54817552  1  -0.631875  0  -0.084648  -0.130766  0  1.375369  0
F  F178  1  0.84620919  0.95743301  0.04818225  1  -0.631977  0  -0.084683  -0.130922  0  1.374969  0
F  F179  1  0.15380712  0.04256379  0.95181682  1  -0.631908  0  -0.08462  -0.130785  0  1.375249  0
