# generated using pymatgen
data_Zn2H16C33BrN3O8
_symmetry_space_group_name_H-M   'P 1'
_cell_length_a   9.98605011
_cell_length_b   10.95125133
_cell_length_c   10.98948589
_cell_angle_alpha   92.86572937
_cell_angle_beta   91.40826005
_cell_angle_gamma   90.23008485
_symmetry_Int_Tables_number   1
_chemical_formula_structural   Zn2H16C33BrN3O8
_chemical_formula_sum   'Zn2 H16 C33 Br1 N3 O8'
_cell_volume   1199.92534029
_cell_formula_units_Z   1
loop_
 _symmetry_equiv_pos_site_id
 _symmetry_equiv_pos_as_xyz
  1  'x, y, z'
loop_
 _atom_site_type_symbol
 _atom_site_label
 _atom_site_symmetry_multiplicity
 _atom_site_fract_x
 _atom_site_fract_y
 _atom_site_fract_z
 _atom_site_occupancy
 _atom_site_pbe_bader_charge
 _atom_site_pbe_bader_spin_density
 _atom_site_pbe_cm5_charge
 _atom_site_pbe_ddec_charge
 _atom_site_pbe_ddec_spin_density
 _atom_site_pbe_ddec_sum_bond_order
 _atom_site_pbe_magmom
Zn  Zn0  1  0.64028412  0.50322419  0.50083636  1  1.298896  0  0.67791  0.841711  0  2.393527  0
Zn  Zn1  1  0.35573069  0.49801397  0.49597170  1  1.298787  0  0.664831  0.852118  0  2.314526  0
H  H2  1  0.55497581  0.89839016  0.68552092  1  0.065953  0  0.10176  0.104852  0  0.99069  0
H  H3  1  0.76015164  0.47925061  0.79084495  1  0.100037  0  0.098242  0.109525  0  1.044885  0
H  H4  1  0.43626051  0.76419596  0.27459412  1  0.046383  0  0.09726  0.10496  0  1.031414  0
H  H5  1  0.40227784  0.86669308  0.08160511  1  0.06296  0  0.097054  0.092681  0  1.001926  0
H  H6  1  0.96730048  0.51936247  0.91261896  1  0.06173  0  0.095003  0.090245  0  1.007242  0
H  H7  1  0.42462592  0.09426250  0.07711091  1  0.078254  0  0.098447  0.095796  0  0.995335  0
H  H8  1  0.95398547  0.58997899  0.13251447  1  0.055748  0  0.096141  0.092741  0  0.999301  0
H  H9  1  0.28968176  0.48467370  0.87741527  1  0.097997  0  0.101515  0.107373  0  1.011939  0
H  H10  1  0.47683536  0.21793382  0.26612414  1  0.05111  0  0.099607  0.111951  0  1.011419  0
H  H11  1  0.73599491  0.58869067  0.23352959  1  0.091129  0  0.100188  0.110026  0  1.029507  0
H  H12  1  0.57018014  0.12574442  0.68274616  1  0.060878  0  0.104978  0.109894  0  0.987795  0
H  H13  1  0.28456298  0.48846781  0.10593545  1  0.101756  0  0.097247  0.100678  0  1.022897  0
H  H14  1  0.25341154  0.64741859  0.66895224  1  0.130372  0  0.116202  0.13945  0  1.036826  0
H  H15  1  0.13441925  0.79537942  0.80394878  1  0.099306  0  0.118667  0.114085  0  0.964246  0
H  H16  1  0.88573166  0.81450810  0.78828996  1  0.062711  0  0.120186  0.118005  0  0.963118  0
H  H17  1  0.75489172  0.68030997  0.64137716  1  0.151518  0  0.117604  0.137759  0  1.033994  0
C  C18  1  0.49398228  0.50217057  0.73489567  1  1.538037  0  0.216545  0.597462  0  4.146115  0
C  C19  1  0.37889600  0.49875728  0.05954501  1  -0.007631  0  -0.088627  -0.097798  0  4.005148  0
C  C20  1  0.54406900  0.07198734  0.59921452  1  -0.036054  0  -0.09124  -0.107476  0  4.022766  0
C  C21  1  0.51837591  0.13091946  0.49279484  1  0.006982  0  -0.011387  -0.063251  0  3.936682  0
C  C22  1  0.49542627  0.51591899  0.12953402  1  -0.073155  0  -0.006913  -0.062158  0  3.90733  0
C  C23  1  0.14512414  0.65407284  0.66330109  1  0.036259  0  -0.076425  -0.148453  0  3.922699  0
C  C24  1  0.07765798  0.73703563  0.73777548  1  -0.027026  0  -0.058192  -0.035781  0  3.956938  0
C  C25  1  0.50304877  0.73792299  0.49759382  1  1.605269  0  0.222303  0.612485  0  4.159336  0
C  C26  1  0.93689953  0.74789885  0.72913247  1  -0.015263  0  -0.062521  -0.048777  0  3.970915  0
C  C27  1  0.86319318  0.67357263  0.64764124  1  0.025638  0  -0.069554  -0.1333  0  3.914938  0
C  C28  1  0.92889474  0.58563405  0.57193828  1  0.383405  0  0.126342  0.167795  0  3.941064  0
C  C29  1  0.07281335  0.57787896  0.57752138  1  0.46619  0  0.129742  0.189774  0  3.91953  0
C  C30  1  0.06527933  0.42457289  0.42447016  1  0.554972  0  0.141512  0.161378  0  3.941798  0
C  C31  1  0.48568452  0.50789008  0.26485744  1  1.549616  0  0.217008  0.594331  0  4.156864  0
C  C32  1  0.52075197  0.26768220  0.49776745  1  1.596632  0  0.222561  0.622935  0  4.136762  0
C  C33  1  0.92119893  0.42650885  0.42413729  1  0.70563  0  0.157627  0.150661  0  4.011267  0
C  C34  1  0.44545326  0.86338278  0.27315245  1  -0.077446  0  -0.092852  -0.127081  0  3.969159  0
C  C35  1  0.75471482  0.50331935  0.88749682  1  -0.017095  0  -0.098531  -0.136054  0  3.986225  0
C  C36  1  0.42568240  0.92092979  0.16547943  1  0.024331  0  -0.098407  -0.089662  0  4.055974  0
C  C37  1  0.87028204  0.52677438  0.95590958  1  -0.071238  0  -0.098927  -0.085467  0  4.06271  0
C  C38  1  0.43725457  0.04961444  0.16319455  1  -0.112388  0  -0.097705  -0.091408  0  4.050245  0
C  C39  1  0.86311890  0.56325674  0.08051807  1  -0.143761  0  -0.098814  -0.092016  0  4.060438  0
C  C40  1  0.46599934  0.11908202  0.26885427  1  0.035172  0  -0.092381  -0.125042  0  3.975564  0
C  C41  1  0.53526826  0.94366895  0.60070106  1  -0.096335  0  -0.096199  -0.120409  0  4.037284  0
C  C42  1  0.74154925  0.56314319  0.13706051  1  0.011551  0  -0.092626  -0.120051  0  3.973644  0
C  C43  1  0.48560700  0.06290024  0.38178817  1  -0.024738  0  -7e-05  0.062241  0  3.948308  0
C  C44  1  0.62123453  0.52985201  0.07133609  1  0.09203  0  0.003648  0.065649  0  3.916425  0
C  C45  1  0.47733963  0.93200227  0.38334893  1  -0.029232  0  -0.002532  0.056653  0  3.956048  0
C  C46  1  0.62628436  0.51113844  0.94069684  1  -0.024952  0  0.00181  0.065635  0  3.920037  0
C  C47  1  0.38218647  0.49398508  0.93182948  1  -0.063215  0  -0.088408  -0.096583  0  4.008756  0
C  C48  1  0.50290911  0.87481374  0.49522585  1  0.010482  0  -0.010431  -0.05846  0  3.947955  0
C  C49  1  0.50235173  0.49954389  0.87144964  1  -0.013655  0  -0.012858  -0.077499  0  3.913092  0
C  C50  1  0.84945195  0.33999250  0.34537676  1  0.883593  0  0.17953  0.188809  0  4.018528  0
Br  Br51  1  0.14741112  0.31374050  0.31479765  1  0.107782  0  0.150303  0.074638  0  1.554151  0
N  N52  1  0.13819456  0.49712489  0.49956203  1  -1.208745  0  -0.279861  -0.22789  0  3.410405  0
N  N53  1  0.85600298  0.50672655  0.49571341  1  -1.154973  0  -0.263989  -0.204673  0  3.375025  0
N  N54  1  0.79756065  0.26688198  0.27898776  1  -1.00222  0  -0.251475  -0.255508  0  2.674372  0
O  O55  1  0.59660127  0.53901306  0.67994119  1  -1.182851  0  -0.315527  -0.558704  0  2.41621  0
O  O56  1  0.62977427  0.32144053  0.53175111  1  -1.157188  0  -0.320812  -0.546673  0  2.288589  0
O  O57  1  0.58966870  0.47254557  0.32225524  1  -1.176631  0  -0.311448  -0.549518  0  2.431226  0
O  O58  1  0.37312655  0.53176914  0.31308353  1  -1.164163  0  -0.322107  -0.563283  0  2.339784  0
O  O59  1  0.41156993  0.31983587  0.46901797  1  -1.168592  0  -0.319193  -0.573983  0  2.409886  0
O  O60  1  0.61383031  0.68626669  0.47287906  1  -1.16284  0  -0.314138  -0.547748  0  2.314077  0
O  O61  1  0.38254925  0.47259803  0.68182668  1  -1.170337  0  -0.316844  -0.54952  0  2.316119  0
O  O62  1  0.39528017  0.68454949  0.52460972  1  -1.167369  0  -0.310774  -0.55007  0  2.330564  0
