# generated using pymatgen
data_CuH8C9SN4(OF)3
_symmetry_space_group_name_H-M   'P 1'
_cell_length_a   8.15916171
_cell_length_b   8.21752645
_cell_length_c   10.81882918
_cell_angle_alpha   91.50140811
_cell_angle_beta   92.61911677
_cell_angle_gamma   113.92500815
_symmetry_Int_Tables_number   1
_chemical_formula_structural   CuH8C9SN4(OF)3
_chemical_formula_sum   'Cu2 H16 C18 S2 N8 O6 F6'
_cell_volume   661.56730383
_cell_formula_units_Z   2
loop_
 _symmetry_equiv_pos_site_id
 _symmetry_equiv_pos_as_xyz
  1  'x, y, z'
loop_
 _atom_site_type_symbol
 _atom_site_label
 _atom_site_symmetry_multiplicity
 _atom_site_fract_x
 _atom_site_fract_y
 _atom_site_fract_z
 _atom_site_occupancy
 _atom_site_hle17_bader_spin_density
 _atom_site_hle17_ddec_charge
 _atom_site_hle17_ddec_spin_density
 _atom_site_hle17_ddec_sum_bond_order
 _atom_site_hle17_magmom
 _atom_site_hse06_10hf_bader_spin_density
 _atom_site_hse06_10hf_ddec_charge
 _atom_site_hse06_10hf_ddec_spin_density
 _atom_site_hse06_10hf_ddec_sum_bond_order
 _atom_site_hse06_10hf_magmom
 _atom_site_hse06_bader_spin_density
 _atom_site_hse06_ddec_charge
 _atom_site_hse06_ddec_spin_density
 _atom_site_hse06_ddec_sum_bond_order
 _atom_site_hse06_magmom
 _atom_site_pbe_bader_spin_density
 _atom_site_pbe_cm5_charge
 _atom_site_pbe_ddec_charge
 _atom_site_pbe_ddec_spin_density
 _atom_site_pbe_ddec_sum_bond_order
 _atom_site_pbe_magmom
Cu  Cu0  1  0.24289235  0.44721769  0.24224028  1  0  0.506647  0  1.879597  0  0  0.393458  0  2.341913  0  0  0.375719  0  2.309847  0  0  0.614253  0.410707  0  2.359652  0
Cu  Cu1  1  0.75711792  0.55275968  0.75775422  1  0  0.506627  0  1.879551  0  0  0.39339  0  2.341974  0  0  0.375605  0  2.309901  0  0  0.614192  0.410635  0  2.359718  0
H  H2  1  0.93077211  0.26315038  0.39845686  1  0  0.09277  0  0.946758  0  0  0.094695  0  1.020775  0  0  0.09826  0  1.0172  0  0  0.113644  0.092068  0  1.023457  0
H  H3  1  0.06922635  0.73685499  0.60154518  1  0  0.09279  0  0.946773  0  0  0.094719  0  1.020786  0  0  0.098285  0  1.01721  0  0  0.113629  0.09209  0  1.023472  0
H  H4  1  0.60840424  0.05426006  0.35338180  1  0  0.09451  0  0.940436  0  0  0.102992  0  1.00199  0  0  0.104947  0  1.001815  0  0  0.117527  0.101531  0  1.002296  0
H  H5  1  0.39159749  0.94574132  0.64662119  1  0  0.094502  0  0.940564  0  0  0.103003  0  1.00199  0  0  0.104958  0  1.001814  0  0  0.117528  0.10154  0  1.002295  0
H  H6  1  0.68370899  0.08217542  0.97533254  1  0  0.088343  0  0.976782  0  0  0.090683  0  1.050725  0  0  0.093327  0  1.04926  0  0  0.114747  0.088755  0  1.051865  0
H  H7  1  0.31629014  0.91781662  0.02466927  1  0  0.088369  0  0.976757  0  0  0.090754  0  1.050643  0  0  0.093401  0  1.049176  0  0  0.114749  0.088831  0  1.051786  0
H  H8  1  0.00418661  0.29391156  0.01945785  1  0  0.093242  0  0.93386  0  0  0.09906  0  0.998036  0  0  0.102243  0  0.995718  0  0  0.119081  0.096786  0  0.999805  0
H  H9  1  0.99580489  0.70608581  0.98054010  1  0  0.093268  0  0.933983  0  0  0.099093  0  0.998088  0  0  0.102275  0  0.995766  0  0  0.119073  0.096822  0  0.999862  0
H  H10  1  0.41794335  0.74107129  0.43823930  1  0  0.100652  0  0.973748  0  0  0.108929  0  1.036547  0  0  0.112499  0  1.033627  0  0  0.118292  0.106504  0  1.038849  0
H  H11  1  0.58205467  0.25891807  0.56175595  1  0  0.100531  0  0.97386  0  0  0.108834  0  1.036592  0  0  0.112417  0  1.033657  0  0  0.118236  0.106406  0  1.038892  0
H  H12  1  0.36590465  0.21726964  0.38085776  1  0  0.09656  0  0.974179  0  0  0.101268  0  1.044801  0  0  0.105187  0  1.040944  0  0  0.116222  0.098652  0  1.047717  0
H  H13  1  0.63409582  0.78271973  0.61913664  1  0  0.096618  0  0.974131  0  0  0.101331  0  1.044866  0  0  0.105265  0  1.041002  0  0  0.11621  0.098708  0  1.047781  0
H  H14  1  0.33838841  0.20757381  0.08111128  1  0  0.103162  0  0.965749  0  0  0.109762  0  1.034275  0  0  0.113279  0  1.031024  0  0  0.11931  0.10749  0  1.036772  0
H  H15  1  0.66161125  0.79241955  0.91888502  1  0  0.103249  0  0.96571  0  0  0.109815  0  1.034266  0  0  0.113303  0  1.031051  0  0  0.119349  0.107537  0  1.036763  0
H  H16  1  0.45981778  0.75156808  0.09536115  1  0  0.091885  0  0.9943  0  0  0.092853  0  1.070537  0  0  0.096389  0  1.067528  0  0  0.115653  0.090628  0  1.07269  0
H  H17  1  0.54017930  0.24842795  0.90463234  1  0  0.091823  0  0.994392  0  0  0.092806  0  1.070627  0  0  0.096341  0  1.067626  0  0  0.115641  0.090575  0  1.07278  0
C  C18  1  0.93556975  0.73891884  0.31984642  1  0  0.595148  0  3.669309  0  0  0.527195  0  4.034333  0  0  0.555028  0  4.008072  0  0  0.285213  0.506685  0  4.054421  0
C  C19  1  0.06443610  0.26109854  0.68016257  1  0  0.593957  0  3.671634  0  0  0.527242  0  4.034565  0  0  0.555076  0  4.008304  0  0  0.285268  0.506713  0  4.054682  0
C  C20  1  0.87543156  0.22370790  0.30357807  1  0  0.082361  0  3.660654  0  0  0.050293  0  3.918667  0  0  0.05299  0  3.933883  0  0  0.047119  0.048297  0  3.908844  0
C  C21  1  0.12457087  0.77630414  0.69642423  1  0  0.081993  0  3.661469  0  0  0.050164  0  3.918815  0  0  0.052864  0  3.934031  0  0  0.047084  0.048164  0  3.90899  0
C  C22  1  0.69645557  0.10717167  0.27789166  1  0  0.073132  0  3.690325  0  0  0.05058  0  3.944411  0  0  0.050574  0  3.964264  0  0  0.050779  0.050422  0  3.931256  0
C  C23  1  0.30354467  0.89283504  0.72211046  1  0  0.072905  0  3.691053  0  0  0.05065  0  3.944484  0  0  0.050647  0  3.964336  0  0  0.050817  0.050488  0  3.931324  0
C  C24  1  0.73750412  0.12242077  0.07070288  1  0  0.061648  0  3.704409  0  0  0.042648  0  3.95317  0  0  0.041757  0  3.974469  0  0  0.048485  0.043207  0  3.938916  0
C  C25  1  0.26249570  0.87758193  0.92929915  1  0  0.061581  0  3.704452  0  0  0.042529  0  3.953224  0  0  0.041632  0  3.974528  0  0  0.048402  0.04308  0  3.938981  0
C  C26  1  0.91618017  0.24008130  0.09463258  1  0  0.085549  0  3.645104  0  0  0.061555  0  3.884122  0  0  0.063639  0  3.901042  0  0  0.051391  0.059732  0  3.873426  0
C  C27  1  0.08381639  0.75992540  0.90536941  1  0  0.085403  0  3.645213  0  0  0.061466  0  3.884174  0  0  0.063562  0  3.901087  0  0  0.051388  0.059621  0  3.873517  0
C  C28  1  0.45519472  0.63323070  0.46529381  1  0  0.072545  0  3.659415  0  0  0.040233  0  3.916412  0  0  0.043821  0  3.927272  0  0  0.03616  0.037259  0  3.91025  0
C  C29  1  0.54480165  0.36675466  0.53469391  1  0  0.072442  0  3.659813  0  0  0.040372  0  3.916251  0  0  0.043957  0  3.927091  0  0  0.036205  0.037399  0  3.910092  0
C  C30  1  0.42678036  0.34461137  0.43333508  1  0  0.066755  0  3.669497  0  0  0.035081  0  3.927919  0  0  0.039247  0  3.938142  0  0  0.034112  0.031634  0  3.922287  0
C  C31  1  0.57321574  0.65537931  0.56665457  1  0  0.067047  0  3.668762  0  0  0.035122  0  3.927803  0  0  0.03927  0  3.93804  0  0  0.034155  0.031693  0  3.922139  0
C  C32  1  0.41034159  0.33827305  0.04424836  1  0  0.063634  0  3.6528  0  0  0.032885  0  3.905671  0  0  0.035915  0  3.91839  0  0  0.03939  0.030047  0  3.898569  0
C  C33  1  0.58965399  0.66172831  0.95574704  1  0  0.063604  0  3.652572  0  0  0.032863  0  3.905464  0  0  0.035913  0  3.918189  0  0  0.039396  0.030031  0  3.898356  0
C  C34  1  0.47647773  0.63876303  0.05163052  1  0  0.075632  0  3.661813  0  0  0.04615  0  3.915411  0  0  0.049044  0  3.928278  0  0  0.039836  0.043685  0  3.907855  0
C  C35  1  0.52351552  0.36122368  0.94836820  1  0  0.075721  0  3.661617  0  0  0.046201  0  3.915274  0  0  0.049091  0  3.928146  0  0  0.039868  0.043744  0  3.90771  0
S  S36  1  0.17557543  0.85463630  0.28276296  1  0  1.122744  0  5.82927  0  0  1.021163  0  6.369865  0  0  1.063789  0  6.349784  0  0  0.4892  0.992008  0  6.383103  0
S  S37  1  0.82442685  0.14536641  0.71723916  1  0  1.122139  0  5.830314  0  0  1.021044  0  6.369754  0  0  1.063677  0  6.349674  0  0  0.489154  0.991891  0  6.383003  0
N  N38  1  0.98612594  0.29152431  0.21165583  1  0  -0.250546  0  3.376912  0  0  -0.184128  0  3.677723  0  0  -0.188033  0  3.68405  0  0  -0.347502  -0.182208  0  3.673329  0
N  N39  1  0.01387307  0.70848240  0.78834532  1  0  -0.250494  0  3.377049  0  0  -0.184024  0  3.677728  0  0  -0.18793  0  3.684047  0  0  -0.347463  -0.182106  0  3.673337  0
N  N40  1  0.62603395  0.05572087  0.16169144  1  0  -0.260321  0  3.066278  0  0  -0.222228  0  3.327585  0  0  -0.230159  0  3.345897  0  0  -0.298128  -0.216747  0  3.315282  0
N  N41  1  0.37396288  0.94428050  0.83831139  1  0  -0.260322  0  3.066447  0  0  -0.2222  0  3.327614  0  0  -0.230132  0  3.345926  0  0  -0.298123  -0.21672  0  3.315307  0
N  N42  1  0.38024241  0.47749941  0.39677228  1  0  -0.263248  0  3.388305  0  0  -0.202346  0  3.707006  0  0  -0.201171  0  3.708096  0  0  -0.36984  -0.204216  0  3.706442  0
N  N43  1  0.61976230  0.52249129  0.60322321  1  0  -0.263211  0  3.38775  0  0  -0.20243  0  3.706659  0  0  -0.201246  0  3.707733  0  0  -0.369866  -0.2043  0  3.706088  0
N  N44  1  0.38518894  0.47694883  0.09686939  1  0  -0.252127  0  3.350717  0  0  -0.186117  0  3.650493  0  0  -0.186645  0  3.654435  0  0  -0.357125  -0.187098  0  3.648522  0
N  N45  1  0.61481004  0.52304586  0.90312321  1  0  -0.252008  0  3.3502  0  0  -0.185989  0  3.650004  0  0  -0.186504  0  3.653913  0  0  -0.357031  -0.186971  0  3.648031  0
O  O46  1  0.20693895  0.71544617  0.21305836  1  0  -0.624781  0  2.085797  0  0  -0.586255  0  2.380348  0  0  -0.601025  0  2.362166  0  0  -0.340532  -0.576238  0  2.392208  0
O  O47  1  0.79305502  0.28455122  0.78694892  1  0  -0.624793  0  2.086049  0  0  -0.586216  0  2.380455  0  0  -0.600977  0  2.362259  0  0  -0.340498  -0.576191  0  2.392285  0
O  O48  1  0.17635200  0.00151030  0.20994366  1  0  -0.606271  0  1.989223  0  0  -0.577026  0  2.248143  0  0  -0.595138  0  2.235785  0  0  -0.336362  -0.564184  0  2.256237  0
O  O49  1  0.82365465  0.99849108  0.79006228  1  0  -0.606422  0  1.989537  0  0  -0.576967  0  2.247901  0  0  -0.595076  0  2.235542  0  0  -0.336392  -0.564127  0  2.255988  0
O  O50  1  0.27102611  0.90580007  0.40455632  1  0  -0.60347  0  1.97947  0  0  -0.564526  0  2.224629  0  0  -0.584568  0  2.213856  0  0  -0.331863  -0.550415  0  2.23142  0
O  O51  1  0.72897686  0.09420131  0.59544764  1  0  -0.603468  0  1.97971  0  0  -0.564466  0  2.224642  0  0  -0.584519  0  2.21387  0  0  -0.331816  -0.550371  0  2.231453  0
F  F52  1  0.87957671  0.85172518  0.38053212  1  0  -0.230293  0  1.213197  0  0  -0.188351  0  1.378855  0  0  -0.199343  0  1.365669  0  0  -0.092589  -0.18036  0  1.388235  0
F  F53  1  0.12043188  0.14829886  0.61947154  1  0  -0.225206  0  1.208082  0  0  -0.188352  0  1.378988  0  0  -0.199348  0  1.365804  0  0  -0.092582  -0.180362  0  1.388376  0
F  F54  1  0.91152586  0.59984155  0.39347854  1  0  -0.241456  0  1.209863  0  0  -0.196917  0  1.378359  0  0  -0.207695  0  1.364556  0  0  -0.094738  -0.189138  0  1.388162  0
F  F55  1  0.08847441  0.40017716  0.60653121  1  0  -0.24192  0  1.210347  0  0  -0.196889  0  1.378421  0  0  -0.207668  0  1.364617  0  0  -0.094709  -0.189113  0  1.388232  0
F  F56  1  0.82715968  0.67259238  0.21489283  1  0  -0.235238  0  1.183952  0  0  -0.193701  0  1.344188  0  0  -0.203981  0  1.33106  0  0  -0.101757  -0.185576  0  1.3528  0
F  F57  1  0.17283431  0.32741700  0.78511560  1  0  -0.235894  0  1.184571  0  0  -0.193751  0  1.344309  0  0  -0.204031  0  1.331178  0  0  -0.101841  -0.185625  0  1.352926  0
