# generated using pymatgen
data_ZnH10C12(NO)4
_symmetry_space_group_name_H-M   'P 1'
_cell_length_a   12.65920566
_cell_length_b   12.90400436
_cell_length_c   13.78294434
_cell_angle_alpha   76.97883738
_cell_angle_beta   62.67621746
_cell_angle_gamma   60.62248511
_symmetry_Int_Tables_number   1
_chemical_formula_structural   ZnH10C12(NO)4
_chemical_formula_sum   'Zn4 H40 C48 N16 O16'
_cell_volume   1743.07203194
_cell_formula_units_Z   4
loop_
 _symmetry_equiv_pos_site_id
 _symmetry_equiv_pos_as_xyz
  1  'x, y, z'
loop_
 _atom_site_type_symbol
 _atom_site_label
 _atom_site_symmetry_multiplicity
 _atom_site_fract_x
 _atom_site_fract_y
 _atom_site_fract_z
 _atom_site_occupancy
 _atom_site_pbe_bader_charge
 _atom_site_pbe_bader_spin_density
 _atom_site_pbe_cm5_charge
 _atom_site_pbe_ddec_charge
 _atom_site_pbe_ddec_spin_density
 _atom_site_pbe_ddec_sum_bond_order
 _atom_site_pbe_magmom
Zn  Zn0  1  0.16871387  0.66265347  0.24990835  1  1.247133  0  0.68846  0.743121  0  2.367877  0
Zn  Zn1  1  0.58116820  0.83748001  0.25006448  1  1.246023  0  0.687738  0.741915  0  2.363638  0
Zn  Zn2  1  0.83128662  0.33734607  0.75009106  1  1.247119  0  0.688458  0.743108  0  2.367917  0
Zn  Zn3  1  0.41883112  0.16252042  0.74993565  1  1.2461  0  0.687733  0.74193  0  2.363628  0
H  H4  1  0.06261268  0.45578449  0.04636859  1  0.123518  0  0.11263  0.13337  0  1.011212  0
H  H5  1  0.89080293  0.04436563  0.04620407  1  0.117666  0  0.113395  0.133902  0  1.010184  0
H  H6  1  0.48149513  0.45574365  0.45372867  1  0.123493  0  0.112889  0.133877  0  1.010871  0
H  H7  1  0.06471324  0.04424099  0.45356018  1  0.115478  0  0.11311  0.133801  0  1.010889  0
H  H8  1  0.93738641  0.54421594  0.95363264  1  0.123142  0  0.112615  0.133353  0  1.011214  0
H  H9  1  0.10919690  0.95563479  0.95379644  1  0.117444  0  0.113386  0.133886  0  1.010167  0
H  H10  1  0.51850574  0.54425411  0.54627035  1  0.123068  0  0.112897  0.133901  0  1.010892  0
H  H11  1  0.93528848  0.95575766  0.54644109  1  0.115439  0  0.113094  0.133781  0  1.010895  0
H  H12  1  0.47677451  0.35090735  0.95707674  1  0.124739  0  0.101375  0.117134  0  1.066349  0
H  H13  1  0.56572557  0.14943293  0.95707354  1  0.126324  0  0.101785  0.116653  0  1.066476  0
H  H14  1  0.17230290  0.35084124  0.54280883  1  0.121814  0  0.10124  0.117044  0  1.066359  0
H  H15  1  0.28428394  0.14960350  0.54295864  1  0.124889  0  0.101121  0.115477  0  1.067355  0
H  H16  1  0.52322738  0.64909130  0.04292084  1  0.124534  0  0.101393  0.117149  0  1.066375  0
H  H17  1  0.43427181  0.85057195  0.04292808  1  0.125971  0  0.101788  0.116634  0  1.066531  0
H  H18  1  0.82769680  0.64915741  0.45719092  1  0.121827  0  0.101232  0.117042  0  1.066387  0
H  H19  1  0.71571601  0.85039960  0.45704043  1  0.124873  0  0.101112  0.115474  0  1.067368  0
H  H20  1  0.40196898  0.48754223  0.10205809  1  0.090576  0  0.115444  0.086167  0  0.992869  0
H  H21  1  0.49572082  0.01262333  0.10198867  1  0.061981  0  0.11514  0.085377  0  0.992588  0
H  H22  1  0.11040997  0.48763674  0.39784889  1  0.090689  0  0.115357  0.085756  0  0.992706  0
H  H23  1  0.49128352  0.01278065  0.39821438  1  0.063936  0  0.115244  0.085696  0  0.993312  0
H  H24  1  0.59803129  0.51245820  0.89794021  1  0.090545  0  0.115441  0.086147  0  0.992865  0
H  H25  1  0.50427805  0.98737799  0.89801146  1  0.062038  0  0.115141  0.085386  0  0.992582  0
H  H26  1  0.88958941  0.51236458  0.60215162  1  0.090694  0  0.115347  0.085752  0  0.992702  0
H  H27  1  0.50871503  0.98722423  0.60178430  1  0.063906  0  0.115237  0.085684  0  0.993369  0
H  H28  1  0.95336639  0.65569069  0.26062058  1  0.47552  0  0.301799  0.306135  0  0.990884  0
H  H29  1  0.78600836  0.84435550  0.26050091  1  0.479659  0  0.302573  0.306531  0  0.991156  0
H  H30  1  0.39093920  0.65574388  0.23937884  1  0.501541  0  0.301701  0.306057  0  0.991617  0
H  H31  1  0.36973909  0.84429551  0.23949840  1  0.478824  0  0.302501  0.306371  0  0.991156  0
H  H32  1  0.04663270  0.34430974  0.73938065  1  0.47553  0  0.301802  0.306137  0  0.990903  0
H  H33  1  0.21399141  0.15564404  0.73949921  1  0.479656  0  0.302584  0.306543  0  0.991164  0
H  H34  1  0.60906180  0.34425566  0.76062095  1  0.501535  0  0.301707  0.306054  0  0.991617  0
H  H35  1  0.63026118  0.15570403  0.76050211  1  0.478825  0  0.30251  0.306377  0  0.991123  0
H  H36  1  0.90329045  0.61300355  0.18445947  1  0.529019  0  0.301152  0.328418  0  0.982578  0
H  H37  1  0.91214802  0.88712971  0.18430970  1  0.514742  0  0.301972  0.329021  0  0.980359  0
H  H38  1  0.48373975  0.61293867  0.31555078  1  0.526742  0  0.301173  0.328426  0  0.982121  0
H  H39  1  0.20081332  0.88702255  0.31557709  1  0.513646  0  0.301923  0.329197  0  0.980725  0
H  H40  1  0.09670865  0.38699688  0.81554176  1  0.529014  0  0.301137  0.328388  0  0.982647  0
H  H41  1  0.08785225  0.11286983  0.81569081  1  0.514715  0  0.301978  0.32904  0  0.98034  0
H  H42  1  0.51626169  0.38705998  0.68444901  1  0.526744  0  0.301167  0.328408  0  0.982172  0
H  H43  1  0.79918818  0.11297699  0.68442308  1  0.513634  0  0.301922  0.329184  0  0.980722  0
C  C44  1  0.10457017  0.53631696  0.13825298  1  1.008933  0  0.235605  0.466055  0  4.060573  0
C  C45  1  0.75698343  0.96379638  0.13814584  1  1.056198  0  0.234964  0.466427  0  4.063378  0
C  C46  1  0.35907517  0.53631206  0.36173133  1  0.98775  0  0.235839  0.466115  0  4.060681  0
C  C47  1  0.27911062  0.96381666  0.36177719  1  0.988617  0  0.234436  0.465478  0  4.065924  0
C  C48  1  0.89542960  0.46368258  0.86174714  1  1.008953  0  0.235632  0.466117  0  4.0605  0
C  C49  1  0.24301589  0.03620405  0.86185428  1  1.055912  0  0.234968  0.466404  0  4.063449  0
C  C50  1  0.64092577  0.46368659  0.63826807  1  0.98781  0  0.235836  0.466165  0  4.060592  0
C  C51  1  0.72089028  0.03618554  0.63822226  1  0.988606  0  0.234354  0.465362  0  4.066109  0
C  C52  1  0.14000148  0.46189222  0.05608731  1  -0.017475  0  -0.084966  -0.240121  0  3.864181  0
C  C53  1  0.80363556  0.03829522  0.05601559  1  -0.016468  0  -0.085027  -0.240457  0  3.867206  0
C  C54  1  0.39807720  0.46181686  0.44389213  1  0.017512  0  -0.085475  -0.24126  0  3.864243  0
C  C55  1  0.15787197  0.03831189  0.44379567  1  0.056829  0  -0.084826  -0.240144  0  3.868339  0
C  C56  1  0.85999834  0.53810821  0.94391320  1  -0.017482  0  -0.084982  -0.240151  0  3.8642  0
C  C57  1  0.19636382  0.96170610  0.94398492  1  -0.016317  0  -0.085044  -0.240438  0  3.867132  0
C  C58  1  0.60192507  0.53818002  0.55610506  1  0.017677  0  -0.085461  -0.241279  0  3.864255  0
C  C59  1  0.84212909  0.96168854  0.55620450  1  0.056627  0  -0.084788  -0.240052  0  3.868206  0
C  C60  1  0.27252073  0.39576563  0.99022039  1  -0.011388  0  -0.002259  0.033462  0  3.988624  0
C  C61  1  0.73687964  0.10447245  0.99021111  1  -0.044182  0  -0.001615  0.035019  0  3.991991  0
C  C62  1  0.33165665  0.39568443  0.50972140  1  -0.074198  0  -0.002281  0.034515  0  3.988025  0
C  C63  1  0.15829217  0.10454682  0.50963618  1  -0.051591  0  -0.002054  0.03398  0  3.992925  0
C  C64  1  0.72747903  0.60423391  0.00977974  1  -0.011707  0  -0.002237  0.033503  0  3.988654  0
C  C65  1  0.26312030  0.89552976  0.00979016  1  -0.044294  0  -0.001566  0.035035  0  3.991911  0
C  C66  1  0.66834445  0.60431333  0.49027652  1  -0.073521  0  -0.002261  0.034539  0  3.98796  0
C  C67  1  0.84170876  0.89545094  0.49036543  1  -0.051538  0  -0.002083  0.033899  0  3.992853  0
C  C68  1  0.37145489  0.40235079  0.00618600  1  0.001552  0  -0.108253  -0.200498  0  4.000857  0
C  C69  1  0.62197001  0.09792506  0.00616240  1  -0.03804  0  -0.109039  -0.200863  0  4.002876  0
C  C70  1  0.22615895  0.40230237  0.49370562  1  0.007237  0  -0.10784  -0.200785  0  4.000099  0
C  C71  1  0.27967258  0.09805455  0.49382739  1  0.037456  0  -0.10784  -0.19838  0  4.002792  0
C  C72  1  0.62854739  0.59764519  0.99381341  1  0.001599  0  -0.108303  -0.200564  0  4.000954  0
C  C73  1  0.37802826  0.90207804  0.99383921  1  -0.037574  0  -0.109088  -0.200837  0  4.002994  0
C  C74  1  0.77384198  0.59769628  0.50629379  1  0.006466  0  -0.107859  -0.200842  0  4.000141  0
C  C75  1  0.72032525  0.90195032  0.50617201  1  0.036826  0  -0.107825  -0.198389  0  4.00284  0
C  C76  1  0.33016579  0.47759851  0.08663140  1  0.410536  0  0.035809  0.10138  0  3.996236  0
C  C77  1  0.58293178  0.02258326  0.08656477  1  0.480816  0  0.035209  0.101161  0  3.994687  0
C  C78  1  0.19217319  0.47764117  0.41328546  1  0.408047  0  0.036033  0.10202  0  3.995432  0
C  C79  1  0.39416875  0.02270933  0.41351672  1  0.402174  0  0.03543  0.100761  0  3.995547  0
C  C80  1  0.66983560  0.52239925  0.91336800  1  0.410723  0  0.035845  0.101464  0  3.996239  0
C  C81  1  0.41706710  0.97741806  0.91343536  1  0.48077  0  0.035227  0.101147  0  3.994704  0
C  C82  1  0.80782663  0.52235925  0.58671505  1  0.40803  0  0.03604  0.102042  0  3.99542  0
C  C83  1  0.60582914  0.97729733  0.58648086  1  0.40272  0  0.035459  0.100847  0  3.995653  0
C  C84  1  0.30726263  0.31816574  0.90336149  1  1.549268  0  0.210586  0.575576  0  4.167922  0
C  C85  1  0.78890232  0.18206091  0.90332292  1  1.561845  0  0.2061  0.571197  0  4.17123  0
C  C86  1  0.37437503  0.31811071  0.59667884  1  1.572412  0  0.209679  0.574404  0  4.168856  0
C  C87  1  0.02864420  0.18202879  0.59656020  1  1.549905  0  0.20747  0.572458  0  4.168235  0
C  C88  1  0.69273567  0.68183380  0.09664008  1  1.549628  0  0.210561  0.575553  0  4.167997  0
C  C89  1  0.21109538  0.81794129  0.09667793  1  1.561848  0  0.206116  0.57119  0  4.171279  0
C  C90  1  0.62562663  0.68188794  0.40331985  1  1.5724  0  0.209705  0.574453  0  4.168715  0
C  C91  1  0.97135381  0.81796986  0.40344209  1  1.549865  0  0.207531  0.57257  0  4.168172  0
N  N92  1  0.20074632  0.54429576  0.15077952  1  -1.259739  0  -0.350207  -0.354713  0  3.515258  0
N  N93  1  0.64827665  0.95582682  0.15069346  1  -1.268567  0  -0.347377  -0.352416  0  3.511679  0
N  N94  1  0.25494417  0.54431423  0.34915889  1  -1.247469  0  -0.350556  -0.354833  0  3.515337  0
N  N95  1  0.39572368  0.95590664  0.34933693  1  -1.263233  0  -0.347783  -0.352898  0  3.513286  0
N  N96  1  0.79925490  0.45570378  0.84921916  1  -1.259778  0  -0.350225  -0.354765  0  3.515255  0
N  N97  1  0.35172339  0.04417361  0.84930595  1  -1.268662  0  -0.347398  -0.352433  0  3.511685  0
N  N98  1  0.74505566  0.45568620  0.65084161  1  -1.247462  0  -0.350552  -0.35484  0  3.515277  0
N  N99  1  0.60427650  0.04409645  0.65066103  1  -1.263004  0  -0.347775  -0.352949  0  3.513442  0
N  N100  1  0.97638937  0.59779178  0.20671250  1  -1.298136  0  -0.582051  -0.633203  0  3.315502  0
N  N101  1  0.81685316  0.90223686  0.20653032  1  -1.295464  0  -0.584412  -0.634904  0  3.31584  0
N  N102  1  0.42576518  0.59783197  0.29332263  1  -1.311156  0  -0.58188  -0.632943  0  3.315572  0
N  N103  1  0.28094551  0.90222854  0.29334645  1  -1.292924  0  -0.58414  -0.634642  0  3.316207  0
N  N104  1  0.02361119  0.40220865  0.79328729  1  -1.298145  0  -0.58204  -0.633186  0  3.315579  0
N  N105  1  0.18314778  0.09776179  0.79346908  1  -1.295313  0  -0.584418  -0.634932  0  3.31585  0
N  N106  1  0.57423576  0.40216668  0.70667677  1  -1.311136  0  -0.581871  -0.632938  0  3.315604  0
N  N107  1  0.71905549  0.09777011  0.70665555  1  -1.292955  0  -0.584097  -0.634562  0  3.31628  0
O  O108  1  0.21874136  0.33037879  0.87746789  1  -1.176781  0  -0.310332  -0.545028  0  2.188697  0
O  O109  1  0.90336459  0.16981888  0.87732571  1  -1.180351  0  -0.308275  -0.542283  0  2.189095  0
O  O110  1  0.45048788  0.33042490  0.62275619  1  -1.179066  0  -0.309739  -0.544151  0  2.188443  0
O  O111  1  0.92651331  0.16968313  0.62254995  1  -1.174749  0  -0.309041  -0.543293  0  2.188482  0
O  O112  1  0.78125795  0.66962164  0.12253223  1  -1.176765  0  -0.310314  -0.545003  0  2.188707  0
O  O113  1  0.09663571  0.83018510  0.12267523  1  -1.180349  0  -0.308264  -0.542255  0  2.189211  0
O  O114  1  0.54951071  0.66957553  0.37724466  1  -1.179076  0  -0.309758  -0.544186  0  2.188368  0
O  O115  1  0.07348398  0.83031641  0.37745085  1  -1.174754  0  -0.309057  -0.54333  0  2.188567  0
O  O116  1  0.42989112  0.23917299  0.85798673  1  -1.171221  0  -0.320703  -0.545648  0  2.285478  0
O  O117  1  0.71160799  0.26107098  0.85798274  1  -1.180327  0  -0.318689  -0.544827  0  2.286246  0
O  O118  1  0.33087029  0.23901470  0.64197557  1  -1.167131  0  -0.320632  -0.545743  0  2.285369  0
O  O119  1  0.02695071  0.26095097  0.64199653  1  -1.174839  0  -0.319596  -0.545411  0  2.28565  0
O  O120  1  0.57010733  0.76082477  0.14201556  1  -1.171249  0  -0.320697  -0.545665  0  2.285552  0
O  O121  1  0.28839228  0.73892856  0.14201777  1  -1.180305  0  -0.318695  -0.544822  0  2.286175  0
O  O122  1  0.66913109  0.76098395  0.35802163  1  -1.16712  0  -0.320645  -0.545763  0  2.285368  0
O  O123  1  0.97304629  0.73904768  0.35800500  1  -1.17485  0  -0.31964  -0.545474  0  2.28548  0
