# generated using pymatgen
data_CoH20C30(N2O3)2
_symmetry_space_group_name_H-M   'P 1'
_cell_length_a   15.10647229
_cell_length_b   15.10727883
_cell_length_c   16.00174628
_cell_angle_alpha   85.69738378
_cell_angle_beta   85.69030572
_cell_angle_gamma   85.43232059
_symmetry_Int_Tables_number   1
_chemical_formula_structural   CoH20C30(N2O3)2
_chemical_formula_sum   'Co4 H80 C120 N16 O24'
_cell_volume   3621.22348729
_cell_formula_units_Z   4
loop_
 _symmetry_equiv_pos_site_id
 _symmetry_equiv_pos_as_xyz
  1  'x, y, z'
loop_
 _atom_site_type_symbol
 _atom_site_label
 _atom_site_symmetry_multiplicity
 _atom_site_fract_x
 _atom_site_fract_y
 _atom_site_fract_z
 _atom_site_occupancy
 _atom_site_pbe_bader_charge
 _atom_site_pbe_bader_spin_density
 _atom_site_pbe_cm5_charge
 _atom_site_pbe_ddec_charge
 _atom_site_pbe_ddec_spin_density
 _atom_site_pbe_ddec_sum_bond_order
 _atom_site_pbe_magmom
Co  Co0  1  0.79492130  0.77085913  0.75888872  1  1.227519  2.566202  0.658765  0.780279  2.808476  2.524961  2.536
Co  Co1  1  0.22919193  0.20501013  0.74110910  1  1.227739  2.566167  0.658868  0.780539  2.808527  2.524897  2.536
Co  Co2  1  0.20501499  0.22916189  0.24113806  1  1.227708  2.566119  0.658744  0.780195  2.808375  2.525154  2.536
Co  Co3  1  0.77081626  0.79499770  0.25887101  1  1.227488  2.566256  0.65892  0.780606  2.808602  2.524923  2.536
H  H4  1  0.51424731  0.07299139  0.57685197  1  0.440814  8.8e-05  0.32036  0.268755  7e-05  0.948612  0.0
H  H5  1  0.92703811  0.48574069  0.92308440  1  0.441894  8.8e-05  0.320449  0.268937  7e-05  0.948553  0.0
H  H6  1  0.48571494  0.92702707  0.42307628  1  0.441753  8.8e-05  0.320296  0.268584  7e-05  0.948597  0.0
H  H7  1  0.07295546  0.51425558  0.07685508  1  0.441669  8.8e-05  0.32033  0.268836  7e-05  0.948635  0.0
H  H8  1  0.61621638  0.41445864  0.42103099  1  0.464103  6.1e-05  0.322593  0.275337  8.3e-05  0.944476  0.0
H  H9  1  0.58556826  0.38381011  0.07891350  1  0.463895  6.1e-05  0.322557  0.275286  8.3e-05  0.944653  0.0
H  H10  1  0.38375919  0.58555819  0.57892643  1  0.463641  6.1e-05  0.322597  0.275166  8.3e-05  0.944515  0.0
H  H11  1  0.41440605  0.61616234  0.92103716  1  0.464105  6.1e-05  0.322479  0.275199  8.3e-05  0.944745  0.0
H  H12  1  0.88347149  0.93431833  0.12956523  1  0.10123  -0.000222  0.104206  0.120569  -0.000379  1.020953  0.0
H  H13  1  0.06564897  0.11662348  0.37039403  1  0.099415  -0.000223  0.104146  0.120383  -0.00038  1.021106  0.0
H  H14  1  0.11675919  0.06559301  0.87038532  1  0.098792  -0.000224  0.104131  0.12013  -0.00038  1.021342  0.0
H  H15  1  0.93431589  0.88342533  0.62958563  1  0.100235  -0.000222  0.104129  0.120346  -0.000379  1.021031  0.0
H  H16  1  0.82497644  0.84953382  0.02181843  1  0.114616  0.000581  0.097938  0.108665  0.000268  1.047878  0.0
H  H17  1  0.15054195  0.17501690  0.47810699  1  0.113332  0.000582  0.097834  0.108508  0.000268  1.048099  0.0
H  H18  1  0.17506892  0.15053038  0.97810505  1  0.112776  0.000583  0.097882  0.108608  0.000268  1.048003  0.0
H  H19  1  0.84944426  0.82500182  0.52187017  1  0.109876  0.000584  0.097935  0.108699  0.000268  1.047769  0.0
H  H20  1  0.01238841  0.95828501  0.83235711  1  0.088102  0.000517  0.105907  0.11647  0.000313  1.007094  0.0
H  H21  1  0.04161779  0.98776369  0.66759113  1  0.090068  0.000515  0.106006  0.116365  0.000313  1.006932  0.0
H  H22  1  0.98780440  0.04158129  0.16758369  1  0.089316  0.000515  0.106022  0.116206  0.000313  1.006883  0.0
H  H23  1  0.95834041  0.01228229  0.33238420  1  0.088826  0.000516  0.105977  0.116458  0.000313  1.007097  0.0
H  H24  1  0.03993685  0.38837481  0.64116472  1  0.073807  8.1e-05  0.096546  0.095581  -8e-06  1.032571  0.0
H  H25  1  0.61168638  0.96011652  0.85893020  1  0.07375  8.1e-05  0.096403  0.095204  -8e-06  1.032813  0.0
H  H26  1  0.96020645  0.61164513  0.35897930  1  0.037144  8.3e-05  0.096551  0.095647  -8e-06  1.032511  0.0
H  H27  1  0.38830248  0.03990864  0.14106506  1  0.073209  8.1e-05  0.096425  0.095231  -8e-06  1.032831  0.0
H  H28  1  0.95885638  0.50663415  0.72449299  1  0.093118  0.000577  0.093296  0.095083  0.000329  1.04  0.0
H  H29  1  0.49340696  0.04111625  0.77558740  1  0.030561  0.000607  0.093419  0.095161  0.000329  1.040041  0.0
H  H30  1  0.04119917  0.49332047  0.27566315  1  0.031916  0.000607  0.093368  0.09522  0.000329  1.039427  0.0
H  H31  1  0.50658320  0.95892342  0.22441924  1  0.030684  0.000607  0.093401  0.095234  0.000329  1.039901  0.0
H  H32  1  0.89842169  0.66291446  0.49749486  1  0.120674  0.000415  0.106983  0.116861  0.000218  1.011372  0.0
H  H33  1  0.33707948  0.10165004  0.00255373  1  0.120774  0.000415  0.107182  0.117293  0.000219  1.011476  0.0
H  H34  1  0.10170233  0.33709227  0.50266084  1  0.121876  0.000414  0.107246  0.117453  0.000218  1.011559  0.0
H  H35  1  0.66293660  0.89841696  0.99745787  1  0.120841  0.000416  0.107187  0.117181  0.000219  1.011388  0.0
H  H36  1  0.59338319  0.33351819  0.51218165  1  0.119252  1.1e-05  0.110967  0.10828  -2e-06  1.01736  0.0
H  H37  1  0.66650383  0.40662674  0.98782697  1  0.120305  1.1e-05  0.110989  0.108299  -2e-06  1.017286  0.0
H  H38  1  0.40659041  0.66648286  0.48778703  1  0.119079  1.1e-05  0.111105  0.108479  -2e-06  1.017233  0.0
H  H39  1  0.33351376  0.59333926  0.01219606  1  0.119843  1.1e-05  0.110916  0.10819  -2e-06  1.017549  0.0
H  H40  1  0.32721228  0.38166626  0.42647020  1  0.122449  -4.3e-05  0.110533  0.113098  -9.1e-05  1.007924  0.0
H  H41  1  0.61835893  0.67280200  0.07353211  1  0.121862  -4.4e-05  0.110571  0.113139  -9.2e-05  1.007885  0.0
H  H42  1  0.67275321  0.61840375  0.57353541  1  0.099789  -4.6e-05  0.110564  0.113091  -9.1e-05  1.007934  0.0
H  H43  1  0.38164132  0.32717786  0.92646742  1  0.121577  -4.4e-05  0.110569  0.113184  -9.1e-05  1.007806  0.0
H  H44  1  0.28297533  0.24662718  0.51411992  1  0.147418  0.000246  0.110937  0.125152  5.5e-05  1.015631  0.0
H  H45  1  0.75339665  0.71701762  0.98582730  1  0.148399  0.000245  0.110899  0.125089  5.4e-05  1.015632  0.0
H  H46  1  0.71698754  0.75341447  0.48582727  1  0.148295  0.000246  0.11091  0.125154  5.4e-05  1.015889  0.0
H  H47  1  0.24658763  0.28296473  0.01414258  1  0.148128  0.000246  0.110993  0.125279  5.5e-05  1.015244  0.0
H  H48  1  0.39339255  0.15448302  0.59454615  1  0.110278  0.000104  0.110549  0.111696  1.2e-05  1.008264  0.0
H  H49  1  0.84552822  0.60658156  0.90539321  1  0.109487  0.000104  0.110535  0.111666  1.2e-05  1.00831  0.0
H  H50  1  0.60656841  0.84550964  0.40537278  1  0.10863  0.000105  0.110437  0.11163  1.2e-05  1.008244  0.0
H  H51  1  0.15444340  0.39340568  0.09456659  1  0.109739  0.000106  0.110499  0.111561  1.3e-05  1.008296  0.0
H  H52  1  0.80252610  0.97577925  0.75488571  1  0.117648  0.001648  0.126454  0.100728  0.000457  0.989087  0.001
H  H53  1  0.02423077  0.19737153  0.74514597  1  0.115901  0.001647  0.12637  0.100546  0.000457  0.989061  0.001
H  H54  1  0.19737429  0.02421252  0.24511444  1  0.11604  0.001649  0.126328  0.100451  0.000457  0.988965  0.001
H  H55  1  0.97576025  0.80256188  0.25487752  1  0.116843  0.001646  0.12632  0.100562  0.000456  0.989304  0.001
H  H56  1  0.70591118  0.10752356  0.70264215  1  0.169043  0.000683  0.120982  0.148746  0.000261  0.998624  0.0
H  H57  1  0.89248385  0.29401094  0.79737979  1  0.168385  0.000683  0.120981  0.148674  0.000261  0.99884  0.0
H  H58  1  0.29401449  0.89247499  0.29732886  1  0.169418  0.000683  0.12101  0.148772  0.000262  0.998698  0.0
H  H59  1  0.10750386  0.70591076  0.20264914  1  0.168129  0.000683  0.120999  0.148665  0.000261  0.998547  0.0
H  H60  1  0.56256953  0.92392516  0.57828106  1  0.045704  0.000825  0.104486  0.114137  0.000282  1.011782  0.0
H  H61  1  0.07610301  0.43738056  0.92168239  1  0.046469  0.000824  0.1045  0.114293  0.000282  1.011691  0.0
H  H62  1  0.43727162  0.07607357  0.42178842  1  0.047923  0.000823  0.104398  0.114021  0.000282  1.011521  0.0
H  H63  1  0.92387989  0.56262976  0.07824810  1  0.046338  0.000825  0.104554  0.114321  0.000283  1.011569  0.0
H  H64  1  0.66509970  0.80156779  0.63565875  1  0.14148  0.00174  0.118248  0.08756  0.000419  1.032657  0.001
H  H65  1  0.19846019  0.33482269  0.86432159  1  0.141123  0.001741  0.118298  0.087447  0.000419  1.032565  0.001
H  H66  1  0.33469955  0.19841076  0.36444951  1  0.139126  0.001742  0.118441  0.087662  0.000418  1.032592  0.001
H  H67  1  0.80152668  0.66519797  0.13561164  1  0.140793  0.001741  0.118272  0.087658  0.000419  1.032417  0.001
H  H68  1  0.81877381  0.61822723  0.33709793  1  0.115648  0.002094  0.115339  0.077637  0.000781  1.026945  0.001
H  H69  1  0.38184660  0.18121938  0.16283003  1  0.115439  0.002088  0.115233  0.077756  0.000779  1.027245  0.001
H  H70  1  0.18122976  0.38176300  0.66286751  1  0.115578  0.002095  0.115324  0.077669  0.000782  1.027057  0.001
H  H71  1  0.61813303  0.81875534  0.83713884  1  0.1156  0.002095  0.115258  0.077566  0.000781  1.027289  0.001
H  H72  1  0.74460381  0.48635281  0.39909361  1  0.082921  0.000921  0.117069  0.133225  0.000439  0.975953  0.0
H  H73  1  0.51370731  0.25542552  0.10083266  1  0.081737  0.000921  0.11702  0.133179  0.000438  0.97628  0.0
H  H74  1  0.25537644  0.51365107  0.60087752  1  0.082582  0.00092  0.117121  0.133176  0.000438  0.976141  0.0
H  H75  1  0.48627032  0.74455134  0.89913807  1  0.081976  0.00092  0.117118  0.133313  0.000438  0.976051  0.0
H  H76  1  0.50091982  0.60381665  0.29679200  1  0.161812  0.000649  0.119023  0.149602  0.000339  1.001338  0.0
H  H77  1  0.39620036  0.49904768  0.20323193  1  0.162475  0.000648  0.119105  0.149938  0.000338  1.001088  0.0
H  H78  1  0.49907500  0.39622667  0.70319030  1  0.162141  0.000649  0.119095  0.149853  0.000339  1.001153  0.0
H  H79  1  0.60381058  0.50091150  0.79678082  1  0.161474  0.00065  0.119021  0.149609  0.000339  1.001558  0.0
H  H80  1  0.58673526  0.73009778  0.23727918  1  0.114213  0.001635  0.122496  0.092628  0.000294  0.988882  0.001
H  H81  1  0.26994788  0.41318756  0.26278064  1  0.114998  0.001636  0.122229  0.092558  0.000296  0.989081  0.001
H  H82  1  0.41327489  0.26993115  0.76270805  1  0.11443  0.001635  0.122478  0.092533  0.000294  0.988731  0.001
H  H83  1  0.73008439  0.58675679  0.73727351  1  0.114326  0.001635  0.122532  0.092632  0.000294  0.98862  0.001
C  C84  1  0.87834270  0.85117092  0.85512625  1  1.482739  -0.002538  0.191185  0.543656  -0.003548  4.199867  -0.004
C  C85  1  0.14889296  0.12164168  0.64482049  1  1.482949  -0.002531  0.19105  0.543194  -0.003546  4.199692  -0.004
C  C86  1  0.12168473  0.14887334  0.14481992  1  1.482754  -0.002536  0.19146  0.543544  -0.003548  4.199063  -0.004
C  C87  1  0.85109326  0.87837173  0.35515829  1  1.483102  -0.002536  0.19102  0.543352  -0.00355  4.199391  -0.004
C  C88  1  0.91139828  0.93951485  0.06458470  1  -0.046901  -6e-06  -0.090093  -0.129362  -0.000196  3.959933  0.0
C  C89  1  0.06044283  0.08870106  0.43536678  1  -0.047042  -9e-06  -0.09012  -0.128985  -0.000198  3.959785  0.0
C  C90  1  0.08880646  0.06038444  0.93536229  1  -0.044805  -8e-06  -0.09003  -0.128286  -0.000197  3.960145  0.0
C  C91  1  0.93952536  0.91134552  0.56460530  1  -0.047216  -7e-06  -0.090062  -0.128931  -0.000196  3.959832  0.0
C  C92  1  0.87924320  0.89217897  0.00473846  1  -0.034788  0.001429  -0.09677  -0.109335  0.000738  3.993587  0.001
C  C93  1  0.10784188  0.12080761  0.49520925  1  -0.034275  0.001427  -0.096511  -0.109318  0.000737  3.993771  0.001
C  C94  1  0.12087219  0.10781376  0.99520012  1  -0.034918  0.001428  -0.096768  -0.109883  0.000737  3.994179  0.001
C  C95  1  0.89214632  0.87921296  0.50477076  1  -0.030949  0.001425  -0.096824  -0.109684  0.000737  3.993716  0.001
C  C96  1  0.91582874  0.89932494  0.92019414  1  -0.047225  0.002272  -0.026848  -0.0402  0.001199  4.024596  0.001
C  C97  1  0.10068633  0.08423426  0.57974386  1  -0.047853  0.002271  -0.027116  -0.040374  0.001198  4.025081  0.001
C  C98  1  0.08428866  0.10065437  0.07973900  1  -0.047816  0.00227  -0.026978  -0.040528  0.001197  4.025531  0.001
C  C99  1  0.89929653  0.91579399  0.42022848  1  -0.048236  0.002272  -0.026964  -0.040073  0.001199  4.024965  0.001
C  C100  1  0.98471408  0.95359083  0.89739003  1  -0.046331  0.000218  -0.079044  -0.139022  -0.000189  3.924659  0.0
C  C101  1  0.04633023  0.01542091  0.60256532  1  -0.058103  0.00022  -0.079127  -0.138478  -0.000187  3.924112  0.0
C  C102  1  0.01548936  0.04629195  0.10255698  1  -0.057524  0.000219  -0.079261  -0.138364  -0.000186  3.924565  0.0
C  C103  1  0.95363132  0.98461619  0.39741728  1  -0.048397  0.000219  -0.078956  -0.138816  -0.000189  3.924983  0.0
C  C104  1  0.01888280  0.00344371  0.95730122  1  0.007176  0.000399  -0.006289  0.076502  0.0001  4.001625  0.0
C  C105  1  0.99644809  0.98128220  0.54265620  1  -0.031984  0.000405  -0.006526  0.076078  9.9e-05  4.001782  0.0
C  C106  1  0.98137196  0.99639950  0.04264369  1  -0.031202  0.000404  -0.006456  0.076303  9.9e-05  4.000744  0.0
C  C107  1  0.00351145  0.01876235  0.45731539  1  0.012128  0.000398  -0.006327  0.076509  0.0001  4.001865  0.0
C  C108  1  0.87193292  0.65897690  0.66504154  1  1.505144  -0.00533  0.193175  0.543224  -0.006782  4.212001  -0.006
C  C109  1  0.34104662  0.12804667  0.83500112  1  1.50311  -0.005318  0.193175  0.543873  -0.00678  4.212708  -0.006
C  C110  1  0.12810063  0.34100056  0.33508516  1  1.481571  -0.005353  0.192559  0.542296  -0.006793  4.213846  -0.006
C  C111  1  0.65896614  0.87201659  0.16500661  1  1.501726  -0.005318  0.193146  0.5437  -0.006782  4.212415  -0.006
C  C112  1  0.01110988  0.44957370  0.61002073  1  0.027824  -0.000234  -0.094665  -0.13953  -0.000384  4.003301  0.0
C  C113  1  0.55047296  0.98895088  0.89006536  1  -0.056579  -0.00023  -0.09444  -0.138979  -0.000385  4.003624  0.0
C  C114  1  0.98902875  0.55045587  0.39013106  1  -0.031999  -0.000231  -0.094599  -0.139525  -0.000384  4.002658  0.0
C  C115  1  0.44952985  0.01109318  0.10993757  1  0.030213  -0.00023  -0.094494  -0.13881  -0.000381  4.00401  0.0
C  C116  1  0.96535209  0.51394347  0.65614136  1  -0.108174  0.001033  -0.092902  -0.10164  0.000524  4.004327  0.001
C  C117  1  0.48609835  0.03467186  0.84393663  1  -0.045184  0.001005  -0.092924  -0.101431  0.000524  4.004487  0.001
C  C118  1  0.03474333  0.48605074  0.34401663  1  -0.029255  0.001004  -0.092922  -0.10143  0.000524  4.003872  0.001
C  C119  1  0.51390178  0.96538170  0.15606519  1  -0.045712  0.001002  -0.093023  -0.101898  0.000523  4.004892  0.001
C  C120  1  0.92388512  0.59118637  0.61504018  1  0.034596  0.000317  -0.019594  -0.022849  -0.000199  4.002919  0.0
C  C121  1  0.40883860  0.07613975  0.88502746  1  0.041719  0.000307  -0.019755  -0.02323  -0.000199  4.00365  0.0
C  C122  1  0.07620964  0.40880723  0.38511228  1  0.047784  0.000308  -0.019485  -0.022473  -0.0002  4.003665  0.0
C  C123  1  0.59117150  0.92392237  0.11498617  1  0.042054  0.000312  -0.019625  -0.022749  -0.000193  4.002637  0.0
C  C124  1  0.93075042  0.60321226  0.52818036  1  -0.069984  -0.0013  -0.078075  -0.138476  -0.001727  3.91421  -0.001
C  C125  1  0.39679434  0.06932463  0.97188469  1  -0.070834  -0.001292  -0.078477  -0.139268  -0.001719  3.914913  -0.001
C  C126  1  0.06939688  0.39680208  0.47197564  1  -0.075819  -0.001306  -0.078524  -0.139845  -0.001731  3.914897  -0.001
C  C127  1  0.60321710  0.93073342  0.02811851  1  -0.071229  -0.001303  -0.078481  -0.139295  -0.001729  3.914724  -0.001
C  C128  1  0.97966773  0.53944397  0.47928463  1  0.008937  -0.000336  -0.0066  0.076951  -0.000476  4.005264  0.0
C  C129  1  0.46056979  0.02044706  0.02079492  1  -0.138642  -0.000331  -0.006503  0.076849  -0.000477  4.005102  0.0
C  C130  1  0.02049750  0.46059362  0.52087283  1  -0.135  -0.000327  -0.006774  0.076977  -0.000474  4.005978  0.0
C  C131  1  0.53944298  0.97960823  0.97920651  1  0.010462  -0.000332  -0.006674  0.076898  -0.000472  4.005518  0.0
C  C132  1  0.57443271  0.18481349  0.59824447  1  1.344012  -0.000191  0.246101  0.483768  -0.000234  4.105276  0.0
C  C133  1  0.81520107  0.42553697  0.90174152  1  1.344475  -0.000192  0.246018  0.483823  -0.000235  4.106376  0.0
C  C134  1  0.42551624  0.81519466  0.40172045  1  1.343903  -0.000193  0.245962  0.483761  -0.000236  4.106645  0.0
C  C135  1  0.18478656  0.57443518  0.09825196  1  1.34405  -0.000193  0.245969  0.483649  -0.000236  4.106115  0.0
C  C136  1  0.48432384  0.45033040  0.40845970  1  1.393695  -0.003428  0.239575  0.471919  -0.004084  4.123566  -0.002
C  C137  1  0.54970150  0.51568290  0.09156897  1  1.393285  -0.003413  0.239678  0.471444  -0.004066  4.124665  -0.002
C  C138  1  0.51565101  0.54971769  0.59153805  1  1.398609  -0.003421  0.239272  0.470838  -0.004077  4.125253  -0.002
C  C139  1  0.45031741  0.48428499  0.90846009  1  1.389859  -0.003421  0.239736  0.471949  -0.004075  4.124221  -0.002
C  C140  1  0.50255846  0.23649699  0.55203215  1  -0.006513  0.0002  -0.020251  -0.047936  3e-05  4.033998  0.0
C  C141  1  0.76352567  0.49743121  0.94794690  1  -0.006493  0.000199  -0.019954  -0.04811  2.9e-05  4.034839  0.0
C  C142  1  0.49740113  0.76351503  0.44791613  1  -0.007182  0.0002  -0.020018  -0.048526  3e-05  4.035463  0.0
C  C143  1  0.23647260  0.50254282  0.05204882  1  -0.006985  0.0002  -0.020144  -0.048046  3e-05  4.034449  0.0
C  C144  1  0.52593631  0.31469480  0.50632743  1  -0.118809  -0.00077  -0.076998  -0.124094  -0.000806  3.960828  0.0
C  C145  1  0.68532489  0.47406665  0.99367395  1  -0.11946  -0.000767  -0.077016  -0.124014  -0.000803  3.960518  0.0
C  C146  1  0.47403060  0.68532333  0.49364051  1  -0.118962  -0.000769  -0.077051  -0.124064  -0.000806  3.960893  0.0
C  C147  1  0.31468403  0.52590594  0.00634174  1  -0.119136  -0.000769  -0.077008  -0.123891  -0.000805  3.960597  0.0
C  C148  1  0.46361323  0.36652609  0.45968843  1  0.022178  0.000158  -0.019691  -0.049078  -0.000111  4.011297  0.0
C  C149  1  0.63350179  0.53640166  0.04031767  1  0.02451  0.000157  -0.019686  -0.048532  -0.00011  4.010983  0.0
C  C150  1  0.53635762  0.63351698  0.54028996  1  0.024614  0.000158  -0.019779  -0.048492  -0.00011  4.011265  0.0
C  C151  1  0.36650846  0.46357151  0.95969663  1  0.024898  0.000158  -0.019526  -0.048747  -0.00011  4.011106  0.0
C  C152  1  0.37606500  0.34076345  0.46196962  1  -0.099801  -0.001411  -0.070586  -0.072952  -0.001474  3.917437  -0.001
C  C153  1  0.65926124  0.62394587  0.03801920  1  -0.099261  -0.001407  -0.070588  -0.073124  -0.00147  3.917507  -0.001
C  C154  1  0.62390185  0.65928788  0.53801160  1  -0.077345  -0.001407  -0.070534  -0.072924  -0.001472  3.916942  -0.001
C  C155  1  0.34073702  0.37603347  0.96197551  1  -0.085794  -0.001407  -0.070737  -0.073321  -0.001472  3.917536  -0.001
C  C156  1  0.35167862  0.26458345  0.50978569  1  -0.008058  0.000602  -0.078395  -0.059968  0.000218  3.952808  0.0
C  C157  1  0.73543422  0.64832032  0.99017745  1  -0.00862  0.000598  -0.078474  -0.060397  0.000216  3.953202  0.0
C  C158  1  0.64828493  0.73544886  0.49017274  1  -0.008401  0.000601  -0.078789  -0.061051  0.000217  3.953833  0.0
C  C159  1  0.26455671  0.35166354  0.00980310  1  -0.022126  0.0006  -0.078406  -0.060131  0.000217  3.952556  0.0
C  C160  1  0.41479218  0.21171604  0.55435354  1  -0.091848  -0.001513  -0.079858  -0.110035  -0.00159  3.958854  -0.001
C  C161  1  0.78830030  0.58519301  0.94560417  1  -0.092753  -0.001507  -0.079859  -0.109555  -0.001584  3.958864  -0.001
C  C162  1  0.58516742  0.78829731  0.44558401  1  -0.090694  -0.001511  -0.079547  -0.108849  -0.001588  3.958771  -0.001
C  C163  1  0.21168665  0.41478716  0.05437942  1  -0.091662  -0.001509  -0.079738  -0.109517  -0.001586  3.958775  -0.001
C  C164  1  0.74776414  0.96756687  0.71621985  1  0.513244  0.004347  0.057546  0.112964  0.002447  3.94121  0.003
C  C165  1  0.03244589  0.25215223  0.78379104  1  0.514233  0.004342  0.057471  0.11318  0.002445  3.941499  0.003
C  C166  1  0.25212894  0.03242343  0.28379093  1  0.514645  0.004331  0.057636  0.113442  0.00244  3.940911  0.003
C  C167  1  0.96754510  0.74779910  0.21621743  1  0.512829  0.004342  0.057427  0.112755  0.002444  3.94142  0.003
C  C168  1  0.69441599  0.04085337  0.68708088  1  -0.03229  0.002139  -0.081381  -0.217222  0.001017  3.897023  0.002
C  C169  1  0.95915866  0.30551263  0.81292280  1  -0.030891  0.00214  -0.081274  -0.216927  0.001018  3.897266  0.002
C  C170  1  0.30549238  0.95914180  0.31291409  1  -0.032335  0.002141  -0.081305  -0.217295  0.001018  3.89729  0.002
C  C171  1  0.04083035  0.69442756  0.18708722  1  -0.030869  0.002139  -0.08129  -0.216833  0.001018  3.896721  0.002
C  C172  1  0.62508091  0.02651197  0.63698322  1  0.355719  0.00324  0.120025  0.294026  0.00161  4.02781  0.002
C  C173  1  0.97350675  0.37486847  0.86299910  1  0.356397  0.003232  0.119845  0.293592  0.001605  4.028055  0.002
C  C174  1  0.37482347  0.97348747  0.36302174  1  0.355104  0.003228  0.119827  0.293721  0.001603  4.028135  0.002
C  C175  1  0.02647156  0.62510104  0.13698273  1  0.356916  0.00323  0.119916  0.293951  0.001604  4.02759  0.002
C  C176  1  0.61447501  0.93877748  0.61789483  1  -0.04831  0.001277  -0.09549  -0.240706  0.000352  3.959008  0.001
C  C177  1  0.06124670  0.38546331  0.88208579  1  -0.042838  0.001275  -0.095779  -0.241229  0.000352  3.959416  0.001
C  C178  1  0.38537281  0.06121347  0.38216911  1  -0.044348  0.001277  -0.095672  -0.240484  0.00035  3.958524  0.001
C  C179  1  0.93873622  0.61453573  0.11786987  1  -0.043679  0.00128  -0.095869  -0.241214  0.000353  3.959618  0.001
C  C180  1  0.67094974  0.87016471  0.64965867  1  0.528501  0.004134  0.048661  0.110643  0.001997  3.973894  0.003
C  C181  1  0.12985853  0.32897012  0.85033320  1  0.516598  0.004151  0.048695  0.111023  0.001993  3.973947  0.003
C  C182  1  0.32888411  0.12982127  0.35041599  1  0.526564  0.004131  0.048337  0.109849  0.001996  3.973287  0.003
C  C183  1  0.87013371  0.67102758  0.14962127  1  0.523031  0.00413  0.048616  0.110495  0.001994  3.974365  0.003
C  C184  1  0.74870106  0.61218544  0.32849308  1  0.405377  -0.007123  0.040437  0.100608  -0.007468  3.994719  -0.005
C  C185  1  0.38787087  0.25128067  0.17145865  1  0.40464  -0.007088  0.040488  0.100124  -0.00744  3.995841  -0.005
C  C186  1  0.25130581  0.38781585  0.67147260  1  0.403514  -0.007107  0.040517  0.100479  -0.007454  3.995442  -0.005
C  C187  1  0.61211410  0.74868504  0.82852797  1  0.404413  -0.007111  0.040536  0.100339  -0.007461  3.995887  -0.005
C  C188  1  0.70687182  0.53867836  0.36309061  1  0.030522  0.006323  -0.090695  -0.235419  0.002803  3.960067  0.005
C  C189  1  0.46138292  0.29313637  0.13686274  1  0.032439  0.006304  -0.090489  -0.235142  0.002798  3.960524  0.005
C  C190  1  0.29311639  0.46133357  0.63688375  1  0.032489  0.006314  -0.09063  -0.23512  0.002802  3.960417  0.005
C  C191  1  0.53860603  0.70683701  0.86312369  1  0.032555  0.006314  -0.090579  -0.235061  0.002802  3.960299  0.005
C  C192  1  0.61530527  0.53453854  0.35414062  1  0.321656  -0.012304  0.114679  0.284435  -0.013346  4.030262  -0.009
C  C193  1  0.46549559  0.38469067  0.14583792  1  0.320016  -0.012246  0.114652  0.284889  -0.013281  4.029931  -0.009
C  C194  1  0.38468026  0.46548820  0.64583914  1  0.320746  -0.01229  0.114516  0.284493  -0.013329  4.029951  -0.009
C  C195  1  0.53450069  0.61527820  0.85415018  1  0.319485  -0.012287  0.114687  0.284432  -0.013327  4.029967  -0.009
C  C196  1  0.57121451  0.60406134  0.30655285  1  0.040236  0.006072  -0.084826  -0.212943  0.002736  3.90518  0.005
C  C197  1  0.39596522  0.42875886  0.19345856  1  0.040729  0.006056  -0.085031  -0.213703  0.002729  3.905401  0.005
C  C198  1  0.42878233  0.39597055  0.69343012  1  0.040572  0.006068  -0.084859  -0.213324  0.002734  3.905039  0.005
C  C199  1  0.60403907  0.57120212  0.80655203  1  0.040457  0.006069  -0.084678  -0.212828  0.002735  3.90538  0.005
C  C200  1  0.61938554  0.67465112  0.27359309  1  0.482532  -0.010352  0.049902  0.11366  -0.011069  3.95455  -0.006
C  C201  1  0.32539763  0.38055546  0.22643342  1  0.482594  -0.010295  0.050366  0.113806  -0.01101  3.954851  -0.006
C  C202  1  0.38061929  0.32537753  0.72638704  1  0.482076  -0.010333  0.04988  0.113782  -0.01105  3.954207  -0.006
C  C203  1  0.67461933  0.61939133  0.77359540  1  0.482001  -0.010337  0.049907  0.113571  -0.011054  3.954098  -0.006
N  N204  1  0.73643578  0.88327219  0.69919908  1  -1.2444  0.061199  -0.337951  -0.26294  0.033056  3.611375  0.044
N  N205  1  0.11674966  0.26347863  0.80079972  1  -1.239779  0.061221  -0.33755  -0.262831  0.03305  3.611662  0.044
N  N206  1  0.26343201  0.11671598  0.30083615  1  -1.246098  0.061212  -0.337721  -0.262573  0.033052  3.611005  0.044
N  N207  1  0.88324195  0.73649854  0.19918125  1  -1.243875  0.06123  -0.337449  -0.262385  0.033058  3.611103  0.044
N  N208  1  0.56599230  0.09364384  0.60540125  1  -1.219606  0.001819  -0.393319  -0.376219  0.000882  3.570561  0.001
N  N209  1  0.90637726  0.43397690  0.89456281  1  -1.220571  0.001817  -0.393553  -0.376597  0.000881  3.570799  0.001
N  N210  1  0.43394534  0.90636579  0.39455375  1  -1.220094  0.001816  -0.393147  -0.375999  0.000881  3.570509  0.001
N  N211  1  0.09361235  0.56600108  0.10540824  1  -1.221015  0.001817  -0.393375  -0.376621  0.000881  3.570713  0.001
N  N212  1  0.70621087  0.68079387  0.28497922  1  -1.239605  0.056693  -0.344599  -0.278315  0.030792  3.639113  0.046
N  N213  1  0.31926501  0.29374716  0.21501647  1  -1.240707  0.056668  -0.344671  -0.277928  0.03079  3.639278  0.046
N  N214  1  0.29379598  0.31921804  0.71499508  1  -1.239559  0.056698  -0.344784  -0.278469  0.030799  3.639112  0.046
N  N215  1  0.68073462  0.70621350  0.78499822  1  -1.238202  0.056697  -0.344906  -0.278163  0.030799  3.639622  0.046
N  N216  1  0.57430610  0.46187848  0.39350924  1  -1.26472  -0.000803  -0.394747  -0.372389  -0.000578  3.573405  0.001
N  N217  1  0.53815428  0.42570303  0.10647169  1  -1.264253  -0.000795  -0.394847  -0.372601  -0.000574  3.57346  0.001
N  N218  1  0.42566944  0.53815628  0.60647066  1  -1.264208  -0.0008  -0.394632  -0.372026  -0.000577  3.573193  0.001
N  N219  1  0.46183801  0.57426678  0.89351475  1  -1.263644  -0.000801  -0.394898  -0.372724  -0.000578  3.573242  0.001
O  O220  1  0.91199281  0.85209840  0.78011958  1  -1.143107  0.066439  -0.309877  -0.536289  0.033663  2.176494  0.059
O  O221  1  0.14793065  0.08797751  0.71981818  1  -1.143646  0.066417  -0.309848  -0.536132  0.03367  2.17655  0.059
O  O222  1  0.08795067  0.14799445  0.21979286  1  -1.142883  0.066443  -0.310127  -0.536323  0.033685  2.176387  0.059
O  O223  1  0.85207690  0.91201841  0.28014658  1  -1.144181  0.066455  -0.309952  -0.53631  0.033683  2.175993  0.059
O  O224  1  0.80687874  0.80932476  0.87546263  1  -1.141679  0.098723  -0.330304  -0.551918  0.05155  2.26098  0.08
O  O225  1  0.19081170  0.19306286  0.62450427  1  -1.140628  0.098747  -0.330166  -0.551737  0.051555  2.260936  0.08
O  O226  1  0.19317135  0.19070393  0.12453615  1  -1.141694  0.098728  -0.330438  -0.551854  0.051554  2.260263  0.08
O  O227  1  0.80916718  0.80696236  0.37547732  1  -1.140456  0.098729  -0.330127  -0.551797  0.051553  2.261091  0.08
O  O228  1  0.88498428  0.66197821  0.74337909  1  -1.130356  0.088119  -0.328371  -0.540553  0.045764  2.211186  0.072
O  O229  1  0.33804377  0.11494435  0.75667298  1  -1.130508  0.088119  -0.32857  -0.540999  0.045781  2.211447  0.072
O  O230  1  0.11497939  0.33798972  0.25675762  1  -1.130769  0.088189  -0.328179  -0.54037  0.0458  2.212308  0.072
O  O231  1  0.66193380  0.88507102  0.24334877  1  -1.129675  0.08809  -0.328551  -0.540946  0.04577  2.211303  0.072
O  O232  1  0.81421892  0.71353168  0.63123071  1  -1.165394  0.063934  -0.309058  -0.545515  0.032694  2.216901  0.056
O  O233  1  0.28648963  0.18578130  0.86878756  1  -1.169417  0.063924  -0.308776  -0.545489  0.032696  2.217384  0.056
O  O234  1  0.18583660  0.28644219  0.36884782  1  -1.15562  0.063929  -0.308573  -0.544793  0.032677  2.217388  0.056
O  O235  1  0.71355302  0.81431497  0.13120696  1  -1.168448  0.063945  -0.308802  -0.545518  0.032698  2.216919  0.056
O  O236  1  0.63694726  0.21971125  0.62426759  1  -1.107181  0.000678  -0.277228  -0.439796  0.000342  2.05473  0.001
O  O237  1  0.78029336  0.36302253  0.87574693  1  -1.108146  0.000674  -0.276973  -0.439472  0.000341  2.055257  0.001
O  O238  1  0.36298308  0.78028498  0.37573137  1  -1.107745  0.000674  -0.276937  -0.439388  0.000341  2.055053  0.001
O  O239  1  0.21969494  0.63694293  0.12426135  1  -1.107477  0.000674  -0.276981  -0.439522  0.000341  2.055244  0.001
O  O240  1  0.42549639  0.50425464  0.38193810  1  -1.121348  -0.003004  -0.280179  -0.457741  -0.002981  2.101725  -0.002
O  O241  1  0.49578328  0.57449014  0.11813663  1  -1.121211  -0.00299  -0.280195  -0.457519  -0.002967  2.102401  -0.002
O  O242  1  0.57447776  0.49581474  0.61808881  1  -1.12617  -0.002999  -0.280026  -0.457322  -0.002975  2.102554  -0.002
O  O243  1  0.50425695  0.42547223  0.88194255  1  -1.118901  -0.002997  -0.280318  -0.457732  -0.002973  2.102313  -0.002
