# generated using pymatgen
data_CuH3C4IN
_symmetry_space_group_name_H-M   'P 1'
_cell_length_a   4.14856674
_cell_length_b   8.66269606
_cell_length_c   15.04513652
_cell_angle_alpha   92.02801419
_cell_angle_beta   92.29750523
_cell_angle_gamma   99.93838130
_symmetry_Int_Tables_number   1
_chemical_formula_structural   CuH3C4IN
_chemical_formula_sum   'Cu4 H12 C16 I4 N4'
_cell_volume   531.65509380
_cell_formula_units_Z   4
loop_
 _symmetry_equiv_pos_site_id
 _symmetry_equiv_pos_as_xyz
  1  'x, y, z'
loop_
 _atom_site_type_symbol
 _atom_site_label
 _atom_site_symmetry_multiplicity
 _atom_site_fract_x
 _atom_site_fract_y
 _atom_site_fract_z
 _atom_site_occupancy
 _atom_site_hle17_bader_spin_density
 _atom_site_hle17_ddec_charge
 _atom_site_hle17_ddec_spin_density
 _atom_site_hle17_ddec_sum_bond_order
 _atom_site_hle17_magmom
 _atom_site_hse06_10hf_bader_spin_density
 _atom_site_hse06_10hf_ddec_charge
 _atom_site_hse06_10hf_ddec_spin_density
 _atom_site_hse06_10hf_ddec_sum_bond_order
 _atom_site_hse06_10hf_magmom
 _atom_site_hse06_bader_spin_density
 _atom_site_hse06_ddec_charge
 _atom_site_hse06_ddec_spin_density
 _atom_site_hse06_ddec_sum_bond_order
 _atom_site_hse06_magmom
 _atom_site_pbe_bader_spin_density
 _atom_site_pbe_cm5_charge
 _atom_site_pbe_ddec_charge
 _atom_site_pbe_ddec_spin_density
 _atom_site_pbe_ddec_sum_bond_order
 _atom_site_pbe_magmom
Cu  Cu0  1  0.24274619  0.00005927  0.44507809  1  0  0.229475  0  2.22047  0  0  0.153321  0  2.702351  0  0  0.16624  0  2.646323  0  0  0.237503  0.147079  0  2.739299  0
Cu  Cu1  1  0.75725667  0.99993915  0.55492134  1  0  0.229493  0  2.220483  0  0  0.153325  0  2.702365  0  0  0.166149  0  2.646358  0  0  0.237493  0.147064  0  2.739302  0
Cu  Cu2  1  0.33563629  0.02287494  0.06809050  1  0  0.256819  0  2.162051  0  0  0.180384  0  2.628873  0  0  0.191129  0  2.577648  0  0  0.256741  0.175934  0  2.662201  0
Cu  Cu3  1  0.66435696  0.97712352  0.93190949  1  0  0.256774  0  2.162104  0  0  0.18034  0  2.628934  0  0  0.191078  0  2.577676  0  0  0.256736  0.175888  0  2.662269  0
H  H4  1  0.11898141  0.97925159  0.24885962  1  0  0.065504  0  0.948595  0  0  0.068006  0  1.028065  0  0  0.071893  0  1.022712  0  0  0.107754  0.064788  0  1.032293  0
H  H5  1  0.88101468  0.02074803  0.75113977  1  0  0.065522  0  0.948633  0  0  0.068025  0  1.02809  0  0  0.071902  0  1.022747  0  0  0.107779  0.064806  0  1.032318  0
H  H6  1  0.67434174  0.31173310  0.42428419  1  0  0.078024  0  0.947166  0  0  0.083588  0  1.021198  0  0  0.087647  0  1.014801  0  0  0.10448  0.080214  0  1.026396  0
H  H7  1  0.32565721  0.68826768  0.57571525  1  0  0.07802  0  0.947148  0  0  0.083581  0  1.021186  0  0  0.087641  0  1.014788  0  0  0.104499  0.080206  0  1.026385  0
H  H8  1  0.08368329  0.53159095  0.36192242  1  0  0.093724  0  0.964576  0  0  0.104237  0  1.027276  0  0  0.106973  0  1.026192  0  0  0.088907  0.101918  0  1.028507  0
H  H9  1  0.91631804  0.46840983  0.63807572  1  0  0.093689  0  0.9646  0  0  0.104178  0  1.027321  0  0  0.106918  0  1.02623  0  0  0.088905  0.101858  0  1.02855  0
H  H10  1  0.34525106  0.65405275  0.22941709  1  0  0.092662  0  0.967401  0  0  0.099511  0  1.036768  0  0  0.102689  0  1.036058  0  0  0.085408  0.096913  0  1.037758  0
H  H11  1  0.65475510  0.34594801  0.77058176  1  0  0.092665  0  0.96748  0  0  0.099517  0  1.036832  0  0  0.102684  0  1.036147  0  0  0.085404  0.096921  0  1.037819  0
H  H12  1  0.19397117  0.53295471  0.07860544  1  0  0.090669  0  0.954034  0  0  0.102376  0  1.01391  0  0  0.105092  0  1.0124  0  0  0.091856  0.100143  0  1.015414  0
H  H13  1  0.80602644  0.46704256  0.92139457  1  0  0.090673  0  0.954001  0  0  0.102393  0  1.013867  0  0  0.10511  0  1.012355  0  0  0.09187  0.10016  0  1.015371  0
H  H14  1  0.76566240  0.29267653  0.05638582  1  0  0.093645  0  1.013628  0  0  0.098613  0  1.089999  0  0  0.10386  0  1.085004  0  0  0.081428  0.094332  0  1.094356  0
H  H15  1  0.23434093  0.70732306  0.94361430  1  0  0.093659  0  1.013632  0  0  0.098623  0  1.090003  0  0  0.103872  0  1.085011  0  0  0.081431  0.094341  0  1.094362  0
C  C16  1  0.30816694  0.08387493  0.25784700  1  0  0.285323  0  3.657428  0  0  0.229105  0  3.928656  0  0  0.245091  0  3.938357  0  0  0.15987  0.218497  0  3.923049  0
C  C17  1  0.69183292  0.91612819  0.74215317  1  0  0.285325  0  3.657455  0  0  0.229124  0  3.928688  0  0  0.24512  0  3.938386  0  0  0.15983  0.218515  0  3.923082  0
C  C18  1  0.61476904  0.26815456  0.35544687  1  0  0.149913  0  3.620619  0  0  0.104254  0  3.876673  0  0  0.121556  0  3.883519  0  0  0.06372  0.091794  0  3.873414  0
C  C19  1  0.38522904  0.73184386  0.64455450  1  0  0.149924  0  3.620778  0  0  0.104271  0  3.876829  0  0  0.121579  0  3.883669  0  0  0.063683  0.091811  0  3.873563  0
C  C20  1  0.77129236  0.34440455  0.28377235  1  0  -0.033893  0  3.798666  0  0  -0.008818  0  4.019195  0  0  -0.018625  0  4.046151  0  0  -0.007344  -0.002959  0  4.002395  0
C  C21  1  0.22870900  0.65559622  0.71622712  1  0  -0.033972  0  3.798782  0  0  -0.008863  0  4.019268  0  0  -0.018671  0  4.046225  0  0  -0.007372  -0.002997  0  4.002453  0
C  C22  1  0.01342627  0.48138487  0.29496487  1  0  -0.082695  0  3.725209  0  0  -0.104002  0  3.969167  0  0  -0.104157  0  3.991205  0  0  -0.087973  -0.103868  0  3.954852  0
C  C23  1  0.98657418  0.51861356  0.70503453  1  0  -0.082615  0  3.725114  0  0  -0.103905  0  3.969063  0  0  -0.104059  0  3.9911  0  0  -0.087951  -0.103771  0  3.954749  0
C  C24  1  0.15785971  0.54877744  0.22147618  1  0  -0.059507  0  3.730115  0  0  -0.074087  0  3.982722  0  0  -0.078487  0  4.003676  0  0  -0.090808  -0.071715  0  3.969806  0
C  C25  1  0.84214559  0.45122095  0.77852460  1  0  -0.059528  0  3.730312  0  0  -0.074112  0  3.982896  0  0  -0.078515  0  4.003848  0  0  -0.09081  -0.071742  0  3.96998  0
C  C26  1  0.06902508  0.48016875  0.13534875  1  0  -0.007681  0  3.708889  0  0  -0.02406  0  3.956302  0  0  -0.019565  0  3.973045  0  0  -0.080168  -0.027365  0  3.945915  0
C  C27  1  0.93097101  0.51983088  0.86465063  1  0  -0.007645  0  3.708851  0  0  -0.024025  0  3.956245  0  0  -0.019525  0  3.972986  0  0  -0.080169  -0.027331  0  3.945862  0
C  C28  1  0.83276275  0.34690005  0.12247795  1  0  -0.144746  0  3.698237  0  0  -0.165833  0  3.955071  0  0  -0.171946  0  3.970944  0  0  -0.094307  -0.162508  0  3.945692  0
C  C29  1  0.16723576  0.65309955  0.87752212  1  0  -0.144799  0  3.698256  0  0  -0.165879  0  3.955096  0  0  -0.171999  0  3.970974  0  0  -0.094317  -0.162555  0  3.94572  0
C  C30  1  0.67782278  0.27744836  0.19631273  1  0  0.225025  0  3.731547  0  0  0.220137  0  3.961577  0  0  0.229462  0  3.982406  0  0  0.112205  0.214133  0  3.947883  0
C  C31  1  0.32217573  0.72255125  0.80368734  1  0  0.225069  0  3.731576  0  0  0.220157  0  3.961634  0  0  0.229482  0  3.982468  0  0  0.112204  0.214152  0  3.947943  0
I  I32  1  0.31090289  0.19368380  0.58492815  1  0  -0.340052  0  1.713023  0  0  -0.283973  0  2.155468  0  0  -0.302442  0  2.115514  0  0  -0.165182  -0.269658  0  2.182769  0
I  I33  1  0.68909802  0.80631580  0.41507128  1  0  -0.340033  0  1.713067  0  0  -0.283954  0  2.155515  0  0  -0.302447  0  2.115572  0  0  -0.165157  -0.269638  0  2.182825  0
I  I34  1  0.23633940  0.17173680  0.92252398  1  0  -0.348308  0  1.793003  0  0  -0.290172  0  2.252537  0  0  -0.30915  0  2.212582  0  0  -0.148615  -0.275516  0  2.27942  0
I  I35  1  0.76365910  0.82826281  0.07747544  1  0  -0.348326  0  1.793004  0  0  -0.290169  0  2.252487  0  0  -0.309156  0  2.212547  0  0  -0.148631  -0.275515  0  2.279367  0
N  N36  1  0.38746377  0.13937318  0.34300439  1  0  -0.314189  0  3.354513  0  0  -0.237433  0  3.643181  0  0  -0.255904  0  3.650388  0  0  -0.364664  -0.22638  0  3.639374  0
N  N37  1  0.61253519  0.86062760  0.65699571  1  0  -0.314209  0  3.354517  0  0  -0.237481  0  3.64322  0  0  -0.255938  0  3.650398  0  0  -0.364651  -0.226419  0  3.639392  0
N  N38  1  0.43983099  0.14492842  0.18543243  1  0  -0.329695  0  3.310496  0  0  -0.255145  0  3.592192  0  0  -0.271286  0  3.601086  0  0  -0.350805  -0.245756  0  3.586555  0
N  N39  1  0.56016752  0.85507119  0.81456765  1  0  -0.329703  0  3.310523  0  0  -0.255157  0  3.592229  0  0  -0.271296  0  3.601116  0  0  -0.350784  -0.245772  0  3.586601  0
