# generated using pymatgen
data_NaH21C12SN2
_symmetry_space_group_name_H-M   'P 1'
_cell_length_a   5.84569329
_cell_length_b   10.94660185
_cell_length_c   11.95805149
_cell_angle_alpha   62.06710648
_cell_angle_beta   86.95095289
_cell_angle_gamma   81.25425541
_symmetry_Int_Tables_number   1
_chemical_formula_structural   NaH21C12SN2
_chemical_formula_sum   'Na2 H42 C24 S2 N4'
_cell_volume   668.04991115
_cell_formula_units_Z   2
loop_
 _symmetry_equiv_pos_site_id
 _symmetry_equiv_pos_as_xyz
  1  'x, y, z'
loop_
 _atom_site_type_symbol
 _atom_site_label
 _atom_site_symmetry_multiplicity
 _atom_site_fract_x
 _atom_site_fract_y
 _atom_site_fract_z
 _atom_site_occupancy
 _atom_site_hle17_bader_spin_density
 _atom_site_hle17_ddec_charge
 _atom_site_hle17_ddec_spin_density
 _atom_site_hle17_ddec_sum_bond_order
 _atom_site_hle17_magmom
 _atom_site_hse06_10hf_bader_spin_density
 _atom_site_hse06_10hf_ddec_charge
 _atom_site_hse06_10hf_ddec_spin_density
 _atom_site_hse06_10hf_ddec_sum_bond_order
 _atom_site_hse06_10hf_magmom
 _atom_site_hse06_bader_spin_density
 _atom_site_hse06_ddec_charge
 _atom_site_hse06_ddec_spin_density
 _atom_site_hse06_ddec_sum_bond_order
 _atom_site_hse06_magmom
 _atom_site_pbe_bader_spin_density
 _atom_site_pbe_cm5_charge
 _atom_site_pbe_ddec_charge
 _atom_site_pbe_ddec_spin_density
 _atom_site_pbe_ddec_sum_bond_order
 _atom_site_pbe_magmom
Na  Na0  1  0.18412461  0.65518226  0.90580988  1  0  0.807289  0  0.461053  0  0  0.725596  0  0.634797  0  0  0.737824  0  0.618066  0  0  0.519671  0.716803  0  0.646472  0
Na  Na1  1  0.81584157  0.34481102  0.09419096  1  0  0.807333  0  0.460962  0  0  0.725508  0  0.634967  0  0  0.737727  0  0.618245  0  0  0.519679  0.71672  0  0.646637  0
H  H2  1  0.86993227  0.44376417  0.85459968  1  0  0.067345  0  0.995498  0  0  0.078865  0  1.064144  0  0  0.082776  0  1.061412  0  0  0.09109  0.076126  0  1.06608  0
H  H3  1  0.13007193  0.55621346  0.14540702  1  0  0.067477  0  0.995722  0  0  0.078947  0  1.064378  0  0  0.082857  0  1.061644  0  0  0.09115  0.076212  0  1.066309  0
H  H4  1  0.78684848  0.43751176  0.65788654  1  0  0.077552  0  0.972974  0  0  0.090126  0  1.034657  0  0  0.092082  0  1.034496  0  0  0.094798  0.08875  0  1.034702  0
H  H5  1  0.21317304  0.56247944  0.34211049  1  0  0.077633  0  0.973179  0  0  0.090234  0  1.034827  0  0  0.092199  0  1.03464  0  0  0.094824  0.088867  0  1.034846  0
H  H6  1  0.09992070  0.35776259  0.54751186  1  0  0.079508  0  0.986807  0  0  0.09206  0  1.0499  0  0  0.094391  0  1.04957  0  0  0.091168  0.090405  0  1.050237  0
H  H7  1  0.90012410  0.64225272  0.45247997  1  0  0.079508  0  0.98672  0  0  0.092049  0  1.049815  0  0  0.094383  0  1.049484  0  0  0.091205  0.090411  0  1.050133  0
H  H8  1  0.50243279  0.28173976  0.64011204  1  0  0.071001  0  0.974891  0  0  0.084478  0  1.036431  0  0  0.087501  0  1.034285  0  0  0.090425  0.082363  0  1.037929  0
H  H9  1  0.49761248  0.71828075  0.35987502  1  0  0.07112  0  0.974763  0  0  0.084576  0  1.036333  0  0  0.0876  0  1.034187  0  0  0.090474  0.082465  0  1.037829  0
H  H10  1  0.58618394  0.28615793  0.83796733  1  0  0.084163  0  0.989769  0  0  0.095522  0  1.055958  0  0  0.098084  0  1.055422  0  0  0.092964  0.093802  0  1.056154  0
H  H11  1  0.41385038  0.71384385  0.16203650  1  0  0.084195  0  0.989766  0  0  0.095507  0  1.056014  0  0  0.098068  0  1.055481  0  0  0.092947  0.093784  0  1.056215  0
H  H12  1  0.56602458  0.60117871  0.71777163  1  0  0.098076  0  0.952297  0  0  0.119536  0  1.013477  0  0  0.119494  0  1.015282  0  0  0.105232  0.119542  0  1.012127  0
H  H13  1  0.43394195  0.39879813  0.28226562  1  0  0.098115  0  0.952225  0  0  0.119558  0  1.013422  0  0  0.119513  0  1.015229  0  0  0.105323  0.119562  0  1.012074  0
H  H14  1  0.61852170  0.73872503  0.74786459  1  0  0.096651  0  0.973497  0  0  0.117331  0  1.036183  0  0  0.118894  0  1.035564  0  0  0.096064  0.116133  0  1.036658  0
H  H15  1  0.38144622  0.26126746  0.25216331  1  0  0.096702  0  0.973401  0  0  0.117393  0  1.036062  0  0  0.118955  0  1.035442  0  0  0.096093  0.116196  0  1.036543  0
H  H16  1  0.61921987  0.76390253  0.58809733  1  0  0.060875  0  0.951729  0  0  0.07919  0  1.024662  0  0  0.080352  0  1.023728  0  0  0.0825  0.07824  0  1.025409  0
H  H17  1  0.38078392  0.23606908  0.41193709  1  0  0.060919  0  0.951839  0  0  0.079252  0  1.02474  0  0  0.080412  0  1.023806  0  0  0.082489  0.0783  0  1.025488  0
H  H18  1  0.99481673  0.75152561  0.58106818  1  0  0.079587  0  0.962948  0  0  0.100807  0  1.02772  0  0  0.101425  0  1.027707  0  0  0.095378  0.100294  0  1.027722  0
H  H19  1  0.00517774  0.24847818  0.41893075  1  0  0.079634  0  0.962926  0  0  0.100873  0  1.027686  0  0  0.101493  0  1.027668  0  0  0.095393  0.100359  0  1.02769  0
H  H20  1  0.22585631  0.61176394  0.61631356  1  0  0.095028  0  0.978528  0  0  0.113496  0  1.041569  0  0  0.112711  0  1.045481  0  0  0.099123  0.1139  0  1.039041  0
H  H21  1  0.77411455  0.38823788  0.38370185  1  0  0.094898  0  0.978503  0  0  0.113434  0  1.041466  0  0  0.112648  0  1.045376  0  0  0.099097  0.113839  0  1.038944  0
H  H22  1  0.24801237  0.78078746  0.48659150  1  0  0.061184  0  0.948362  0  0  0.079301  0  1.020985  0  0  0.080328  0  1.020298  0  0  0.08263  0.078532  0  1.021471  0
H  H23  1  0.75198857  0.21919649  0.51341755  1  0  0.061154  0  0.948366  0  0  0.079239  0  1.021056  0  0  0.080265  0  1.020367  0  0  0.082572  0.078469  0  1.02154  0
H  H24  1  0.04505176  0.94151192  0.60071287  1  0  0.053944  0  0.959255  0  0  0.072569  0  1.022875  0  0  0.072638  0  1.023563  0  0  0.103057  0.072495  0  1.022381  0
H  H25  1  0.95498066  0.05850533  0.39926422  1  0  0.053921  0  0.959236  0  0  0.072549  0  1.022833  0  0  0.072621  0  1.023505  0  0  0.103005  0.072472  0  1.022348  0
H  H26  1  0.32246376  0.96989468  0.53531464  1  0  0.034626  0  0.938999  0  0  0.050447  0  1.011169  0  0  0.051291  0  1.010049  0  0  0.086807  0.049719  0  1.012134  0
H  H27  1  0.67756916  0.03009872  0.46469120  1  0  0.034565  0  0.93897  0  0  0.050433  0  1.011069  0  0  0.051269  0  1.009948  0  0  0.086801  0.049707  0  1.012034  0
H  H28  1  0.46714422  0.92559068  0.75066125  1  0  0.061444  0  0.961112  0  0  0.079359  0  1.024685  0  0  0.079494  0  1.025394  0  0  0.104222  0.079034  0  1.024628  0
H  H29  1  0.53284191  0.07441207  0.24934083  1  0  0.061443  0  0.961081  0  0  0.07936  0  1.024693  0  0  0.079497  0  1.025398  0  0  0.104232  0.079032  0  1.024633  0
H  H30  1  0.26610221  0.07871193  0.66786595  1  0  0.047646  0  0.941578  0  0  0.06276  0  1.011244  0  0  0.062847  0  1.011716  0  0  0.090267  0.062588  0  1.011079  0
H  H31  1  0.73388687  0.92129290  0.33213265  1  0  0.047557  0  0.941672  0  0  0.062774  0  1.011266  0  0  0.062862  0  1.011737  0  0  0.090265  0.062593  0  1.011108  0
H  H32  1  0.80047731  0.93611552  0.88891149  1  0  0.096423  0  0.956139  0  0  0.11775  0  1.017264  0  0  0.118383  0  1.018211  0  0  0.099242  0.117071  0  1.017015  0
H  H33  1  0.19948868  0.06388599  0.11107156  1  0  0.096455  0  0.956133  0  0  0.117779  0  1.017264  0  0  0.118375  0  1.018256  0  0  0.099201  0.117101  0  1.017018  0
H  H34  1  0.82599053  0.96378597  0.73126513  1  0  0.073792  0  0.969284  0  0  0.092844  0  1.038066  0  0  0.093884  0  1.037271  0  0  0.09206  0.091939  0  1.038922  0
H  H35  1  0.17399919  0.03622386  0.26870787  1  0  0.07396  0  0.969342  0  0  0.093002  0  1.03808  0  0  0.094045  0  1.037278  0  0  0.092141  0.092098  0  1.038937  0
H  H36  1  0.88862565  0.09593904  0.76849707  1  0  0.070321  0  0.94903  0  0  0.088839  0  1.018963  0  0  0.089235  0  1.019874  0  0  0.084669  0.08857  0  1.018183  0
H  H37  1  0.11136127  0.90406779  0.23149235  1  0  0.070418  0  0.948967  0  0  0.088932  0  1.018898  0  0  0.089332  0  1.019799  0  0  0.084699  0.088684  0  1.0181  0
H  H38  1  0.13867210  0.89152837  0.01526500  1  0  0.086625  0  0.956944  0  0  0.106072  0  1.023553  0  0  0.106328  0  1.024614  0  0  0.097765  0.105776  0  1.022964  0
H  H39  1  0.86129168  0.10846796  0.98472537  1  0  0.086432  0  0.957025  0  0  0.10595  0  1.023566  0  0  0.106206  0  1.024626  0  0  0.097694  0.105653  0  1.022978  0
H  H40  1  0.24156460  0.04771181  0.89954943  1  0  0.078017  0  0.948581  0  0  0.097379  0  1.013636  0  0  0.097621  0  1.015246  0  0  0.08573  0.097096  0  1.012663  0
H  H41  1  0.75842089  0.95227943  0.10045600  1  0  0.077912  0  0.94857  0  0  0.097327  0  1.013559  0  0  0.097569  0  1.015169  0  0  0.085719  0.097044  0  1.012586  0
H  H42  1  0.41901561  0.88048075  0.95154599  1  0  0.089408  0  0.988651  0  0  0.106376  0  1.057053  0  0  0.107388  0  1.057154  0  0  0.090693  0.105481  0  1.057323  0
H  H43  1  0.58095627  0.11950311  0.04845713  1  0  0.089299  0  0.988755  0  0  0.106268  0  1.057181  0  0  0.107281  0  1.05728  0  0  0.090639  0.105372  0  1.057451  0
C  C44  1  0.23511066  0.36225246  0.86462411  1  0  0.145647  0  3.83184  0  0  0.164239  0  4.073539  0  0  0.170045  0  4.095207  0  0  -0.014761  0.160124  0  4.058827  0
C  C45  1  0.76486434  0.63776805  0.13537053  1  0  0.145409  0  3.832247  0  0  0.163955  0  4.074004  0  0  0.169756  0  4.095679  0  0  -0.014927  0.159844  0  4.05929  0
C  C46  1  0.00931243  0.40441424  0.81009112  1  0  -0.159514  0  3.764213  0  0  -0.170391  0  4.002082  0  0  -0.174647  0  4.021658  0  0  -0.107396  -0.167641  0  3.989024  0
C  C47  1  0.99071284  0.59557582  0.18989628  1  0  -0.159555  0  3.763337  0  0  -0.170343  0  4.001164  0  0  -0.174591  0  4.020731  0  0  -0.107407  -0.167599  0  3.988111  0
C  C48  1  0.96235750  0.40230193  0.69800137  1  0  -0.075871  0  3.833641  0  0  -0.086942  0  4.079  0  0  -0.086995  0  4.099892  0  0  -0.10138  -0.086791  0  4.064688  0
C  C49  1  0.03769068  0.59770618  0.30200439  1  0  -0.075939  0  3.832991  0  0  -0.087035  0  4.078332  0  0  -0.087087  0  4.099227  0  0  -0.101317  -0.086879  0  4.064035  0
C  C50  1  0.13787143  0.35771266  0.63566159  1  0  -0.1235  0  3.831013  0  0  -0.136854  0  4.08039  0  0  -0.139679  0  4.101316  0  0  -0.117299  -0.134945  0  4.066165  0
C  C51  1  0.86214740  0.64231096  0.36432393  1  0  -0.123501  0  3.831247  0  0  -0.136883  0  4.080742  0  0  -0.139709  0  4.101673  0  0  -0.117436  -0.134985  0  4.066511  0
C  C52  1  0.36231184  0.31649699  0.68736559  1  0  -0.078377  0  3.840021  0  0  -0.088606  0  4.084404  0  0  -0.08855  0  4.10411  0  0  -0.10512  -0.088532  0  4.070986  0
C  C53  1  0.63772430  0.68353294  0.31261927  1  0  -0.078562  0  3.840281  0  0  -0.088792  0  4.0847  0  0  -0.08874  0  4.104409  0  0  -0.105195  -0.088722  0  4.07129  0
C  C54  1  0.41017543  0.31851111  0.79941677  1  0  -0.146648  0  3.745715  0  0  -0.160481  0  3.986815  0  0  -0.164576  0  4.006966  0  0  -0.109293  -0.157763  0  3.973108  0
C  C55  1  0.58985395  0.68150420  0.20057629  1  0  -0.146432  0  3.746166  0  0  -0.160209  0  3.98723  0  0  -0.164306  0  4.007387  0  0  -0.109142  -0.157495  0  3.973531  0
C  C56  1  0.53549369  0.71477807  0.68158887  1  0  -0.179964  0  3.690661  0  0  -0.26816  0  3.936298  0  0  -0.266518  0  3.946387  0  0  -0.149186  -0.269028  0  3.929255  0
C  C57  1  0.46448925  0.28520188  0.31844244  1  0  -0.180079  0  3.69058  0  0  -0.268277  0  3.936266  0  0  -0.266635  0  3.946363  0  0  -0.149227  -0.269136  0  3.929206  0
C  C58  1  0.18379532  0.72432310  0.58433390  1  0  -0.174032  0  3.713336  0  0  -0.263383  0  3.965075  0  0  -0.261631  0  3.976751  0  0  -0.149008  -0.264284  0  3.956848  0
C  C59  1  0.81620700  0.27566924  0.41567482  1  0  -0.173908  0  3.713182  0  0  -0.263322  0  3.964909  0  0  -0.261564  0  3.976579  0  0  -0.148935  -0.264231  0  3.956689  0
C  C60  1  0.23080544  0.91275911  0.62492942  1  0  -0.025658  0  3.700203  0  0  -0.08188  0  3.959911  0  0  -0.078762  0  3.972151  0  0  -0.074277  -0.083797  0  3.95122  0
C  C61  1  0.76920761  0.08724573  0.37506858  1  0  -0.025667  0  3.699828  0  0  -0.081833  0  3.959451  0  0  -0.078691  0  3.971668  0  0  -0.074207  -0.083754  0  3.950749  0
C  C62  1  0.28563324  0.96287908  0.71814594  1  0  -0.033798  0  3.685858  0  0  -0.086135  0  3.937516  0  0  -0.083296  0  3.950417  0  0  -0.076576  -0.0879  0  3.928726  0
C  C63  1  0.71435863  0.03712148  0.28184526  1  0  -0.03361  0  3.685696  0  0  -0.086081  0  3.937425  0  0  -0.083256  0  3.950333  0  0  -0.076547  -0.087822  0  3.928602  0
C  C64  1  0.90274241  0.98160652  0.80319997  1  0  -0.175826  0  3.712494  0  0  -0.266954  0  3.964771  0  0  -0.265057  0  3.975211  0  0  -0.150975  -0.267948  0  3.957735  0
C  C65  1  0.09724601  0.01839406  0.19679380  1  0  -0.176123  0  3.712449  0  0  -0.267263  0  3.964758  0  0  -0.265338  0  3.975212  0  0  -0.151053  -0.268279  0  3.957719  0
C  C66  1  0.24094618  0.93551794  0.92928142  1  0  -0.18688  0  3.694543  0  0  -0.275269  0  3.942528  0  0  -0.273272  0  3.952258  0  0  -0.154656  -0.276312  0  3.935918  0
C  C67  1  0.75902123  0.06447741  0.07071599  1  0  -0.186411  0  3.694373  0  0  -0.274866  0  3.942345  0  0  -0.272874  0  3.952083  0  0  -0.154509  -0.275908  0  3.935736  0
S  S68  1  0.29690373  0.36542286  0.00522156  1  0  -0.746556  0  1.91331  0  0  -0.705217  0  2.236814  0  0  -0.720463  0  2.228884  0  0  -0.337704  -0.69394  0  2.242003  0
S  S69  1  0.70310547  0.63456947  0.99478450  1  0  -0.746546  0  1.913485  0  0  -0.705211  0  2.236995  0  0  -0.72046  0  2.229077  0  0  -0.337714  -0.693938  0  2.24219  0
N  N70  1  0.28590019  0.76134423  0.67130613  1  0  -0.201641  0  3.287437  0  0  -0.108803  0  3.539675  0  0  -0.122277  0  3.559145  0  0  -0.407573  -0.099407  0  3.52568  0
N  N71  1  0.71409404  0.23865332  0.32869885  1  0  -0.201646  0  3.287351  0  0  -0.108829  0  3.539555  0  0  -0.122309  0  3.559014  0  0  -0.407654  -0.099434  0  3.525568  0
N  N72  1  0.14273318  0.91303677  0.83138402  1  0  -0.207932  0  3.305631  0  0  -0.11587  0  3.558511  0  0  -0.129294  0  3.577833  0  0  -0.420352  -0.106506  0  3.54486  0
N  N73  1  0.85723564  0.08696693  0.16860972  1  0  -0.208032  0  3.305547  0  0  -0.115951  0  3.558511  0  0  -0.12937  0  3.577828  0  0  -0.42037  -0.106591  0  3.544857  0
