# generated using pymatgen
data_ZnH7C10NO5
_symmetry_space_group_name_H-M   'P 1'
_cell_length_a   6.45905917
_cell_length_b   11.55291249
_cell_length_c   13.27987417
_cell_angle_alpha   88.90688349
_cell_angle_beta   80.04549434
_cell_angle_gamma   80.02909283
_symmetry_Int_Tables_number   1
_chemical_formula_structural   ZnH7C10NO5
_chemical_formula_sum   'Zn4 H28 C40 N4 O20'
_cell_volume   961.23577658
_cell_formula_units_Z   4
loop_
 _symmetry_equiv_pos_site_id
 _symmetry_equiv_pos_as_xyz
  1  'x, y, z'
loop_
 _atom_site_type_symbol
 _atom_site_label
 _atom_site_symmetry_multiplicity
 _atom_site_fract_x
 _atom_site_fract_y
 _atom_site_fract_z
 _atom_site_occupancy
 _atom_site_hle17_bader_spin_density
 _atom_site_hle17_ddec_charge
 _atom_site_hle17_ddec_spin_density
 _atom_site_hle17_ddec_sum_bond_order
 _atom_site_hle17_magmom
 _atom_site_hse06_10hf_bader_spin_density
 _atom_site_hse06_10hf_ddec_charge
 _atom_site_hse06_10hf_ddec_spin_density
 _atom_site_hse06_10hf_ddec_sum_bond_order
 _atom_site_hse06_10hf_magmom
 _atom_site_hse06_bader_spin_density
 _atom_site_hse06_ddec_charge
 _atom_site_hse06_ddec_spin_density
 _atom_site_hse06_ddec_sum_bond_order
 _atom_site_hse06_magmom
 _atom_site_pbe_bader_spin_density
 _atom_site_pbe_cm5_charge
 _atom_site_pbe_ddec_charge
 _atom_site_pbe_ddec_spin_density
 _atom_site_pbe_ddec_sum_bond_order
 _atom_site_pbe_magmom
Zn  Zn0  1  0.07140639  0.65225059  0.80151544  1  0  1.041833  0  1.833596  0  0  0.858328  0  2.295389  0  0  0.907228  0  2.240044  0  0  0.69666  0.824138  0  2.33336  0
Zn  Zn1  1  0.92858804  0.34774518  0.19848320  1  0  1.041827  0  1.83355  0  0  0.858337  0  2.295343  0  0  0.907234  0  2.240001  0  0  0.696664  0.82415  0  2.333313  0
Zn  Zn2  1  0.72256394  0.03639520  0.90809664  1  0  1.170839  0  1.697199  0  0  0.997724  0  2.151066  0  0  1.04845  0  2.08922  0  0  0.679199  0.961767  0  2.193858  0
Zn  Zn3  1  0.27743721  0.96360408  0.09190742  1  0  1.170878  0  1.697174  0  0  0.997755  0  2.151103  0  0  1.048472  0  2.089257  0  0  0.679238  0.961797  0  2.193891  0
H  H4  1  0.11762607  0.02964335  0.79347526  1  0  0.434695  0  0.868807  0  0  0.403399  0  0.931914  0  0  0.414519  0  0.915981  0  0  0.291027  0.395552  0  0.943146  0
H  H5  1  0.88237926  0.97035768  0.20652767  1  0  0.434641  0  0.868906  0  0  0.403398  0  0.931938  0  0  0.414521  0  0.916002  0  0  0.291028  0.395547  0  0.943175  0
H  H6  1  0.50189241  0.27910543  0.72788246  1  0  0.079508  0  0.940041  0  0  0.083906  0  1.008115  0  0  0.08706  0  1.005483  0  0  0.112031  0.081646  0  1.010123  0
H  H7  1  0.49810640  0.72089648  0.27211798  1  0  0.079545  0  0.94008  0  0  0.083944  0  1.008138  0  0  0.087099  0  1.005506  0  0  0.112064  0.081684  0  1.010146  0
H  H8  1  0.12592273  0.26311476  0.86965280  1  0  0.111201  0  0.907387  0  0  0.121418  0  0.962023  0  0  0.124226  0  0.960852  0  0  0.115001  0.119347  0  0.96312  0
H  H9  1  0.87408429  0.73687572  0.13034866  1  0  0.111253  0  0.907378  0  0  0.121476  0  0.961998  0  0  0.124285  0  0.960829  0  0  0.115035  0.119408  0  0.96309  0
H  H10  1  0.25675092  0.39300222  0.01206226  1  0  0.127553  0  0.917888  0  0  0.135147  0  0.97756  0  0  0.138643  0  0.975407  0  0  0.117582  0.132606  0  0.979196  0
H  H11  1  0.74324347  0.60699355  0.98794014  1  0  0.127525  0  0.917881  0  0  0.135135  0  0.977496  0  0  0.138631  0  0.97534  0  0  0.117571  0.132595  0  0.979133  0
H  H12  1  0.61409242  0.39031017  0.92161564  1  0  0.08889  0  0.887586  0  0  0.096829  0  0.944296  0  0  0.099613  0  0.941769  0  0  0.11915  0.094782  0  0.946344  0
H  H13  1  0.38589613  0.60969440  0.07838635  1  0  0.088896  0  0.887637  0  0  0.096813  0  0.944341  0  0  0.099593  0  0.941819  0  0  0.119141  0.094766  0  0.94639  0
H  H14  1  0.70333083  0.51612442  0.74166446  1  0  0.093148  0  0.921003  0  0  0.101365  0  0.982804  0  0  0.104078  0  0.980095  0  0  0.122002  0.099298  0  0.98485  0
H  H15  1  0.29666459  0.48387838  0.25833248  1  0  0.093182  0  0.920948  0  0  0.101404  0  0.982756  0  0  0.104118  0  0.980046  0  0  0.12201  0.099336  0  0.984801  0
H  H16  1  0.56025558  0.49220823  0.58383075  1  0  0.109371  0  0.965136  0  0  0.119841  0  1.026303  0  0  0.122778  0  1.025401  0  0  0.107587  0.117749  0  1.027057  0
H  H17  1  0.43974511  0.50779280  0.41616578  1  0  0.109345  0  0.965171  0  0  0.119806  0  1.026353  0  0  0.122745  0  1.025446  0  0  0.107574  0.117713  0  1.027107  0
H  H18  1  0.70218152  0.59474111  0.42191743  1  0  0.10778  0  0.952926  0  0  0.117772  0  1.016415  0  0  0.120891  0  1.013931  0  0  0.107845  0.115519  0  1.018155  0
H  H19  1  0.29781650  0.40526344  0.57808002  1  0  0.107832  0  0.95289  0  0  0.117798  0  1.016403  0  0  0.120917  0  1.013918  0  0  0.107868  0.115545  0  1.018142  0
H  H20  1  0.92635077  0.74328965  0.34264711  1  0  0.116716  0  0.956915  0  0  0.126315  0  1.016295  0  0  0.129842  0  1.014197  0  0  0.106727  0.123596  0  1.018098  0
H  H21  1  0.07365121  0.25671226  0.65735005  1  0  0.116626  0  0.956976  0  0  0.126267  0  1.016317  0  0  0.129795  0  1.014218  0  0  0.106693  0.123545  0  1.018125  0
H  H22  1  0.20505977  0.86018514  0.35451185  1  0  0.108385  0  0.947984  0  0  0.121418  0  1.003454  0  0  0.123812  0  1.003  0  0  0.109229  0.119601  0  1.003954  0
H  H23  1  0.79494533  0.13981676  0.64548732  1  0  0.108354  0  0.947934  0  0  0.121373  0  1.003427  0  0  0.123767  0  1.002973  0  0  0.10922  0.119558  0  1.003928  0
H  H24  1  0.48885193  0.90855595  0.45169505  1  0  0.105111  0  0.957852  0  0  0.115024  0  1.021003  0  0  0.117543  0  1.019921  0  0  0.109345  0.113192  0  1.021762  0
H  H25  1  0.51114114  0.09144421  0.54830438  1  0  0.10512  0  0.957886  0  0  0.115034  0  1.021031  0  0  0.117553  0  1.01995  0  0  0.10936  0.113198  0  1.021795  0
H  H26  1  0.61741699  0.90709345  0.62061181  1  0  0.112565  0  0.936052  0  0  0.124459  0  0.991021  0  0  0.127551  0  0.990103  0  0  0.112027  0.122232  0  0.9919  0
H  H27  1  0.38257581  0.09290760  0.37938688  1  0  0.11254  0  0.936063  0  0  0.12441  0  0.991054  0  0  0.127506  0  0.990136  0  0  0.112012  0.122182  0  0.991932  0
H  H28  1  0.44337238  0.80203483  0.76675169  1  0  0.092663  0  0.934824  0  0  0.099841  0  0.999005  0  0  0.102206  0  0.996742  0  0  0.122699  0.097965  0  1.000846  0
H  H29  1  0.55662513  0.19796621  0.23324887  1  0  0.092633  0  0.934837  0  0  0.099806  0  0.999039  0  0  0.102171  0  0.996774  0  0  0.122716  0.097931  0  1.00088  0
H  H30  1  0.10937158  0.93190750  0.88354032  1  0  0.431899  0  0.869285  0  0  0.398821  0  0.936067  0  0  0.409937  0  0.919907  0  0  0.293126  0.39093  0  0.947545  0
H  H31  1  0.89063347  0.06809440  0.11646413  1  0  0.431893  0  0.869293  0  0  0.398806  0  0.936091  0  0  0.409927  0  0.919923  0  0  0.293126  0.390915  0  0.94757  0
C  C32  1  0.46288651  0.23200768  0.79958366  1  0  0.035796  0  3.60425  0  0  0.009851  0  3.854403  0  0  0.012189  0  3.859794  0  0  -0.00843  0.00821  0  3.850656  0
C  C33  1  0.53711125  0.76799248  0.20041765  1  0  0.035793  0  3.604201  0  0  0.009889  0  3.854265  0  0  0.012231  0  3.859648  0  0  -0.00844  0.008243  0  3.850535  0
C  C34  1  0.26706173  0.30526364  0.86525165  1  0  -0.14544  0  3.580512  0  0  -0.157212  0  3.818552  0  0  -0.162012  0  3.829214  0  0  -0.081029  -0.153936  0  3.811302  0
C  C35  1  0.73293951  0.69473036  0.13474872  1  0  -0.145583  0  3.580564  0  0  -0.157405  0  3.81865  0  0  -0.16221  0  3.829312  0  0  -0.081073  -0.154135  0  3.811403  0
C  C36  1  0.33192806  0.31045857  0.97186213  1  0  -0.178636  0  3.576116  0  0  -0.193389  0  3.815895  0  0  -0.199006  0  3.826163  0  0  -0.082622  -0.189401  0  3.80882  0
C  C37  1  0.66807050  0.68953895  0.02814066  1  0  -0.178564  0  3.576124  0  0  -0.19323  0  3.815716  0  0  -0.198842  0  3.825984  0  0  -0.082583  -0.189242  0  3.80864  0
C  C38  1  0.57685886  0.30255718  0.94240006  1  0  0.057606  0  3.56864  0  0  0.033554  0  3.819981  0  0  0.035972  0  3.825202  0  0  0.005595  0.031671  0  3.816742  0
C  C39  1  0.42314151  0.69744473  0.05760025  1  0  0.057466  0  3.568708  0  0  0.033476  0  3.819824  0  0  0.035892  0  3.825055  0  0  0.005542  0.031593  0  3.816588  0
C  C40  1  0.43009260  0.10971633  0.77283891  1  0  0.632548  0  3.908681  0  0  0.574207  0  4.226303  0  0  0.607321  0  4.218558  0  0  0.206419  0.551627  0  4.230921  0
C  C41  1  0.56992116  0.89028293  0.22716110  1  0  0.632506  0  3.908761  0  0  0.574167  0  4.226372  0  0  0.60728  0  4.218621  0  0  0.206381  0.551589  0  4.230985  0
C  C42  1  0.21257873  0.42921738  0.82281740  1  0  0.65529  0  3.856059  0  0  0.607732  0  4.156969  0  0  0.64035  0  4.151875  0  0  0.198154  0.585622  0  4.159536  0
C  C43  1  0.78741093  0.57077840  0.17718690  1  0  0.655378  0  3.85584  0  0  0.607767  0  4.15681  0  0  0.640386  0  4.151717  0  0  0.198121  0.585661  0  4.159377  0
C  C44  1  0.27533547  0.20780205  0.03896197  1  0  0.701904  0  3.785602  0  0  0.646904  0  4.085627  0  0  0.681308  0  4.078831  0  0  0.224143  0.623326  0  4.08973  0
C  C45  1  0.72466755  0.79219635  0.96103969  1  0  0.701829  0  3.785732  0  0  0.646776  0  4.085783  0  0  0.681179  0  4.078989  0  0  0.224109  0.623198  0  4.089877  0
C  C46  1  0.70182861  0.25412305  0.02645271  1  0  0.660128  0  3.841697  0  0  0.602772  0  4.148142  0  0  0.635786  0  4.141669  0  0  0.219999  0.580306  0  4.151983  0
C  C47  1  0.29816807  0.74588063  0.97354938  1  0  0.659894  0  3.841746  0  0  0.602593  0  4.148074  0  0  0.635597  0  4.141605  0  0  0.219896  0.580127  0  4.151912  0
C  C48  1  0.76311432  0.55936129  0.67162542  1  0  0.164693  0  3.65859  0  0  0.130139  0  3.918783  0  0  0.138649  0  3.934359  0  0  0.066194  0.124636  0  3.908254  0
C  C49  1  0.23688188  0.44063887  0.32837451  1  0  0.164635  0  3.658732  0  0  0.130049  0  3.918951  0  0  0.138557  0  3.934532  0  0  0.066164  0.124548  0  3.908422  0
C  C50  1  0.68214735  0.54669207  0.58139850  1  0  -0.110097  0  3.719399  0  0  -0.128459  0  3.982986  0  0  -0.134845  0  4.00444  0  0  -0.082149  -0.124434  0  3.96865  0
C  C51  1  0.31785095  0.45331160  0.41859819  1  0  -0.110173  0  3.71957  0  0  -0.128513  0  3.983149  0  0  -0.1349  0  4.004605  0  0  -0.0822  -0.124487  0  3.968809  0
C  C52  1  0.75789670  0.60383830  0.49401915  1  0  -0.052964  0  3.678479  0  0  -0.080549  0  3.93449  0  0  -0.078541  0  3.953057  0  0  -0.065401  -0.08156  0  3.92183  0
C  C53  1  0.24210315  0.39616536  0.50597966  1  0  -0.052947  0  3.678575  0  0  -0.080529  0  3.93456  0  0  -0.07852  0  3.953131  0  0  -0.065384  -0.081536  0  3.921896  0
C  C54  1  0.91437721  0.67479631  0.49711504  1  0  0.022159  0  3.817044  0  0  0.038569  0  4.048203  0  0  0.035561  0  4.074056  0  0  -0.0009  0.04045  0  4.030871  0
C  C55  1  0.08562976  0.32520471  0.50288173  1  0  0.022243  0  3.817087  0  0  0.03871  0  4.048165  0  0  0.035701  0  4.074018  0  0  -0.000795  0.040587  0  4.030837  0
C  C56  1  0.99548865  0.74136935  0.41203202  1  0  -0.082429  0  3.71225  0  0  -0.105457  0  3.965494  0  0  -0.108142  0  3.987439  0  0  -0.07845  -0.103649  0  3.950801  0
C  C57  1  0.00451572  0.25862992  0.58796424  1  0  -0.082405  0  3.71226  0  0  -0.105495  0  3.965505  0  0  -0.108177  0  3.987444  0  0  -0.078464  -0.103681  0  3.950815  0
C  C58  1  0.15024049  0.80658974  0.41874937  1  0  -0.099189  0  3.71945  0  0  -0.119105  0  3.968501  0  0  -0.122571  0  3.991381  0  0  -0.083325  -0.116625  0  3.953122  0
C  C59  1  0.84976204  0.19341041  0.58124627  1  0  -0.099195  0  3.71953  0  0  -0.119098  0  3.968604  0  0  -0.122567  0  3.991491  0  0  -0.083376  -0.116619  0  3.953222  0
C  C60  1  0.24102478  0.80739077  0.50973443  1  0  0.024862  0  3.802917  0  0  0.041348  0  4.033257  0  0  0.038647  0  4.058334  0  0  -0.001656  0.042817  0  4.016578  0
C  C61  1  0.75897458  0.19260938  0.49026449  1  0  0.02493  0  3.803007  0  0  0.04139  0  4.03335  0  0  0.03869  0  4.058427  0  0  -0.001592  0.042859  0  4.016669  0
C  C62  1  0.41296819  0.86525119  0.51825779  1  0  -0.049763  0  3.669033  0  0  -0.073175  0  3.916413  0  0  -0.070768  0  3.93392  0  0  -0.061697  -0.074494  0  3.904612  0
C  C63  1  0.58702644  0.13474898  0.48174226  1  0  -0.049833  0  3.669172  0  0  -0.073238  0  3.916535  0  0  -0.070832  0  3.934044  0  0  -0.061757  -0.074553  0  3.904729  0
C  C64  1  0.48653265  0.86325093  0.61004548  1  0  -0.096492  0  3.715953  0  0  -0.116138  0  3.980289  0  0  -0.121683  0  3.998891  0  0  -0.075631  -0.11283  0  3.968125  0
C  C65  1  0.51346355  0.13674924  0.38995520  1  0  -0.096432  0  3.715923  0  0  -0.116045  0  3.980227  0  0  -0.121593  0  3.998832  0  0  -0.075576  -0.112736  0  3.968059  0
C  C66  1  0.39004151  0.80332991  0.69328946  1  0  0.172611  0  3.653412  0  0  0.13544  0  3.914811  0  0  0.145347  0  3.928828  0  0  0.069063  0.128928  0  3.905565  0
C  C67  1  0.60995572  0.19667201  0.30671110  1  0  0.172724  0  3.653343  0  0  0.135535  0  3.914749  0  0  0.145444  0  3.928761  0  0  0.069034  0.129024  0  3.905504  0
C  C68  1  0.15759659  0.74603121  0.59672969  1  0  0.136354  0  3.742296  0  0  0.129567  0  3.973774  0  0  0.133746  0  3.996265  0  0  0.119409  0.126664  0  3.958631  0
C  C69  1  0.84240461  0.25396806  0.40326985  1  0  0.136379  0  3.742359  0  0  0.129645  0  3.973771  0  0  0.133824  0  3.996257  0  0  0.119387  0.126744  0  3.958628  0
C  C70  1  0.99037057  0.67998568  0.59060322  1  0  0.12352  0  3.771089  0  0  0.118128  0  4.005742  0  0  0.12196  0  4.028083  0  0  0.115006  0.115631  0  3.990665  0
C  C71  1  0.00962936  0.32001272  0.40939267  1  0  0.123392  0  3.771416  0  0  0.117965  0  4.006058  0  0  0.121798  0  4.028399  0  0  0.114973  0.115471  0  3.990984  0
N  N72  1  0.91405839  0.62330794  0.67560527  1  0  -0.352715  0  3.277708  0  0  -0.282791  0  3.544349  0  0  -0.300925  0  3.560592  0  0  -0.314279  -0.270521  0  3.533235  0
N  N73  1  0.08593941  0.37669221  0.32439302  1  0  -0.352588  0  3.277893  0  0  -0.28266  0  3.544566  0  0  -0.30079  0  3.560805  0  0  -0.314214  -0.270399  0  3.53346  0
N  N74  1  0.23173724  0.74557376  0.68639212  1  0  -0.350458  0  3.294648  0  0  -0.273049  0  3.562425  0  0  -0.29237  0  3.577252  0  0  -0.319272  -0.259894  0  3.552326  0
N  N75  1  0.76825896  0.25442640  0.31360856  1  0  -0.350558  0  3.294711  0  0  -0.273155  0  3.562465  0  0  -0.292476  0  3.57729  0  0  -0.31929  -0.26  0  3.552366  0
O  O76  1  0.63980354  0.22524799  0.85463487  1  0  -0.339034  0  2.273079  0  0  -0.269722  0  2.515657  0  0  -0.285495  0  2.512872  0  0  -0.208446  -0.258547  0  2.517399  0
O  O77  1  0.36020101  0.77475567  0.14536583  1  0  -0.339014  0  2.273046  0  0  -0.269721  0  2.515578  0  0  -0.285486  0  2.51278  0  0  -0.208446  -0.258548  0  2.517322  0
O  O78  1  0.02342328  0.98203374  0.83850170  1  0  -0.851044  0  1.931883  0  0  -0.78656  0  2.158544  0  0  -0.808936  0  2.119734  0  0  -0.582583  -0.770804  0  2.185446  0
O  O79  1  0.97657993  0.01796905  0.16150289  1  0  -0.850988  0  1.931911  0  0  -0.786541  0  2.158514  0  0  -0.808917  0  2.119698  0  0  -0.582602  -0.770807  0  2.185468  0
O  O80  1  0.27603313  0.10711802  0.72652420  1  0  -0.619306  0  1.975924  0  0  -0.568531  0  2.20303  0  0  -0.593093  0  2.194912  0  0  -0.319491  -0.551154  0  2.208077  0
O  O81  1  0.72398408  0.89288035  0.27347253  1  0  -0.619239  0  1.975955  0  0  -0.568512  0  2.203083  0  0  -0.593073  0  2.194959  0  0  -0.319516  -0.551131  0  2.208133  0
O  O82  1  0.55824417  0.01960428  0.79483563  1  0  -0.624968  0  2.051099  0  0  -0.560239  0  2.321007  0  0  -0.588  0  2.306704  0  0  -0.316469  -0.540726  0  2.33016  0
O  O83  1  0.44176644  0.98039498  0.20516539  1  0  -0.625003  0  2.05125  0  0  -0.560257  0  2.321131  0  0  -0.588035  0  2.30686  0  0  -0.316421  -0.54074  0  2.330277  0
O  O84  1  0.33326116  0.46332438  0.74746910  1  0  -0.628613  0  1.939666  0  0  -0.58138  0  2.178432  0  0  -0.604585  0  2.169148  0  0  -0.319802  -0.56493  0  2.184172  0
O  O85  1  0.66671857  0.53667318  0.25253071  1  0  -0.628664  0  1.939602  0  0  -0.581395  0  2.178382  0  0  -0.604604  0  2.169105  0  0  -0.319776  -0.564935  0  2.184094  0
O  O86  1  0.04192495  0.49394892  0.86939620  1  0  -0.630073  0  1.987831  0  0  -0.566775  0  2.24462  0  0  -0.595561  0  2.23329  0  0  -0.328398  -0.546601  0  2.251566  0
O  O87  1  0.95807226  0.50604773  0.13061123  1  0  -0.629985  0  1.987699  0  0  -0.56674  0  2.244612  0  0  -0.595526  0  2.233279  0  0  -0.328344  -0.546565  0  2.251553  0
O  O88  1  0.17368806  0.22663579  0.12874616  1  0  -0.607076  0  2.084574  0  0  -0.540876  0  2.359669  0  0  -0.566602  0  2.343945  0  0  -0.308445  -0.522993  0  2.370032  0
O  O89  1  0.82630692  0.77335822  0.87125171  1  0  -0.607081  0  2.084513  0  0  -0.540886  0  2.359642  0  0  -0.566615  0  2.343919  0  0  -0.30847  -0.523003  0  2.37  0
O  O90  1  0.34096684  0.10362633  0.00106603  1  0  -0.657591  0  2.071436  0  0  -0.578663  0  2.343019  0  0  -0.609076  0  2.328827  0  0  -0.304479  -0.557472  0  2.352276  0
O  O91  1  0.65904984  0.89636853  0.99893457  1  0  -0.657467  0  2.071576  0  0  -0.578527  0  2.343146  0  0  -0.608939  0  2.328963  0  0  -0.304439  -0.557362  0  2.352448  0
O  O92  1  0.78072324  0.14412457  0.02270453  1  0  -0.646601  0  2.086722  0  0  -0.568781  0  2.338945  0  0  -0.597991  0  2.325734  0  0  -0.299397  -0.548379  0  2.347502  0
O  O93  1  0.21927972  0.85587910  0.97729780  1  0  -0.64643  0  2.086652  0  0  -0.568697  0  2.338932  0  0  -0.597878  0  2.325709  0  0  -0.299355  -0.548294  0  2.347483  0
O  O94  1  0.71251490  0.32648128  0.09397628  1  0  -0.597193  0  2.017536  0  0  -0.538981  0  2.278689  0  0  -0.565023  0  2.267013  0  0  -0.302868  -0.520854  0  2.286149  0
O  O95  1  0.28747419  0.67352153  0.90602569  1  0  -0.597055  0  2.017515  0  0  -0.538871  0  2.278631  0  0  -0.564923  0  2.26698  0  0  -0.302817  -0.520746  0  2.286094  0
