# generated using pymatgen
data_NiH22C18(NO2)4
_symmetry_space_group_name_H-M   'P 1'
_cell_length_a   7.50267097
_cell_length_b   8.27211336
_cell_length_c   9.76078328
_cell_angle_alpha   101.00151597
_cell_angle_beta   98.53470558
_cell_angle_gamma   120.24647162
_symmetry_Int_Tables_number   1
_chemical_formula_structural   NiH22C18(NO2)4
_chemical_formula_sum   'Ni1 H22 C18 N4 O8'
_cell_volume   491.87563088
_cell_formula_units_Z   1
loop_
 _symmetry_equiv_pos_site_id
 _symmetry_equiv_pos_as_xyz
  1  'x, y, z'
loop_
 _atom_site_type_symbol
 _atom_site_label
 _atom_site_symmetry_multiplicity
 _atom_site_fract_x
 _atom_site_fract_y
 _atom_site_fract_z
 _atom_site_occupancy
 _atom_site_hle17_ddec_charge
 _atom_site_hle17_ddec_spin_density
 _atom_site_hle17_ddec_sum_bond_order
 _atom_site_hle17_magmom
 _atom_site_hse06_10hf_ddec_charge
 _atom_site_hse06_10hf_ddec_spin_density
 _atom_site_hse06_10hf_ddec_sum_bond_order
 _atom_site_hse06_10hf_magmom
 _atom_site_hse06_ddec_charge
 _atom_site_hse06_ddec_spin_density
 _atom_site_hse06_ddec_sum_bond_order
 _atom_site_hse06_magmom
 _atom_site_pbe_cm5_charge
 _atom_site_pbe_ddec_charge
 _atom_site_pbe_ddec_spin_density
 _atom_site_pbe_ddec_sum_bond_order
 _atom_site_pbe_magmom
Ni  Ni0  1  0.49999903  0.49999737  0.50000031  1  0.676298  0.012043  2.054069  0.01  0.697746  0.02574  2.470736  0.025  0.830941  0.024638  2.361881  0.026  0.570713  0.611357  0.012658  2.545912  0.012
H  H1  1  0.56038173  0.79366526  0.88356444  1  0.295388  5.6e-05  0.900428  0.0  0.281683  0.000116  0.957917  0.0  0.288738  0.000109  0.953005  0.0  0.316943  0.2767  6.2e-05  0.961507  0.0
H  H2  1  0.43961883  0.20633392  0.11643813  1  0.295409  5.5e-05  0.900416  0.0  0.28165  0.000116  0.95796  0.0  0.288705  0.000109  0.953048  0.0  0.31695  0.276667  6.2e-05  0.961539  0.0
H  H3  1  0.28903349  0.64246298  0.47834111  1  0.315224  4.6e-05  0.873516  0.0  0.307522  -2.8e-05  0.925922  0.0  0.313149  5.3e-05  0.92509  0.0  0.312964  0.303596  -3.6e-05  0.92655  0.0
H  H4  1  0.71096880  0.35753922  0.52166415  1  0.315219  4.8e-05  0.873535  0.0  0.307478  -2.8e-05  0.925975  0.0  0.313103  5.3e-05  0.925144  0.0  0.312941  0.303554  -3.6e-05  0.926598  0.0
H  H5  1  0.37087929  0.63683473  0.32783611  1  0.337152  1.6e-05  0.883917  0.0  0.323692  -7.7e-05  0.942397  0.0  0.332036  -3.5e-05  0.937559  0.0  0.307822  0.3177  -4e-05  0.945957  0.0
H  H6  1  0.62913123  0.36317498  0.67217010  1  0.337122  2e-05  0.883934  0.0  0.323694  -7.7e-05  0.942372  0.0  0.332028  -3.4e-05  0.93755  0.0  0.307829  0.317715  -4e-05  0.945915  0.0
H  H7  1  0.77518031  0.86981006  0.49698311  1  0.391859  -1e-06  0.920778  0.0  0.359255  1.9e-05  0.992804  0.0  0.368603  1e-05  0.978684  0.0  0.272329  0.352406  1.6e-05  1.003257  0.0
H  H8  1  0.22479710  0.13017929  0.50301048  1  0.391866  -3e-06  0.92073  0.0  0.359277  1.9e-05  0.992753  0.0  0.368623  1e-05  0.978637  0.0  0.272355  0.352426  1.6e-05  1.003208  0.0
H  H9  1  0.89241913  0.05219722  0.63241229  1  0.407898  -4e-06  0.890172  0.0  0.38683  -2.5e-05  0.938646  0.0  0.398377  -3.4e-05  0.921782  0.0  0.277938  0.378767  -6e-06  0.950425  0.0
H  H10  1  0.10755447  0.94779489  0.36758337  1  0.407917  -4e-06  0.89013  0.0  0.386842  -2.5e-05  0.938619  0.0  0.39839  -3.4e-05  0.921754  0.0  0.277978  0.37878  -6e-06  0.950396  0.0
H  H11  1  0.13856752  0.51122932  0.86251401  1  0.101689  -5.6e-05  0.914614  0.0  0.118021  -0.000113  0.971693  0.0  0.118957  -0.000115  0.971771  0.0  0.11535  0.117184  -4.8e-05  0.971752  0.0
H  H12  1  0.86143268  0.48875894  0.13750327  1  0.10166  -5.2e-05  0.914565  0.0  0.11802  -0.000113  0.971672  0.0  0.118956  -0.000115  0.971747  0.0  0.115363  0.117181  -4.8e-05  0.971736  0.0
H  H13  1  0.29119527  0.42761576  0.94056794  1  0.094423  9e-06  0.938185  0.0  0.109111  4.4e-05  0.999417  0.0  0.109923  5.4e-05  0.999093  0.0  0.11552  0.108615  9e-06  0.999557  0.0
H  H14  1  0.70882675  0.57238310  0.05943986  1  0.094387  7e-06  0.93819  0.0  0.109072  4.4e-05  0.999478  0.0  0.109863  5.4e-05  0.999177  0.0  0.115497  0.108582  9e-06  0.99961  0.0
H  H15  1  0.63332233  0.02942148  0.36289429  1  0.111065  -3e-05  0.951486  0.0  0.118678  5.3e-05  1.013499  0.0  0.122421  5.1e-05  1.00947  0.0  0.108319  0.115888  2.7e-05  1.016606  0.0
H  H16  1  0.36667202  0.97058140  0.63709898  1  0.111065  -2.6e-05  0.951464  0.0  0.118656  5.3e-05  1.013514  0.0  0.122397  5.1e-05  1.009485  0.0  0.108306  0.115879  2.7e-05  1.016611  0.0
H  H17  1  0.97740753  0.34542344  0.50089203  1  0.099585  6.4e-05  0.979191  0.0  0.1095  -3e-05  1.041989  0.0  0.1124  -3.3e-05  1.041491  0.0  0.104859  0.107364  -1.7e-05  1.042633  0.0
H  H18  1  0.02258833  0.65458682  0.49910661  1  0.09953  6.1e-05  0.97933  0.0  0.109505  -3e-05  1.042074  0.0  0.112353  -3.3e-05  1.041645  0.0  0.104854  0.107393  -1.7e-05  1.042678  0.0
H  H19  1  0.18230791  0.36504960  0.11340252  1  0.10618  7.3e-05  0.984056  0.0  0.111245  -7e-06  1.053484  0.0  0.115494  -4e-06  1.050953  0.0  0.102642  0.108133  -5e-06  1.055528  0.0
H  H20  1  0.81769902  0.63495397  0.88659522  1  0.10618  7.5e-05  0.984069  0.0  0.111263  -7e-06  1.053456  0.0  0.115515  -4e-06  1.05092  0.0  0.102675  0.108154  -5e-06  1.055504  0.0
H  H21  1  0.85023049  0.04340455  0.97647078  1  0.093035  -2.4e-05  0.948472  0.0  0.107574  3.6e-05  1.002786  0.0  0.109973  4.6e-05  1.001607  0.0  0.107487  0.105613  1.3e-05  1.004051  0.0
H  H22  1  0.14978372  0.95660229  0.02353025  1  0.093012  -2.9e-05  0.948579  0.0  0.107583  3.6e-05  1.00285  0.0  0.10998  4.6e-05  1.001677  0.0  0.107499  0.105621  1.3e-05  1.004112  0.0
C  C23  1  0.30379841  0.43884751  0.72614044  1  0.652969  -0.000445  3.850864  -0.001  0.606208  -0.000202  4.164043  -0.001  0.644709  -0.000217  4.157931  -0.001  0.214551  0.579601  -0.000131  4.16769  0.0
C  C24  1  0.69619133  0.56114685  0.27385927  1  0.652824  -0.00044  3.850789  -0.001  0.606191  -0.000202  4.163868  -0.001  0.644684  -0.000216  4.157764  -0.001  0.214624  0.579583  -0.000132  4.167524  0.0
C  C25  1  0.29358712  0.52270861  0.87529208  1  -0.086015  0.00014  3.675287  0.0  -0.14594  7.2e-05  3.932771  0.0  -0.145623  0.000141  3.938951  0.0  -0.056667  -0.145649  1.3e-05  3.928102  0.0
C  C26  1  0.70641015  0.47727750  0.12470715  1  -0.085763  0.000135  3.675091  0.0  -0.145846  7.1e-05  3.932758  0.0  -0.145512  0.000141  3.938946  0.0  -0.056651  -0.145556  1.3e-05  3.928084  0.0
C  C27  1  0.51794484  0.81017119  0.09123444  1  0.537303  -4.4e-05  3.861643  0.0  0.487263  -0.000299  4.15802  0.0  0.516504  -0.000142  4.158549  0.0  0.236603  0.46758  -0.000279  4.157062  0.0
C  C28  1  0.48206113  0.18982814  0.90876563  1  0.53743  -4.5e-05  3.861583  0.0  0.487367  -0.000299  4.157936  0.0  0.516612  -0.000142  4.158456  0.0  0.236641  0.467679  -0.000279  4.156994  0.0
C  C29  1  0.71645857  0.01127134  0.16101644  1  -0.071765  -0.004198  3.775483  -0.003  -0.058658  -0.007037  4.023794  -0.005  -0.068923  -0.008489  4.049267  -0.007  -0.022479  -0.051991  -0.002968  4.006456  -0.002
C  C30  1  0.28355166  0.98873357  0.83897467  1  -0.071959  -0.004215  3.775921  -0.003  -0.058775  -0.007036  4.024155  -0.005  -0.069045  -0.008488  4.049629  -0.007  -0.022536  -0.052109  -0.002968  4.006824  -0.002
C  C31  1  0.75336167  0.10305419  0.30794447  1  -0.028805  0.002055  3.709833  0.002  -0.053307  0.002305  3.960927  0.002  -0.049254  0.003992  3.978722  0.004  -0.075321  -0.055667  0.000572  3.948754  0.001
C  C32  1  0.24664409  0.89695216  0.69205255  1  -0.028685  0.002066  3.709974  0.002  -0.053206  0.002305  3.961068  0.002  -0.049141  0.00399  3.978841  0.004  -0.075275  -0.055575  0.000572  3.948901  0.001
C  C33  1  0.94386106  0.28241313  0.38452071  1  -0.173652  -0.003837  3.736545  -0.003  -0.198339  -0.006308  4.000367  -0.005  -0.20717  -0.008186  4.022543  -0.006  -0.095868  -0.192608  -0.002401  3.985951  -0.002
C  C34  1  0.05614007  0.71759450  0.61547807  1  -0.173582  -0.003862  3.736529  -0.003  -0.198286  -0.006309  4.000351  -0.005  -0.207086  -0.008188  4.022556  -0.006  -0.095784  -0.192561  -0.002402  3.985931  -0.002
C  C35  1  0.10044546  0.37612342  0.31522365  1  0.274376  0.002189  3.749681  0.002  0.269495  0.003798  4.007977  0.004  0.279881  0.006557  4.031711  0.007  0.090326  0.262264  0.00086  3.992435  0.001
C  C36  1  0.89956204  0.62388594  0.68477605  1  0.274471  0.002213  3.749643  0.002  0.269483  0.003798  4.0081  0.004  0.27987  0.006558  4.031822  0.007  0.090322  0.262252  0.00086  3.992568  0.001
C  C37  1  0.06204706  0.28881172  0.16714925  1  -0.150168  -0.003824  3.707461  -0.003  -0.172951  -0.006281  3.967357  -0.005  -0.180163  -0.00814  3.98733  -0.006  -0.092341  -0.168248  -0.002332  3.954166  -0.002
C  C38  1  0.93795774  0.71119039  0.83285010  1  -0.150158  -0.003858  3.707251  -0.003  -0.172918  -0.00628  3.967174  -0.005  -0.180129  -0.00814  3.987147  -0.006  -0.092363  -0.168221  -0.002332  3.95399  -0.002
C  C39  1  0.87216964  0.10777932  0.09105250  1  -0.061185  0.002073  3.735482  0.002  -0.085244  0.002338  3.988484  0.002  -0.082578  0.003986  4.008857  0.004  -0.082307  -0.086741  0.000593  3.974696  0.001
C  C40  1  0.12783976  0.89222866  0.90894616  1  -0.061163  0.002109  3.735503  0.002  -0.085275  0.002338  3.988492  0.002  -0.08261  0.003987  4.008867  0.004  -0.082308  -0.086769  0.000593  3.974702  0.001
N  N41  1  0.47423442  0.72290158  0.94788354  1  -0.419908  -0.000401  3.3764  0.0  -0.36478  -0.000793  3.628988  -0.001  -0.385951  -0.000802  3.639122  -0.001  -0.42559  -0.350537  -0.000365  3.621832  0.0
N  N42  1  0.52576268  0.27709158  0.05211367  1  -0.420011  -0.000398  3.376394  0.0  -0.364747  -0.000793  3.628987  -0.001  -0.385914  -0.000801  3.639112  -0.001  -0.425549  -0.3505  -0.000365  3.621827  0.0
N  N43  1  0.30249667  0.55573821  0.39585026  1  -0.579251  -0.004851  3.1794  -0.004  -0.558793  -0.008873  3.43295  -0.006  -0.601522  -0.010721  3.434268  -0.008  -0.591532  -0.530312  -0.003417  3.432852  -0.002
N  N44  1  0.69751242  0.44427140  0.60415477  1  -0.579318  -0.004867  3.179486  -0.004  -0.55878  -0.008872  3.433034  -0.006  -0.601511  -0.010723  3.43439  -0.008  -0.591565  -0.530298  -0.003417  3.432892  -0.002
O  O45  1  0.44181751  0.56814561  0.67684027  1  -0.567124  0.005446  2.139339  0.006  -0.531848  0.009291  2.429198  0.009  -0.584111  0.010719  2.418768  0.01  -0.30462  -0.495741  0.003888  2.435882  0.004
O  O46  1  0.55817011  0.43184009  0.32315894  1  -0.567076  0.005451  2.139156  0.006  -0.531873  0.009293  2.429003  0.009  -0.584132  0.01072  2.418572  0.01  -0.304674  -0.495766  0.003888  2.435688  0.004
O  O47  1  0.18172446  0.25775380  0.66323014  1  -0.61734  -0.000175  2.027726  0.0  -0.559668  -0.000355  2.250523  0.0  -0.588381  -0.000391  2.242861  0.0  -0.293284  -0.540044  -0.000138  2.255809  0.0
O  O48  1  0.81825399  0.74223986  0.33676318  1  -0.617295  -0.000181  2.027948  0.0  -0.559627  -0.000356  2.250676  0.0  -0.588338  -0.000393  2.243013  0.0  -0.293305  -0.540007  -0.000139  2.255966  0.0
O  O49  1  0.39711508  0.71986089  0.16272938  1  -0.571645  -0.000377  1.943224  0.0  -0.524544  -0.000749  2.164701  -0.001  -0.546006  -0.000877  2.158537  -0.001  -0.306165  -0.509652  -0.000391  2.168477  0.0
O  O50  1  0.60289987  0.28015455  0.83727201  1  -0.571733  -0.000381  1.943062  0.0  -0.524647  -0.000749  2.164533  -0.001  -0.546108  -0.000878  2.158361  -0.001  -0.306251  -0.50976  -0.000391  2.168325  0.0
O  O51  1  0.74769136  0.93658508  0.57826746  1  -0.829472  8.8e-05  1.744011  0.0  -0.79091  0.000234  1.885168  0.0  -0.80697  0.000149  1.852414  0.0  -0.622846  -0.779941  0.000194  1.909087  0.0
O  O52  1  0.25228402  0.06340554  0.42172406  1  -0.829467  9.1e-05  1.743863  0.0  -0.790947  0.000235  1.885102  0.0  -0.807006  0.00015  1.852348  0.0  -0.622917  -0.77998  0.000194  1.90903  0.0
