# generated using pymatgen
data_CuAg2H6C14(NO4)2
_symmetry_space_group_name_H-M   'P 1'
_cell_length_a   5.18295608
_cell_length_b   8.67508974
_cell_length_c   8.60953796
_cell_angle_alpha   107.26769189
_cell_angle_beta   94.18248392
_cell_angle_gamma   99.59719488
_symmetry_Int_Tables_number   1
_chemical_formula_structural   CuAg2H6C14(NO4)2
_chemical_formula_sum   'Cu1 Ag2 H6 C14 N2 O8'
_cell_volume   361.39205197
_cell_formula_units_Z   1
loop_
 _symmetry_equiv_pos_site_id
 _symmetry_equiv_pos_as_xyz
  1  'x, y, z'
loop_
 _atom_site_type_symbol
 _atom_site_label
 _atom_site_symmetry_multiplicity
 _atom_site_fract_x
 _atom_site_fract_y
 _atom_site_fract_z
 _atom_site_occupancy
 _atom_site_hle17_ddec_charge
 _atom_site_hle17_ddec_spin_density
 _atom_site_hle17_ddec_sum_bond_order
 _atom_site_hle17_magmom
 _atom_site_hse06_10hf_ddec_charge
 _atom_site_hse06_10hf_ddec_spin_density
 _atom_site_hse06_10hf_ddec_sum_bond_order
 _atom_site_hse06_10hf_magmom
 _atom_site_hse06_ddec_charge
 _atom_site_hse06_ddec_spin_density
 _atom_site_hse06_ddec_sum_bond_order
 _atom_site_hse06_magmom
 _atom_site_pbe_cm5_charge
 _atom_site_pbe_ddec_charge
 _atom_site_pbe_ddec_spin_density
 _atom_site_pbe_ddec_sum_bond_order
 _atom_site_pbe_magmom
Cu  Cu0  1  0.99999824  0.00000091  0.99999950  1  0.819327  0.682368  1.862057  0.502  0.795244  0.769273  2.256941  0.613  0.882428  0.833389  2.187688  0.695  0.754175  0.740548  0.721842  2.307169  0.558
Ag  Ag1  1  0.81837460  0.04570782  0.60872218  1  0.607415  0.001033  1.365141  0.001  0.481894  -0.000575  1.84374  0.0  0.519906  -0.000997  1.77533  0.0  0.407237  0.456005  0.00126  1.891297  0.001
Ag  Ag2  1  0.18162733  0.95429057  0.39127595  1  0.607424  0.001034  1.365142  0.001  0.481894  -0.000575  1.843755  0.0  0.519904  -0.000998  1.775346  0.0  0.407248  0.456008  0.00126  1.891314  0.001
H  H3  1  0.26085869  0.53667013  0.90035976  1  0.135029  0.000777  0.931336  0.001  0.142663  0.000629  0.990371  0.001  0.146616  0.000424  0.988484  0.001  0.118667  0.139734  0.000807  0.991859  0.001
H  H4  1  0.73913938  0.46332825  0.09963937  1  0.135074  0.000776  0.931314  0.001  0.142695  0.000629  0.990345  0.001  0.146647  0.000424  0.988459  0.001  0.118678  0.139768  0.000806  0.991834  0.001
H  H5  1  0.81732950  0.43674390  0.55371028  1  0.114238  0.00041  0.951186  0.0  0.123158  0.000397  1.01511  0.0  0.125897  0.0003  1.014174  0.0  0.112957  0.121098  0.000469  1.016024  0.001
H  H6  1  0.18267091  0.56325569  0.44629163  1  0.114238  0.000409  0.951178  0.0  0.12316  0.000397  1.015097  0.0  0.1259  0.0003  1.01416  0.0  0.112956  0.121099  0.000469  1.016011  0.001
H  H7  1  0.07575334  0.72880002  0.69426762  1  0.096679  0.000821  0.930241  0.002  0.104222  0.000763  0.995284  0.001  0.107051  0.000574  0.992178  0.001  0.12432  0.101969  0.000887  0.997701  0.002
H  H8  1  0.92424744  0.27120083  0.30573237  1  0.096692  0.000821  0.930225  0.002  0.10424  0.000763  0.995257  0.001  0.107068  0.000574  0.992151  0.001  0.124332  0.101989  0.000887  0.997675  0.002
C  C9  1  0.59755411  0.72820417  0.92558941  1  0.105141  -0.007778  3.71815  -0.005  0.112731  -0.002455  3.954918  -0.001  0.115171  -0.003732  3.974321  -0.002  0.114107  0.110704  -0.001507  3.942511  -0.001
C  C10  1  0.40244241  0.27179545  0.07440887  1  0.105184  -0.007786  3.718209  -0.005  0.112683  -0.002458  3.955061  -0.001  0.115125  -0.003733  3.974459  -0.002  0.114135  0.110661  -0.001507  3.942652  -0.001
C  C11  1  0.44133348  0.57307831  0.85219146  1  -0.104248  0.00494  3.663471  0.005  -0.134476  0.00212  3.905325  0.002  -0.137568  0.002159  3.923357  0.002  -0.063379  -0.132396  0.00205  3.893583  0.002
C  C12  1  0.55866536  0.42692256  0.14780613  1  -0.104369  0.004945  3.663557  0.005  -0.134528  0.002123  3.90538  0.002  -0.137619  0.002159  3.923411  0.002  -0.063396  -0.132448  0.00205  3.893642  0.002
C  C13  1  0.51957372  0.46573486  0.71586193  1  0.010704  -0.009727  3.675866  -0.006  0.032436  -0.003919  3.907388  -0.002  0.031167  -0.004544  3.924587  -0.003  0.011935  0.032846  -0.003352  3.896212  -0.002
C  C14  1  0.48042667  0.53426476  0.28413651  1  0.01076  -0.009736  3.675818  -0.006  0.032486  -0.003923  3.907301  -0.002  0.031216  -0.004543  3.9245  -0.003  0.01197  0.032895  -0.003351  3.896133  -0.002
C  C15  1  0.75190425  0.51935706  0.65810439  1  -0.083251  0.008226  3.646286  0.009  -0.11072  0.003754  3.896458  0.005  -0.113501  0.003487  3.913592  0.004  -0.065304  -0.109129  0.003833  3.885392  0.005
C  C16  1  0.24809615  0.48064255  0.34189521  1  -0.083303  0.008235  3.646293  0.009  -0.110774  0.003754  3.896463  0.005  -0.113555  0.003487  3.913597  0.004  -0.065347  -0.10918  0.003833  3.8854  0.005
C  C17  1  0.89599001  0.67827148  0.73537165  1  0.140816  -0.008893  3.651539  -0.006  0.112571  -0.002212  3.912583  -0.001  0.120927  -0.003774  3.929006  -0.003  0.058247  0.107151  -0.000972  3.902028  0.0
C  C18  1  0.10401078  0.32172936  0.26462834  1  0.140805  -0.008904  3.651556  -0.006  0.112559  -0.00221  3.912589  -0.001  0.120913  -0.003775  3.929012  -0.003  0.058246  0.107138  -0.000971  3.902039  0.0
C  C19  1  0.46612203  0.14808173  0.92612115  1  0.610936  -0.007757  3.920253  -0.007  0.563093  -0.001711  4.219912  -0.002  0.599544  -0.001766  4.216049  -0.001  0.20376  0.538253  -0.001666  4.221632  -0.002
C  C20  1  0.53387644  0.85191787  0.07387953  1  0.610911  -0.007761  3.920263  -0.007  0.563052  -0.001709  4.219912  -0.002  0.599504  -0.001767  4.216049  -0.001  0.203757  0.538217  -0.001665  4.221634  -0.002
C  C21  1  0.34831215  0.29811652  0.63253359  1  0.621374  9.4e-05  3.939082  0.0  0.568221  -7.6e-05  4.221336  0.0  0.602602  -4.9e-05  4.219083  0.0  0.201659  0.54498  -9.6e-05  4.221768  0.0
C  C22  1  0.65168824  0.70188310  0.36746601  1  0.621363  9.5e-05  3.939004  0.0  0.56821  -7.5e-05  4.221253  0.0  0.602592  -4.9e-05  4.218999  0.0  0.201649  0.544968  -9.6e-05  4.221686  0.0
N  N23  1  0.18087700  0.22092508  0.13314263  1  -0.294455  0.069816  3.354044  0.089  -0.248531  0.049112  3.64159  0.066  -0.275519  0.041041  3.660625  0.059  -0.34974  -0.232673  0.053009  3.631246  0.068
N  N24  1  0.81912341  0.77907451  0.86685928  1  -0.294466  0.069812  3.354009  0.089  -0.248573  0.049114  3.641544  0.066  -0.275562  0.04104  3.660579  0.059  -0.349729  -0.232715  0.053012  3.631197  0.068
O  O25  1  0.29241172  0.01328420  0.86553297  1  -0.589487  0.090308  2.063886  0.125  -0.564092  0.061895  2.362478  0.093  -0.606252  0.047548  2.35263  0.077  -0.319623  -0.536536  0.070587  2.369884  0.101
O  O26  1  0.70758481  0.98671541  0.13446647  1  -0.589454  0.090306  2.063862  0.125  -0.564063  0.061894  2.362455  0.093  -0.606221  0.047547  2.352606  0.077  -0.31961  -0.53651  0.070583  2.369866  0.101
O  O27  1  0.67955999  0.18121660  0.87256882  1  -0.567942  0.017481  2.027451  0.024  -0.524868  0.008289  2.298293  0.013  -0.555908  0.003405  2.287327  0.007  -0.300005  -0.50198  0.01404  2.304576  0.02
O  O28  1  0.32043808  0.81878178  0.12743031  1  -0.567959  0.017483  2.02751  0.024  -0.524867  0.008287  2.298323  0.013  -0.555908  0.003408  2.287359  0.007  -0.300008  -0.501976  0.014039  2.304601  0.02
O  O29  1  0.12929803  0.27266398  0.68630425  1  -0.591377  -0.000526  2.107329  0.0  -0.515846  -0.000346  2.372632  0.0  -0.548024  -0.00043  2.363961  0.0  -0.310513  -0.493403  -0.000112  2.377774  0.0
O  O30  1  0.87070430  0.72733563  0.31369543  1  -0.591378  -0.000527  2.107257  0.0  -0.515862  -0.000346  2.372589  0.0  -0.548039  -0.00043  2.363915  0.0  -0.310529  -0.493418  -0.000112  2.377732  0.0
O  O31  1  0.43582690  0.20043705  0.51564652  1  -0.621215  -0.000399  2.123518  0.0  -0.540014  -0.0003  2.400194  0.0  -0.573257  -0.000339  2.388374  0.0  -0.321431  -0.516841  -0.000157  2.407493  0.0
O  O32  1  0.56417350  0.79956256  0.48435308  1  -0.621204  -0.000399  2.123535  0.0  -0.54  -0.000301  2.400208  0.0  -0.573244  -0.000339  2.388385  0.0  -0.321417  -0.516826  -0.000157  2.407502  0.0
