# generated using pymatgen
data_LiH8C5NO3
_symmetry_space_group_name_H-M   'P 1'
_cell_length_a   4.97650064
_cell_length_b   11.88436221
_cell_length_c   13.64329626
_cell_angle_alpha   70.13279308
_cell_angle_beta   79.49999128
_cell_angle_gamma   77.91132212
_symmetry_Int_Tables_number   1
_chemical_formula_structural   LiH8C5NO3
_chemical_formula_sum   'Li4 H32 C20 N4 O12'
_cell_volume   736.61494741
_cell_formula_units_Z   4
loop_
 _symmetry_equiv_pos_site_id
 _symmetry_equiv_pos_as_xyz
  1  'x, y, z'
loop_
 _atom_site_type_symbol
 _atom_site_label
 _atom_site_symmetry_multiplicity
 _atom_site_fract_x
 _atom_site_fract_y
 _atom_site_fract_z
 _atom_site_occupancy
 _atom_site_hle17_bader_spin_density
 _atom_site_hle17_ddec_charge
 _atom_site_hle17_ddec_spin_density
 _atom_site_hle17_ddec_sum_bond_order
 _atom_site_hle17_magmom
 _atom_site_hse06_10hf_bader_spin_density
 _atom_site_hse06_10hf_ddec_charge
 _atom_site_hse06_10hf_ddec_spin_density
 _atom_site_hse06_10hf_ddec_sum_bond_order
 _atom_site_hse06_10hf_magmom
 _atom_site_hse06_bader_spin_density
 _atom_site_hse06_ddec_charge
 _atom_site_hse06_ddec_spin_density
 _atom_site_hse06_ddec_sum_bond_order
 _atom_site_hse06_magmom
 _atom_site_pbe_bader_spin_density
 _atom_site_pbe_cm5_charge
 _atom_site_pbe_ddec_charge
 _atom_site_pbe_ddec_spin_density
 _atom_site_pbe_ddec_sum_bond_order
 _atom_site_pbe_magmom
Li  Li0  1  0.85797882  0.72830340  0.69368404  1  0  0.843624  0  0.421739  0  0  0.801662  0  0.530778  0  0  0.811657  0  0.513318  0  0  0.514103  0.794287  0  0.543519  0
Li  Li1  1  0.28003606  0.77169463  0.80625511  1  0  0.843526  0  0.42186  0  0  0.801513  0  0.530914  0  0  0.811561  0  0.513412  0  0  0.513849  0.794117  0  0.543694  0
Li  Li2  1  0.14201998  0.27169609  0.30631601  1  0  0.843628  0  0.421727  0  0  0.801662  0  0.530771  0  0  0.811657  0  0.51331  0  0  0.514106  0.794293  0  0.543508  0
Li  Li3  1  0.71996240  0.22830577  0.19374469  1  0  0.843523  0  0.421863  0  0  0.801517  0  0.530906  0  0  0.811564  0  0.513405  0  0  0.513856  0.79413  0  0.543685  0
H  H4  1  0.91236323  0.04527188  0.40691159  1  0  0.339794  0  0.911963  0  0  0.320094  0  0.975443  0  0  0.329122  0  0.968147  0  0  0.311892  0.313704  0  0.980653  0
H  H5  1  0.36442963  0.45475559  0.09311625  1  0  0.340914  0  0.910592  0  0  0.321171  0  0.974075  0  0  0.330214  0  0.966713  0  0  0.31226  0.31478  0  0.979309  0
H  H6  1  0.08763872  0.95472942  0.59308824  1  0  0.339803  0  0.911965  0  0  0.320092  0  0.975455  0  0  0.329117  0  0.968165  0  0  0.311903  0.313704  0  0.980658  0
H  H7  1  0.63557298  0.54524390  0.90688406  1  0  0.340933  0  0.91054  0  0  0.321187  0  0.974024  0  0  0.330229  0  0.966663  0  0  0.312276  0.314792  0  0.97926  0
H  H8  1  0.68496051  0.01051045  0.33876205  1  0  0.343176  0  0.919678  0  0  0.322811  0  0.985202  0  0  0.331064  0  0.978783  0  0  0.311646  0.317012  0  0.989715  0
H  H9  1  0.03415041  0.48955926  0.16124026  1  0  0.344394  0  0.917612  0  0  0.323213  0  0.984445  0  0  0.331519  0  0.977948  0  0  0.311673  0.317365  0  0.989026  0
H  H10  1  0.31503829  0.98948904  0.66123799  1  0  0.343141  0  0.919727  0  0  0.322776  0  0.985254  0  0  0.331028  0  0.978837  0  0  0.311628  0.316973  0  0.989773  0
H  H11  1  0.96584845  0.51044204  0.83875856  1  0  0.344354  0  0.917662  0  0  0.323144  0  0.984525  0  0  0.331451  0  0.97803  0  0  0.311659  0.317295  0  0.9891  0
H  H12  1  0.83338666  0.52140068  0.64795080  1  0  0.121763  0  0.982362  0  0  0.128156  0  1.048411  0  0  0.132671  0  1.046426  0  0  0.10632  0.124916  0  1.049996  0
H  H13  1  0.00289356  0.97864082  0.85195277  1  0  0.121359  0  0.982138  0  0  0.128108  0  1.048171  0  0  0.132643  0  1.046146  0  0  0.106179  0.124892  0  1.049714  0
H  H14  1  0.16660950  0.47859881  0.35204984  1  0  0.121759  0  0.982351  0  0  0.128138  0  1.048425  0  0  0.132653  0  1.046441  0  0  0.106317  0.124915  0  1.04999  0
H  H15  1  0.99710299  0.02135958  0.14804689  1  0  0.12136  0  0.982123  0  0  0.128103  0  1.04816  0  0  0.132637  0  1.046134  0  0  0.10618  0.124888  0  1.049701  0
H  H16  1  0.33077211  0.41001824  0.64512886  1  0  0.068514  0  0.948502  0  0  0.082077  0  1.006837  0  0  0.084578  0  1.005306  0  0  0.099121  0.080214  0  1.008041  0
H  H17  1  0.38593474  0.08985418  0.85501078  1  0  0.06878  0  0.94882  0  0  0.082553  0  1.006767  0  0  0.085167  0  1.005116  0  0  0.099162  0.080619  0  1.008043  0
H  H18  1  0.66922477  0.58998125  0.35487105  1  0  0.068519  0  0.948512  0  0  0.082079  0  1.006847  0  0  0.08458  0  1.005316  0  0  0.099126  0.080216  0  1.008051  0
H  H19  1  0.61406406  0.91014531  0.14498926  1  0  0.068798  0  0.94882  0  0  0.082572  0  1.006765  0  0  0.085188  0  1.005111  0  0  0.099174  0.080639  0  1.008041  0
H  H20  1  0.96638765  0.34016856  0.58845481  1  0  0.101377  0  0.945084  0  0  0.124181  0  1.002559  0  0  0.125459  0  1.002329  0  0  0.09212  0.123232  0  1.00273  0
H  H21  1  0.89507347  0.15981835  0.91159262  1  0  0.101266  0  0.945396  0  0  0.123906  0  1.003037  0  0  0.125151  0  1.002855  0  0  0.092031  0.122974  0  1.003191  0
H  H22  1  0.03361114  0.65983093  0.41154523  1  0  0.101432  0  0.945088  0  0  0.124248  0  1.002539  0  0  0.125529  0  1.002306  0  0  0.092142  0.123298  0  1.00271  0
H  H23  1  0.10492532  0.84018114  0.08840742  1  0  0.101265  0  0.945401  0  0  0.123895  0  1.003045  0  0  0.12514  0  1.002862  0  0  0.092012  0.122964  0  1.003198  0
H  H24  1  0.71155805  0.32832215  0.51809739  1  0  0.111766  0  0.958153  0  0  0.130242  0  1.024601  0  0  0.131241  0  1.025264  0  0  0.097683  0.129488  0  1.024162  0
H  H25  1  0.55805559  0.17166609  0.98194602  1  0  0.112326  0  0.957848  0  0  0.130369  0  1.02474  0  0  0.131364  0  1.02541  0  0  0.097813  0.129638  0  1.024277  0
H  H26  1  0.28844041  0.67167824  0.48190241  1  0  0.111758  0  0.958179  0  0  0.130233  0  1.024625  0  0  0.131237  0  1.025283  0  0  0.09768  0.129487  0  1.024174  0
H  H27  1  0.44194511  0.82833340  0.01805416  1  0  0.112316  0  0.957847  0  0  0.130351  0  1.024745  0  0  0.131346  0  1.025417  0  0  0.097804  0.12962  0  1.024279  0
H  H28  1  0.73399397  0.23314798  0.64873619  1  0  0.104767  0  0.95279  0  0  0.124644  0  1.015751  0  0  0.125306  0  1.016882  0  0  0.090226  0.124161  0  1.014947  0
H  H29  1  0.61582094  0.26675605  0.85127910  1  0  0.105089  0  0.952465  0  0  0.124894  0  1.015366  0  0  0.125552  0  1.016502  0  0  0.090225  0.124408  0  1.014566  0
H  H30  1  0.26600482  0.76685151  0.35126385  1  0  0.104778  0  0.952792  0  0  0.124656  0  1.015751  0  0  0.125318  0  1.016883  0  0  0.090227  0.12417  0  1.014952  0
H  H31  1  0.38417943  0.73324434  0.14872083  1  0  0.105095  0  0.952455  0  0  0.124899  0  1.015353  0  0  0.125556  0  1.016489  0  0  0.090231  0.12441  0  1.014558  0
H  H32  1  0.62792830  0.82899064  0.47480832  1  0  0.019465  0  0.899043  0  0  0.035277  0  0.957229  0  0  0.036017  0  0.953967  0  0  0.12898  0.034434  0  0.959786  0
H  H33  1  0.93168335  0.67106580  0.02511567  1  0  0.018945  0  0.898337  0  0  0.034653  0  0.95668  0  0  0.035507  0  0.953318  0  0  0.128786  0.033829  0  0.959188  0
H  H34  1  0.37207358  0.17100885  0.52519273  1  0  0.019467  0  0.899074  0  0  0.035261  0  0.957271  0  0  0.036019  0  0.953989  0  0  0.128991  0.034418  0  0.959828  0
H  H35  1  0.06832336  0.32893370  0.97488258  1  0  0.018916  0  0.898319  0  0  0.034622  0  0.956669  0  0  0.035477  0  0.953307  0  0  0.128775  0.033795  0  0.959176  0
C  C36  1  0.40877209  0.59814415  0.69567333  1  0  0.734992  0  3.91438  0  0  0.69348  0  4.205719  0  0  0.727647  0  4.194479  0  0  0.220624  0.67038  0  4.212678  0
C  C37  1  0.70264894  0.90187809  0.80425625  1  0  0.736304  0  3.910102  0  0  0.693471  0  4.203705  0  0  0.727619  0  4.192478  0  0  0.219905  0.670362  0  4.210698  0
C  C38  1  0.59122480  0.40185535  0.30432657  1  0  0.735031  0  3.914312  0  0  0.693497  0  4.205702  0  0  0.727662  0  4.194461  0  0  0.22066  0.6704  0  4.21266  0
C  C39  1  0.29734879  0.09812231  0.19574428  1  0  0.73626  0  3.910163  0  0  0.69342  0  4.203778  0  0  0.72757  0  4.192546  0  0  0.219882  0.670318  0  4.210757  0
C  C40  1  0.61773399  0.50900790  0.65663037  1  0  -0.304935  0  3.703401  0  0  -0.320773  0  3.955788  0  0  -0.334056  0  3.974277  0  0  -0.111247  -0.31194  0  3.9433  0
C  C41  1  0.78349418  0.99097839  0.84333480  1  0  -0.304809  0  3.702177  0  0  -0.320706  0  3.955005  0  0  -0.333988  0  3.973515  0  0  -0.110827  -0.311884  0  3.942476  0
C  C42  1  0.38226671  0.49099159  0.34336980  1  0  -0.30493  0  3.703406  0  0  -0.320765  0  3.955831  0  0  -0.334045  0  3.974315  0  0  -0.111242  -0.311947  0  3.943328  0
C  C43  1  0.21650579  0.00902109  0.15666612  1  0  -0.304803  0  3.7022  0  0  -0.320689  0  3.955025  0  0  -0.33397  0  3.973535  0  0  -0.110826  -0.311867  0  3.942489  0
C  C44  1  0.55079548  0.41752948  0.63416557  1  0  0.074137  0  3.719762  0  0  0.06649  0  3.970006  0  0  0.070079  0  3.990972  0  0  -0.071003  0.06425  0  3.955588  0
C  C45  1  0.60255104  0.08238804  0.86591572  1  0  0.073823  0  3.719332  0  0  0.06626  0  3.969043  0  0  0.069754  0  3.989999  0  0  -0.070779  0.064076  0  3.954653  0
C  C46  1  0.44920298  0.58247092  0.36583423  1  0  0.074159  0  3.719768  0  0  0.066524  0  3.970006  0  0  0.070113  0  3.990974  0  0  -0.07099  0.064288  0  3.955585  0
C  C47  1  0.39744776  0.91761145  0.13408432  1  0  0.073776  0  3.719451  0  0  0.066208  0  3.969165  0  0  0.069699  0  3.990123  0  0  -0.070799  0.064028  0  3.954771  0
C  C48  1  0.75192366  0.32552413  0.59561404  1  0  -0.309866  0  3.771844  0  0  -0.382614  0  4.009349  0  0  -0.385329  0  4.020252  0  0  -0.238719  -0.380444  0  4.001658  0
C  C49  1  0.67309073  0.17441425  0.90443172  1  0  -0.310576  0  3.771948  0  0  -0.382804  0  4.009766  0  0  -0.385499  0  4.020736  0  0  -0.238902  -0.380668  0  4.002045  0
C  C50  1  0.24807217  0.67447627  0.40438635  1  0  -0.30996  0  3.771881  0  0  -0.382722  0  4.009396  0  0  -0.385443  0  4.020297  0  0  -0.238756  -0.380552  0  4.001698  0
C  C51  1  0.32690700  0.82558614  0.09556881  1  0  -0.310535  0  3.771957  0  0  -0.382743  0  4.00976  0  0  -0.38544  0  4.020733  0  0  -0.23886  -0.380603  0  4.002036  0
C  C52  1  0.77071367  0.88534667  0.48147313  1  0  0.559076  0  3.861692  0  0  0.490526  0  4.161519  0  0  0.518189  0  4.161002  0  0  0.194855  0.472009  0  4.161209  0
C  C53  1  0.13742193  0.61464900  0.01848283  1  0  0.559378  0  3.860674  0  0  0.490873  0  4.16045  0  0  0.518446  0  4.159996  0  0  0.194538  0.472359  0  4.160152  0
C  C54  1  0.22929012  0.11465282  0.51852805  1  0  0.559096  0  3.861598  0  0  0.490556  0  4.161415  0  0  0.518208  0  4.160904  0  0  0.194882  0.472041  0  4.161102  0
C  C55  1  0.86258309  0.38535594  0.98151162  1  0  0.559512  0  3.860537  0  0  0.491006  0  4.160307  0  0  0.518577  0  4.159858  0  0  0.194641  0.472499  0  4.160005  0
N  N56  1  0.79368472  0.98623898  0.40210990  1  0  -0.638986  0  3.153076  0  0  -0.594731  0  3.388303  0  0  -0.618766  0  3.385429  0  0  -0.547283  -0.578284  0  3.389977  0
N  N57  1  0.18191294  0.51379839  0.09789855  1  0  -0.640583  0  3.150743  0  0  -0.595597  0  3.386403  0  0  -0.61969  0  3.383446  0  0  -0.547054  -0.579118  0  3.388193  0
N  N58  1  0.20631749  0.01375960  0.59789139  1  0  -0.638988  0  3.153129  0  0  -0.594718  0  3.388369  0  0  -0.618754  0  3.385504  0  0  -0.54729  -0.578261  0  3.390033  0
N  N59  1  0.81808960  0.48619928  0.90210299  1  0  -0.640549  0  3.150946  0  0  -0.595528  0  3.386654  0  0  -0.61962  0  3.3837  0  0  -0.547057  -0.579046  0  3.388429  0
O  O60  1  0.49798186  0.68330479  0.71180876  1  0  -0.789978  0  1.947241  0  0  -0.744714  0  2.190456  0  0  -0.764303  0  2.173355  0  0  -0.44683  -0.731077  0  2.201973  0
O  O61  1  0.89314700  0.81671358  0.78811102  1  0  -0.790248  0  1.943984  0  0  -0.744642  0  2.188167  0  0  -0.764284  0  2.171178  0  0  -0.446847  -0.730935  0  2.199571  0
O  O62  1  0.50201660  0.31669561  0.28819104  1  0  -0.789972  0  1.947278  0  0  -0.74469  0  2.190478  0  0  -0.764275  0  2.173378  0  0  -0.446847  -0.731052  0  2.201999  0
O  O63  1  0.10685179  0.18328591  0.21188902  1  0  -0.79022  0  1.944018  0  0  -0.744611  0  2.188203  0  0  -0.764256  0  2.171217  0  0  -0.446844  -0.730908  0  2.199605  0
O  O64  1  0.15278680  0.58815553  0.71139247  1  0  -0.742935  0  1.978113  0  0  -0.692967  0  2.212751  0  0  -0.714894  0  2.198801  0  0  -0.385074  -0.67772  0  2.221962  0
O  O65  1  0.45236683  0.91189495  0.78854289  1  0  -0.743269  0  1.977566  0  0  -0.693152  0  2.212933  0  0  -0.715015  0  2.198878  0  0  -0.38478  -0.67798  0  2.222286  0
O  O66  1  0.84721166  0.41184487  0.28860733  1  0  -0.742992  0  1.978083  0  0  -0.693007  0  2.212704  0  0  -0.714941  0  2.198771  0  0  -0.385078  -0.677758  0  2.221916  0
O  O67  1  0.54762973  0.08810544  0.21145677  1  0  -0.743268  0  1.977605  0  0  -0.693152  0  2.212974  0  0  -0.715016  0  2.198919  0  0  -0.384766  -0.67798  0  2.222323  0
O  O68  1  0.89863122  0.85231553  0.56042780  1  0  -0.636086  0  2.013751  0  0  -0.583829  0  2.250237  0  0  -0.605714  0  2.242285  0  0  -0.367359  -0.568619  0  2.255255  0
O  O69  1  0.31124515  0.64757304  0.93951113  1  0  -0.636263  0  2.012885  0  0  -0.584076  0  2.249579  0  0  -0.605965  0  2.241585  0  0  -0.367302  -0.568839  0  2.254568  0
O  O70  1  0.10137106  0.14768486  0.43957227  1  0  -0.636094  0  2.013634  0  0  -0.583827  0  2.250102  0  0  -0.605715  0  2.24216  0  0  -0.367381  -0.568618  0  2.255121  0
O  O71  1  0.68875633  0.35242554  0.06049090  1  0  -0.636392  0  2.012612  0  0  -0.584214  0  2.249307  0  0  -0.606105  0  2.241312  0  0  -0.367399  -0.568991  0  2.254309  0
