# generated using pymatgen
data_Na2NiH46C28S4(N3O8)2
_symmetry_space_group_name_H-M   'P 1'
_cell_length_a   9.68308171
_cell_length_b   10.12963976
_cell_length_c   11.66970000
_cell_angle_alpha   90.23670344
_cell_angle_beta   107.99064416
_cell_angle_gamma   112.41717864
_symmetry_Int_Tables_number   1
_chemical_formula_structural   Na2NiH46C28S4(N3O8)2
_chemical_formula_sum   'Na2 Ni1 H46 C28 S4 N6 O16'
_cell_volume   996.68015515
_cell_formula_units_Z   1
loop_
 _symmetry_equiv_pos_site_id
 _symmetry_equiv_pos_as_xyz
  1  'x, y, z'
loop_
 _atom_site_type_symbol
 _atom_site_label
 _atom_site_symmetry_multiplicity
 _atom_site_fract_x
 _atom_site_fract_y
 _atom_site_fract_z
 _atom_site_occupancy
 _atom_site_hle17_ddec_charge
 _atom_site_hle17_ddec_spin_density
 _atom_site_hle17_ddec_sum_bond_order
 _atom_site_hle17_magmom
 _atom_site_hse06_10hf_ddec_charge
 _atom_site_hse06_10hf_ddec_spin_density
 _atom_site_hse06_10hf_ddec_sum_bond_order
 _atom_site_hse06_10hf_magmom
 _atom_site_hse06_ddec_charge
 _atom_site_hse06_ddec_spin_density
 _atom_site_hse06_ddec_sum_bond_order
 _atom_site_hse06_magmom
 _atom_site_pbe_bader_charge
 _atom_site_pbe_bader_spin_density
 _atom_site_pbe_cm5_charge
 _atom_site_pbe_ddec_charge
 _atom_site_pbe_ddec_spin_density
 _atom_site_pbe_ddec_sum_bond_order
 _atom_site_pbe_magmom
Na  Na0  1  0.83020943  0.31004661  0.93073169  1  0.913288  -1.5e-05  0.367123  0.0  0.877992  -4e-06  0.507422  0.0  0.88768  -1e-06  0.486279  0.0  0.891248  2e-06  0.693762  0.870675  7e-06  0.523004  0.0
Na  Na1  1  0.16979334  0.68995096  0.06926738  1  0.913274  -1.4e-05  0.367113  0.0  0.878006  -4e-06  0.507372  0.0  0.8877  -2e-06  0.486225  0.0  0.891255  2e-06  0.693761  0.870681  7e-06  0.522951  0.0
Ni  Ni2  1  0.49999908  0.50000094  0.50000152  1  0.833427  -0.057713  1.917022  -0.047  0.861712  -0.044226  2.304673  -0.045  0.973612  -0.032421  2.214196  -0.036  1.093348  0.044138  0.617648  0.784325  0.050088  2.367857  0.048
H  H3  1  0.19342672  0.19708849  0.15767633  1  0.142555  -4.9e-05  0.945058  0.0  0.16335  -0.000102  1.003285  0.0  0.166583  -6.7e-05  1.001543  0.0  0.087135  0.00024  0.107402  0.160992  0.000142  1.004786  0.0
H  H4  1  0.80657313  0.80291232  0.84232715  1  0.142583  -4.9e-05  0.945025  0.0  0.163384  -0.000102  1.003232  0.0  0.166618  -6.7e-05  1.001489  0.0  0.087151  0.00024  0.107408  0.161026  0.000142  1.004734  0.0
H  H5  1  0.34011808  0.32799521  0.11088874  1  0.128435  0.000134  0.952618  0.0  0.151341  9.3e-05  1.01124  0.0  0.153227  7.7e-05  1.011495  0.0  0.038351  -0.00014  0.100554  0.149994  -9.6e-05  1.011268  0.0
H  H6  1  0.65988285  0.67200560  0.88911502  1  0.12839  0.000134  0.952658  0.0  0.151302  9.3e-05  1.011272  0.0  0.153189  7.7e-05  1.011528  0.0  0.038279  -0.00014  0.100537  0.149956  -9.7e-05  1.011299  0.0
H  H7  1  0.27481733  0.38178386  0.22367089  1  0.160239  3.6e-05  0.959455  0.0  0.17487  -9e-06  1.021287  0.0  0.177828  -1e-05  1.019656  0.0  0.123899  -3.6e-05  0.105649  0.172774  3e-06  1.022502  0.0
H  H8  1  0.72518503  0.61822017  0.77633410  1  0.160312  3.6e-05  0.959453  0.0  0.174922  -9e-06  1.021294  0.0  0.177881  -1.1e-05  1.019663  0.0  0.123967  -3.6e-05  0.105673  0.172825  3e-06  1.022509  0.0
H  H9  1  0.46779835  0.01334634  0.14864894  1  0.122234  -9e-06  0.93223  0.0  0.145354  -6e-05  0.986688  0.0  0.146956  -4.2e-05  0.985634  0.0  0.097331  5.3e-05  0.116954  0.144069  3.2e-05  0.987605  0.0
H  H10  1  0.53220401  0.98665770  0.85135434  1  0.122239  -9e-06  0.932234  0.0  0.145365  -6e-05  0.986696  0.0  0.146967  -4.1e-05  0.985639  0.0  0.09731  5.3e-05  0.116964  0.144081  3.2e-05  0.987612  0.0
H  H11  1  0.51825216  0.17998636  0.08891624  1  0.109061  -0.00034  0.94084  0.0  0.128222  -0.00025  1.004421  0.0  0.128834  -0.000167  1.004398  0.0  0.070256  0.000518  0.104408  0.127684  0.000296  1.004598  0.0
H  H12  1  0.48175190  0.82001660  0.91108918  1  0.109065  -0.000339  0.940808  0.0  0.128253  -0.000251  1.004362  0.0  0.12886  -0.000167  1.004344  0.0  0.07045  0.000518  0.104416  0.127716  0.000296  1.00454  0.0
H  H13  1  0.32003452  0.08131488  0.09121491  1  0.096418  -1.8e-05  0.98411  0.0  0.116758  -3e-05  1.050211  0.0  0.116615  -1.6e-05  1.051865  0.0  0.077256  0.00013  0.106842  0.116951  6.5e-05  1.048811  0.0
H  H14  1  0.67996846  0.91868808  0.90878680  1  0.096565  -1.7e-05  0.983984  0.0  0.116862  -3.1e-05  1.050127  0.0  0.116718  -1.7e-05  1.05178  0.0  0.077283  0.00013  0.106921  0.117055  6.5e-05  1.048727  0.0
H  H15  1  0.72364828  0.19568559  0.32916595  1  0.101539  -4.5e-05  0.948486  0.0  0.120504  -1.9e-05  1.015132  0.0  0.121095  -1e-05  1.015051  0.0  0.055817  7.3e-05  0.101314  0.12012  3.3e-05  1.014995  0.0
H  H16  1  0.27635266  0.80431521  0.67083524  1  0.10155  -4.4e-05  0.948466  0.0  0.120503  -1.9e-05  1.015119  0.0  0.121092  -9e-06  1.015038  0.0  0.055785  7.3e-05  0.101303  0.120119  3.3e-05  1.014982  0.0
H  H17  1  0.57913493  0.04690899  0.36519285  1  0.113137  -0.000124  0.965656  0.0  0.131312  -8.4e-05  1.029596  0.0  0.132137  -5.3e-05  1.029607  0.0  0.076492  0.000186  0.10382  0.130722  0.000103  1.029597  0.0
H  H18  1  0.42086505  0.95308966  0.63480980  1  0.113177  -0.000122  0.96568  0.0  0.131335  -8.4e-05  1.02962  0.0  0.13216  -5.2e-05  1.02963  0.0  0.076502  0.000186  0.10382  0.130745  0.000103  1.029619  0.0
H  H19  1  0.64283037  0.22462873  0.44205800  1  0.11708  -6e-05  0.95527  0.0  0.135802  -2.9e-05  1.015847  0.0  0.137503  2e-06  1.014804  0.0  0.103313  8.6e-05  0.110034  0.134561  6.7e-05  1.01648  0.0
H  H20  1  0.35717056  0.77537208  0.55794661  1  0.117088  -5.9e-05  0.955286  0.0  0.135815  -2.9e-05  1.015841  0.0  0.137516  2e-06  1.014798  0.0  0.103428  8.6e-05  0.110047  0.134575  6.7e-05  1.016474  0.0
H  H21  1  0.71858006  0.71821583  0.50033308  1  0.317061  -0.000541  0.893762  -0.001  0.302355  -0.000169  0.957917  0.0  0.30964  -0.000267  0.953971  0.0  0.47094  0.000398  0.305356  0.297003  7.6e-05  0.961091  0.0
H  H22  1  0.28141932  0.28178389  0.49966855  1  0.317063  -0.000541  0.893774  -0.001  0.30236  -0.000168  0.957923  0.0  0.309646  -0.000267  0.953975  0.0  0.470917  0.000398  0.30536  0.297007  7.6e-05  0.9611  0.0
H  H23  1  0.80268761  0.60189444  0.55366739  1  0.345331  -0.000228  0.887433  -0.001  0.332948  0.000199  0.944442  0.0  0.34099  7.6e-05  0.939134  0.0  0.510667  7.8e-05  0.305704  0.327079  -0.000296  0.948563  0.0
H  H24  1  0.19731285  0.39810529  0.44633281  1  0.345319  -0.000227  0.887458  -0.001  0.332944  0.000199  0.944449  0.0  0.340984  7.7e-05  0.939142  0.0  0.510675  7.7e-05  0.305705  0.327075  -0.000296  0.948569  0.0
H  H25  1  0.56896147  0.64719781  0.07511125  1  0.099762  0.000226  0.959393  0.0  0.107577  2.2e-05  1.026207  0.0  0.110487  1.6e-05  1.024769  0.0  0.092812  -7e-05  0.10778  0.10543  -3.6e-05  1.027559  0.0
H  H26  1  0.43102900  0.35279652  0.92488551  1  0.099749  0.000224  0.959445  0.0  0.107576  2.2e-05  1.026232  0.0  0.110501  1.5e-05  1.024777  0.0  0.092671  -7e-05  0.107778  0.105426  -3.6e-05  1.027589  0.0
H  H27  1  0.88684513  0.48919512  0.42528933  1  0.123527  -0.000389  0.944967  -0.001  0.131795  -1.8e-05  1.008634  0.0  0.135667  -1.8e-05  1.006175  0.0  0.101242  1.9e-05  0.114291  0.129014  1.3e-05  1.010711  0.0
H  H28  1  0.11315220  0.51080245  0.57470921  1  0.123538  -0.000388  0.944976  -0.001  0.131788  -1.7e-05  1.00865  0.0  0.135658  -1.8e-05  1.006192  0.0  0.101233  1.9e-05  0.114287  0.129007  1.3e-05  1.010727  0.0
H  H29  1  0.73656745  0.52381667  0.04208397  1  0.09917  -0.000383  0.946411  -0.001  0.109614  7.4e-05  1.009811  0.0  0.113335  4.4e-05  1.007503  0.0  0.068938  -0.000131  0.116257  0.106725  -0.000111  1.011963  0.0
H  H30  1  0.26342520  0.47617766  0.95791507  1  0.099188  -0.000381  0.946355  -0.001  0.109655  7.3e-05  1.009736  0.0  0.113376  4.3e-05  1.007428  0.0  0.068931  -0.000131  0.116283  0.106767  -0.000111  1.011888  0.0
H  H31  1  0.23695776  0.08835090  0.86781706  1  0.09417  -3.1e-05  0.938405  0.0  0.116848  -1.2e-05  0.999416  0.0  0.116855  -1.5e-05  1.0001  0.0  0.041494  -9e-06  0.10103  0.116726  -5e-06  0.999078  0.0
H  H32  1  0.76304209  0.91164990  0.13218299  1  0.094141  -3.2e-05  0.938443  0.0  0.116838  -1.2e-05  0.999427  0.0  0.116846  -1.6e-05  1.00011  0.0  0.041486  -9e-06  0.101025  0.116714  -5e-06  0.999091  0.0
H  H33  1  0.10030600  0.07142994  0.94754772  1  0.10228  2e-06  0.973815  0.0  0.11841  0.0  1.044178  0.0  0.12033  2e-06  1.042361  0.0  0.084964  -1e-06  0.105849  0.116903  -0.0  1.04572  0.0
H  H34  1  0.89968998  0.92857194  0.05244877  1  0.102243  2e-06  0.973827  0.0  0.118391  -0.0  1.044173  0.0  0.120297  2e-06  1.042371  0.0  0.084884  -1e-06  0.105826  0.116883  -0.0  1.045717  0.0
H  H35  1  0.10079292  0.91448156  0.87540073  1  0.105242  -4e-06  0.962747  0.0  0.123005  -9e-06  1.028836  0.0  0.124544  -6e-06  1.027448  0.0  0.096529  1.2e-05  0.104152  0.121747  1.3e-05  1.030091  0.0
H  H36  1  0.89920584  0.08551924  0.12459647  1  0.105233  -5e-06  0.962773  0.0  0.122972  -9e-06  1.028886  0.0  0.124512  -7e-06  1.027499  0.0  0.096548  1.2e-05  0.10414  0.121732  1.3e-05  1.030124  0.0
H  H37  1  0.00688180  0.87383005  0.65289079  1  0.108226  3.4e-05  0.943845  0.0  0.128248  6e-05  1.004513  0.0  0.129646  4.9e-05  1.00384  0.0  0.09132  -8.9e-05  0.103247  0.12706  -7.5e-05  1.005142  0.0
H  H38  1  0.99312035  0.12616859  0.34710556  1  0.108189  3.3e-05  0.943916  0.0  0.128192  6e-05  1.004584  0.0  0.129588  4.9e-05  1.003915  0.0  0.091231  -8.9e-05  0.103229  0.127003  -7.5e-05  1.005213  0.0
H  H39  1  0.90738254  0.97738955  0.56881588  1  0.100357  -8e-06  0.974482  0.0  0.121722  4e-06  1.036039  0.0  0.122389  3e-06  1.036311  0.0  0.081549  -4e-06  0.105964  0.121113  -1e-06  1.035963  0.0
H  H40  1  0.09262118  0.02261017  0.43118344  1  0.100377  -8e-06  0.974511  0.0  0.121719  4e-06  1.036088  0.0  0.122386  2e-06  1.036359  0.0  0.081591  -4e-06  0.105963  0.121109  -1e-06  1.036012  0.0
H  H41  1  0.11965420  0.05152850  0.63256811  1  0.100358  1.8e-05  0.963574  0.0  0.116464  1.8e-05  1.032225  0.0  0.117422  1.2e-05  1.032187  0.0  0.081244  -2.6e-05  0.096684  0.115704  -2.7e-05  1.032307  0.0
H  H42  1  0.88034470  0.94847014  0.36742740  1  0.100394  1.8e-05  0.963496  0.0  0.116487  1.8e-05  1.032151  0.0  0.117445  1.2e-05  1.032113  0.0  0.081132  -2.6e-05  0.096686  0.115727  -2.7e-05  1.032232  0.0
H  H43  1  0.71459384  0.01880371  0.58995572  1  0.148603  1e-06  0.937786  0.0  0.167395  -1e-06  0.995101  0.0  0.17057  -2e-06  0.993676  0.0  0.092056  -1e-06  0.104704  0.165077  1e-05  0.996272  0.0
H  H44  1  0.28540431  0.98119817  0.41003704  1  0.148622  -0.0  0.937792  0.0  0.167412  -1e-06  0.995111  0.0  0.170586  -2e-06  0.993687  0.0  0.092132  -1e-06  0.104721  0.165093  1e-05  0.996284  0.0
H  H45  1  0.73078116  0.17928869  0.66737399  1  0.140094  -1.7e-05  0.954099  0.0  0.155308  -6e-06  1.019064  0.0  0.158543  -6e-06  1.016709  0.0  0.075969  -3e-06  0.104387  0.152877  1.6e-05  1.02085  0.0
H  H46  1  0.26922195  0.82071211  0.33262261  1  0.140104  -1.7e-05  0.954041  0.0  0.15533  -6e-06  1.019006  0.0  0.158559  -7e-06  1.016652  0.0  0.075915  -3e-06  0.104408  0.152897  1.6e-05  1.020793  0.0
H  H47  1  0.86796250  0.18638834  0.59276709  1  0.131916  3.8e-05  0.934457  0.0  0.154899  2.5e-05  0.988262  0.0  0.157036  2.1e-05  0.988323  0.0  0.061877  -3.1e-05  0.101064  0.153432  -2.9e-05  0.988175  0.0
H  H48  1  0.13203627  0.81361247  0.40722669  1  0.13192  3.7e-05  0.934489  0.0  0.154915  2.5e-05  0.98828  0.0  0.157048  2e-05  0.988347  0.0  0.061934  -3.1e-05  0.101068  0.153449  -2.9e-05  0.988191  0.0
C  C49  1  0.42779399  0.27254702  0.28935732  1  0.56562  -0.000761  3.733002  0.0  0.529458  -0.002288  4.017258  -0.002  0.561985  -0.001914  4.019609  -0.002  1.33814  0.001811  0.245842  0.506795  0.002591  4.015153  0.002
C  C50  1  0.57221129  0.72745378  0.71065012  1  0.565511  -0.000765  3.73277  0.0  0.529345  -0.002288  4.017049  -0.002  0.561873  -0.001914  4.019399  -0.002  1.337522  0.001812  0.245749  0.506678  0.002591  4.014949  0.002
C  C51  1  0.30176311  0.29697847  0.18961334  1  -0.4422  -0.000557  3.655539  -0.001  -0.521756  -0.000379  3.88838  0.0  -0.52831  -0.000173  3.890348  0.0  -0.103585  0.000893  -0.237636  -0.517092  0.000631  3.887212  0.001
C  C52  1  0.69824217  0.70302233  0.81039324  1  -0.442181  -0.000556  3.655589  -0.001  -0.521719  -0.000378  3.888438  0.0  -0.528275  -0.00017  3.890403  0.0  -0.10328  0.000892  -0.23759  -0.517053  0.00063  3.887272  0.001
C  C53  1  0.44618773  0.11212566  0.13998566  1  -0.178187  -0.000852  3.630416  -0.001  -0.277659  -0.000606  3.869665  0.0  -0.274897  -0.000459  3.88099  0.0  0.240088  0.000824  -0.132437  -0.279151  0.000789  3.861646  0.001
C  C54  1  0.55381477  0.88787622  0.86001679  1  -0.178368  -0.000856  3.630319  -0.001  -0.277855  -0.000606  3.869638  0.0  -0.275094  -0.000459  3.880971  0.0  0.239861  0.000824  -0.132552  -0.279347  0.000789  3.861619  0.001
C  C55  1  0.61728891  0.16199247  0.35606788  1  -0.185223  5.9e-05  3.634013  0.0  -0.286165  -7.8e-05  3.880748  0.0  -0.282588  -7e-06  3.889973  0.0  0.24773  0.000189  -0.14431  -0.288212  0.000211  3.874088  0.0
C  C56  1  0.38271407  0.83801049  0.64393812  1  -0.18526  5.4e-05  3.634125  0.0  -0.286151  -7.9e-05  3.880826  0.0  -0.282574  -1e-05  3.890052  0.0  0.247702  0.000189  -0.144253  -0.2882  0.000211  3.874167  0.0
C  C57  1  0.63985949  0.61240480  0.15079795  1  -0.051227  -0.008267  3.765991  -0.008  -0.074539  -0.002253  4.024895  -0.002  -0.073024  -0.002815  4.045939  -0.003  -0.023412  0.002484  -0.082449  -0.075949  0.001738  4.011839  0.002
C  C58  1  0.36013133  0.38759276  0.84919978  1  -0.051167  -0.008235  3.766121  -0.008  -0.074458  -0.002251  4.025014  -0.002  -0.072952  -0.002816  4.046053  -0.003  -0.023181  0.002483  -0.082474  -0.075868  0.001738  4.01196  0.002
C  C59  1  0.63525681  0.63758245  0.26690789  1  -0.205198  0.015455  3.689957  0.012  -0.189156  0.008028  3.941676  0.006  -0.199872  0.007086  3.96459  0.006  -0.16956  -0.010751  -0.020235  -0.182442  -0.00903  3.926891  -0.007
C  C60  1  0.36475103  0.36241188  0.73309332  1  -0.205268  0.015429  3.689994  0.012  -0.189236  0.008031  3.941767  0.006  -0.199957  0.007094  3.964685  0.006  -0.170007  -0.010755  -0.020195  -0.182518  -0.009034  3.926982  -0.007
C  C61  1  0.81830990  0.52488636  0.34887717  1  -0.147415  0.015707  3.673754  0.012  -0.182093  0.007075  3.929328  0.005  -0.186116  0.006303  3.947563  0.005  0.026756  -0.00873  -0.08296  -0.179952  -0.007531  3.917796  -0.005
C  C62  1  0.18168756  0.47510905  0.65112140  1  -0.147496  0.015672  3.673866  0.012  -0.182145  0.007073  3.929413  0.005  -0.18617  0.006305  3.947649  0.005  0.026738  -0.008727  -0.082982  -0.180004  -0.007529  3.917884  -0.005
C  C63  1  0.82062122  0.49914368  0.23215054  1  -0.085921  -0.008644  3.731279  -0.008  -0.060241  -0.002204  3.981327  -0.002  -0.062613  -0.002786  4.001833  -0.003  -0.172412  0.002171  -0.009911  -0.058994  0.001619  3.968242  0.002
C  C64  1  0.17937354  0.50086036  0.76784651  1  -0.085934  -0.00862  3.731277  -0.008  -0.060184  -0.002206  3.98124  -0.002  -0.062554  -0.002791  4.001739  -0.003  -0.171806  0.002172  -0.009938  -0.058943  0.001619  3.968166  0.002
C  C65  1  0.72566049  0.59488537  0.36729406  1  0.284982  -0.007801  3.749561  -0.008  0.277188  -0.002485  4.005891  -0.004  0.288124  -0.003568  4.02879  -0.004  0.364143  0.002149  0.09585  0.2701  0.001091  3.990471  0.002
C  C66  1  0.27433155  0.40511004  0.63270396  1  0.285068  -0.007776  3.749356  -0.008  0.277234  -0.002484  4.005763  -0.004  0.288169  -0.003569  4.028661  -0.004  0.364311  0.002148  0.095877  0.270146  0.00109  3.990343  0.002
C  C67  1  0.73263198  0.54330727  0.13268404  1  -0.072811  0.018746  3.74034  0.014  -0.108911  0.008688  4.006825  0.006  -0.111834  0.007306  4.027279  0.005  0.004796  -0.011882  -0.082687  -0.106855  -0.010238  3.993929  -0.007
C  C68  1  0.26735888  0.45668060  0.86731366  1  -0.072839  0.018708  3.740329  0.014  -0.108999  0.00869  4.00684  0.006  -0.111925  0.007315  4.027297  0.005  0.004302  -0.011882  -0.082662  -0.106947  -0.010238  3.993954  -0.007
C  C69  1  0.90505143  0.10336325  0.76475168  1  0.572797  2.9e-05  3.802764  0.0  0.534332  3e-05  4.090592  0.0  0.562491  2.7e-05  4.092285  0.0  1.365793  -1.4e-05  0.234986  0.515268  -2.4e-05  4.089139  0.0
C  C70  1  0.09495697  0.89663971  0.23524114  1  0.572803  2.7e-05  3.802768  0.0  0.53443  3e-05  4.09049  0.0  0.562591  2.6e-05  4.092177  0.0  1.366091  -1.4e-05  0.235149  0.515368  -2.3e-05  4.089031  0.0
C  C71  1  0.11626481  0.02703451  0.86943609  1  -0.177183  -2.7e-05  3.66504  0.0  -0.278007  -1e-05  3.915818  0.0  -0.274156  -1.9e-05  3.924849  0.0  0.237362  4e-06  -0.141454  -0.280274  8e-06  3.910021  0.0
C  C72  1  0.88373469  0.97296306  0.13056214  1  -0.177142  -2.4e-05  3.665064  0.0  -0.277955  -1e-05  3.915844  0.0  -0.274097  -1.6e-05  3.924888  0.0  0.237735  4e-06  -0.141416  -0.280241  8e-06  3.910037  0.0
C  C73  1  0.00832327  0.98261940  0.64653362  1  -0.179297  2.2e-05  3.656535  0.0  -0.274647  5.8e-05  3.899509  0.0  -0.272019  4.5e-05  3.910626  0.0  0.213907  -5.9e-05  -0.141608  -0.275998  -7.5e-05  3.891919  0.0
C  C74  1  0.99168262  0.01738033  0.35346541  1  -0.179379  2.4e-05  3.656734  0.0  -0.274686  5.8e-05  3.899748  0.0  -0.272058  4.6e-05  3.910868  0.0  0.214281  -5.9e-05  -0.141618  -0.276036  -7.5e-05  3.892153  0.0
C  C75  1  0.79792575  0.12230282  0.64667652  1  -0.440147  3e-06  3.665028  0.0  -0.516038  7e-06  3.899424  0.0  -0.522461  1e-06  3.902397  0.0  -0.120279  -2.8e-05  -0.236907  -0.511231  -2.5e-05  3.897224  0.0
C  C76  1  0.20207628  0.87769798  0.35332323  1  -0.440174  7e-06  3.664988  0.0  -0.516115  8e-06  3.899396  0.0  -0.522527  4e-06  3.902363  0.0  -0.12036  -2.8e-05  -0.236979  -0.511312  -2.5e-05  3.897199  0.0
S  S77  1  0.51276940  0.72146157  0.29126954  1  1.294993  0.000112  5.702179  -0.001  1.203402  0.000664  6.226999  0.0  1.252864  0.000423  6.201951  0.0  3.218733  -0.00043  0.504125  1.169295  -0.000958  6.24333  0.0
S  S78  1  0.48722801  0.27854355  0.70873076  1  1.295081  0.000111  5.702486  -0.001  1.203499  0.000667  6.227315  0.0  1.252967  0.000432  6.202259  0.0  3.218334  -0.00043  0.504136  1.169383  -0.000958  6.243657  0.0
S  S79  1  0.92911388  0.40059081  0.20525082  1  1.30494  8.7e-05  5.719633  0.0  1.212238  6e-06  6.243411  0.0  1.259057  -7e-06  6.2183  0.0  3.223217  -8.5e-05  0.498652  1.179726  -4.4e-05  6.25995  0.0
S  S80  1  0.07088610  0.59940784  0.79474669  1  1.304752  8.4e-05  5.720068  0.0  1.21202  7e-06  6.243857  0.0  1.25884  -6e-06  6.218742  0.0  3.223202  -8.5e-05  0.498548  1.17951  -4.4e-05  6.260394  0.0
N  N81  1  0.49195097  0.18557529  0.26229637  1  -0.122115  -0.005614  3.433046  -0.006  -0.020529  -0.003379  3.661533  -0.004  -0.041916  -0.002481  3.686385  -0.003  -1.185044  0.005837  -0.272024  -0.006148  0.004264  3.644548  0.005
N  N82  1  0.50804814  0.81442875  0.73770693  1  -0.122073  -0.005611  3.432972  -0.006  -0.020485  -0.003381  3.661473  -0.004  -0.041871  -0.002481  3.686321  -0.003  -1.184854  0.005839  -0.272016  -0.006104  0.004265  3.644489  0.005
N  N83  1  0.71550090  0.61699628  0.48417373  1  -0.623683  0.037802  3.180672  0.034  -0.613734  0.030217  3.447741  0.026  -0.65198  0.025959  3.449069  0.023  -1.18987  -0.036972  -0.59838  -0.587927  -0.031854  3.447815  -0.026
N  N84  1  0.28450099  0.38300668  0.51582428  1  -0.623721  0.037793  3.180726  0.034  -0.613759  0.030214  3.447815  0.026  -0.651991  0.025957  3.449121  0.023  -1.189903  -0.036971  -0.598405  -0.587952  -0.031851  3.447894  -0.026
N  N85  1  0.00091100  0.03696366  0.75899907  1  -0.150878  -7e-06  3.452661  0.0  -0.052518  -5e-06  3.686298  0.0  -0.074189  -4e-06  3.711974  0.0  -1.198965  -0.0  -0.289393  -0.038108  2e-06  3.668879  0.0
N  N86  1  0.99908920  0.96304038  0.24100023  1  -0.150835  -8e-06  3.452684  0.0  -0.052522  -5e-06  3.686312  0.0  -0.074194  -3e-06  3.711988  0.0  -1.19928  -0.0  -0.28946  -0.038113  2e-06  3.668893  0.0
O  O87  1  0.47273528  0.32809765  0.39961655  1  -0.579594  -0.043327  2.161578  -0.047  -0.54782  -0.026413  2.439654  -0.028  -0.590594  -0.021992  2.432836  -0.023  -1.146269  0.039797  -0.304881  -0.517195  0.030491  2.443899  0.033
O  O88  1  0.52726518  0.67190208  0.60038280  1  -0.579556  -0.043337  2.161418  -0.047  -0.547789  -0.026419  2.439503  -0.028  -0.590567  -0.021999  2.432686  -0.023  -1.146158  0.039806  -0.30487  -0.517161  0.030498  2.443748  0.033
O  O89  1  0.39483655  0.61147853  0.33381148  1  -0.653935  0.017027  1.993443  0.016  -0.619415  0.007969  2.261668  0.008  -0.646889  0.006058  2.245001  0.006  -1.319255  -0.010519  -0.324557  -0.600165  -0.009091  2.27337  -0.008
O  O90  1  0.60516569  0.38852767  0.66619263  1  -0.653875  0.017028  1.993577  0.016  -0.619343  0.007968  2.261764  0.008  -0.646828  0.006056  2.245111  0.006  -1.319207  -0.010518  -0.324494  -0.60009  -0.009091  2.273465  -0.008
O  O91  1  0.01516287  0.37711259  0.32532537  1  -0.662711  -6.5e-05  1.967048  0.0  -0.612916  1.5e-05  2.209159  0.0  -0.632832  -1.1e-05  2.195093  0.0  -1.358143  -7.1e-05  -0.338767  -0.598443  1e-06  2.218569  0.0
O  O92  1  0.98483446  0.62288498  0.67467231  1  -0.662649  -6.4e-05  1.967159  0.0  -0.612865  1.4e-05  2.209289  0.0  -0.63278  -1.2e-05  2.195218  0.0  -1.358194  -7.1e-05  -0.338744  -0.598393  1e-06  2.2187  0.0
O  O93  1  0.80690634  0.26666264  0.12711558  1  -0.710331  -0.000133  1.931108  0.0  -0.664579  -0.00011  2.175617  0.0  -0.684846  -0.000146  2.161488  0.0  -1.349346  0.000152  -0.392771  -0.650041  0.000129  2.185227  0.0
O  O94  1  0.19309248  0.73332846  0.87288331  1  -0.710189  -0.000132  1.931268  0.0  -0.66444  -0.000112  2.175786  0.0  -0.684709  -0.000149  2.161663  0.0  -1.349286  0.000153  -0.392683  -0.649896  0.000129  2.185387  0.0
O  O95  1  0.44014585  0.75998664  0.17328403  1  -0.714383  0.001592  1.934917  0.002  -0.671796  2.6e-05  2.188563  0.0  -0.689586  -4.9e-05  2.170017  0.0  -1.354142  -0.000165  -0.404841  -0.658916  -5.7e-05  2.201057  0.0
O  O96  1  0.55986337  0.24002064  0.82672187  1  -0.714481  0.001593  1.934796  0.002  -0.671905  2.4e-05  2.188457  0.0  -0.689693  -5.7e-05  2.169908  0.0  -1.353965  -0.000164  -0.404942  -0.659023  -5.6e-05  2.200955  0.0
O  O97  1  0.62269383  0.84572046  0.38486702  1  -0.661051  0.00025  1.951138  0.0  -0.610978  -6.4e-05  2.192219  0.0  -0.63142  -9.6e-05  2.17891  0.0  -1.337687  1.9e-05  -0.336792  -0.596333  7e-05  2.200986  0.0
O  O98  1  0.37730819  0.15428034  0.61513358  1  -0.6611  0.00025  1.951193  0.0  -0.611013  -6.7e-05  2.192234  0.0  -0.63146  -0.0001  2.178929  0.0  -1.337316  1.8e-05  -0.336791  -0.59636  6.9e-05  2.201003  0.0
O  O99  1  0.03012615  0.48824081  0.13864720  1  -0.755032  -0.000238  1.963855  0.0  -0.712602  -0.00012  2.22149  0.0  -0.731412  -0.000119  2.203882  0.0  -1.369691  9.4e-05  -0.433259  -0.698839  9.2e-05  2.233406  0.0
O  O100  1  0.96986949  0.51175784  0.86135091  1  -0.755002  -0.000238  1.963803  0.0  -0.712571  -0.000119  2.221445  0.0  -0.731378  -0.000119  2.203835  0.0  -1.369537  9.4e-05  -0.433257  -0.698807  9.2e-05  2.233362  0.0
O  O101  1  0.90527146  0.14832587  0.86529665  1  -0.661603  4.8e-05  1.919173  0.0  -0.623488  3.6e-05  2.153121  0.0  -0.643701  2.7e-05  2.144538  0.0  -1.202579  -4.9e-05  -0.407232  -0.609523  -4.6e-05  2.159149  0.0
O  O102  1  0.09472648  0.85167062  0.13470632  1  -0.661566  4.9e-05  1.919414  0.0  -0.623496  3.6e-05  2.153343  0.0  -0.643707  2.5e-05  2.144759  0.0  -1.202909  -4.9e-05  -0.407291  -0.609536  -4.6e-05  2.159373  0.0
