# generated using pymatgen
data_CuH4C6(N2Cl)2
_symmetry_space_group_name_H-M   'P 1'
_cell_length_a   7.68612391
_cell_length_b   8.83015645
_cell_length_c   8.83016054
_cell_angle_alpha   62.18582672
_cell_angle_beta   64.18957808
_cell_angle_gamma   64.18960129
_symmetry_Int_Tables_number   1
_chemical_formula_structural   CuH4C6(N2Cl)2
_chemical_formula_sum   'Cu2 H8 C12 N8 Cl4'
_cell_volume   456.43295282
_cell_formula_units_Z   2
loop_
 _symmetry_equiv_pos_site_id
 _symmetry_equiv_pos_as_xyz
  1  'x, y, z'
loop_
 _atom_site_type_symbol
 _atom_site_label
 _atom_site_symmetry_multiplicity
 _atom_site_fract_x
 _atom_site_fract_y
 _atom_site_fract_z
 _atom_site_occupancy
 _atom_site_hle17_ddec_charge
 _atom_site_hle17_ddec_spin_density
 _atom_site_hle17_ddec_sum_bond_order
 _atom_site_hle17_magmom
 _atom_site_hse06_10hf_ddec_charge
 _atom_site_hse06_10hf_ddec_spin_density
 _atom_site_hse06_10hf_ddec_sum_bond_order
 _atom_site_hse06_10hf_magmom
 _atom_site_hse06_ddec_charge
 _atom_site_hse06_ddec_spin_density
 _atom_site_hse06_ddec_sum_bond_order
 _atom_site_hse06_magmom
 _atom_site_pbe_cm5_charge
 _atom_site_pbe_ddec_charge
 _atom_site_pbe_ddec_spin_density
 _atom_site_pbe_ddec_sum_bond_order
 _atom_site_pbe_magmom
Cu  Cu0  1  0.24999959  0.50001646  0.49998238  1  0.665371  0.601712  2.071461  0.446  0.607808  0.734518  2.502484  0.587  0.695926  0.839084  2.440347  0.692  0.782697  0.549732  0.570576  2.546959  0.449
Cu  Cu1  1  0.75000002  0.49998238  0.50001806  1  0.665247  -0.601692  2.071425  -0.446  0.607657  -0.734516  2.502499  -0.587  0.695796  -0.839097  2.440301  -0.692  0.782605  0.549568  -0.570591  2.546967  -0.449
H  H2  1  0.16199463  0.33642167  0.90403455  1  0.11282  -0.00049  0.959893  -0.001  0.118495  -0.000294  1.027876  0.0  0.121168  -0.000245  1.025447  0.0  0.112847  0.116197  -0.000259  1.029981  0.0
H  H3  1  0.40242385  0.66378736  0.09593565  1  0.112409  -0.00049  0.960739  -0.001  0.118174  -0.000294  1.028555  0.0  0.120945  -0.000245  1.026013  0.0  0.112199  0.115841  -0.000259  1.030673  0.0
H  H4  1  0.33800321  0.09596528  0.66357749  1  0.112812  -0.000491  0.959867  -0.001  0.11849  -0.000294  1.02785  0.0  0.121162  -0.000245  1.025422  0.0  0.112826  0.116193  -0.000259  1.029954  0.0
H  H5  1  0.09757874  0.90406432  0.33620870  1  0.112396  -0.000489  0.960692  -0.001  0.118164  -0.000294  1.028507  0.0  0.120935  -0.000244  1.025963  0.0  0.11219  0.115832  -0.000259  1.030624  0.0
H  H6  1  0.83800697  0.66358041  0.09596454  1  0.11274  0.000491  0.959889  0.001  0.118407  0.000294  1.02789  0.0  0.12108  0.000245  1.02546  0.0  0.112763  0.116083  0.000259  1.030019  0.0
H  H7  1  0.59758253  0.33620850  0.90406347  1  0.11239  0.000489  0.960744  0.001  0.118166  0.000294  1.02854  0.0  0.120937  0.000244  1.025997  0.0  0.112199  0.115833  0.000258  1.030655  0.0
H  H8  1  0.66199100  0.90403408  0.33642162  1  0.112758  0.000491  0.959915  0.001  0.118426  0.000294  1.027906  0.0  0.1211  0.000245  1.025475  0.0  0.112777  0.116105  0.000259  1.030032  0.0
H  H9  1  0.90241322  0.09593660  0.66379575  1  0.112433  0.000489  0.960791  0.001  0.118208  0.000294  1.028574  0.0  0.120977  0.000244  1.026033  0.0  0.112224  0.115876  0.000258  1.030689  0.0
C  C10  1  0.03581168  0.34680009  0.87139422  1  -0.037556  -0.002703  3.7329  -0.003  -0.08213  5e-05  4.00058  0.0  -0.074878  -6.1e-05  4.017373  0.0  -0.006139  -0.085831  1.8e-05  3.989166  0.0
C  C11  1  0.25404372  0.65331776  0.12855831  1  -0.037723  -0.002709  3.733139  -0.003  -0.082293  4.9e-05  4.000442  0.0  -0.075148  -6.5e-05  4.017271  0.0  -0.005794  -0.085951  9e-06  3.989038  0.0
C  C12  1  0.46419026  0.12860963  0.65319750  1  -0.03753  -0.002704  3.733008  -0.003  -0.082103  5.1e-05  4.000696  0.0  -0.074853  -6.1e-05  4.017492  0.0  -0.006075  -0.085806  1.8e-05  3.989284  0.0
C  C13  1  0.24595864  0.87144120  0.34668151  1  -0.037719  -0.002713  3.733204  -0.003  -0.082281  4.9e-05  4.000504  0.0  -0.075135  -6.7e-05  4.017333  0.0  -0.005782  -0.085935  9e-06  3.989097  0.0
C  C14  1  0.96419760  0.65319921  0.12860623  1  -0.037403  0.002698  3.732974  0.003  -0.081973  -5.1e-05  4.000633  0.0  -0.074725  5.8e-05  4.017433  0.0  -0.006006  -0.085646  -1.7e-05  3.989218  0.0
C  C15  1  0.74595655  0.34668331  0.87144213  1  -0.037676  0.002706  3.733125  0.003  -0.082248  -4.8e-05  4.000424  0.0  -0.075107  6.3e-05  4.017259  0.0  -0.005792  -0.085903  -7e-06  3.989009  0.0
C  C16  1  0.53580504  0.87139241  0.34680026  1  -0.037418  0.00269  3.732942  0.003  -0.081985  -5.1e-05  4.000602  0.0  -0.074736  5.7e-05  4.017402  0.0  -0.006005  -0.085658  -1.6e-05  3.989188  0.0
C  C17  1  0.75404390  0.12855761  0.65331894  1  -0.037743  0.002703  3.733077  0.003  -0.08231  -4.8e-05  4.000387  0.0  -0.075164  6.1e-05  4.017215  0.0  -0.005818  -0.085963  -7e-06  3.988965  0.0
C  C18  1  0.85194704  0.31185652  0.98418309  1  0.017545  1.9e-05  3.889846  0.0  0.039863  1e-06  4.152224  0.0  0.037229  1e-06  4.172132  0.0  -0.026738  0.041058  3e-06  4.138765  0.0
C  C19  1  0.14805549  0.68814229  0.01581736  1  0.017535  -2e-05  3.889843  0.0  0.039864  -1e-06  4.152197  0.0  0.037229  1e-06  4.172107  0.0  -0.02675  0.041062  -3e-06  4.138733  0.0
C  C20  1  0.64804867  0.01581930  0.68814332  1  0.017547  2.3e-05  3.889817  0.0  0.039859  1e-06  4.152203  0.0  0.037224  1e-06  4.172112  0.0  -0.026754  0.041054  3e-06  4.138747  0.0
C  C21  1  0.35194417  0.98418287  0.31185578  1  0.017542  -1.6e-05  3.889875  0.0  0.039848  -2e-06  4.152261  0.0  0.037213  1e-06  4.17217  0.0  -0.026784  0.041042  -3e-06  4.138804  0.0
N  N22  1  0.03688129  0.40127795  0.69999934  1  -0.214587  0.06024  3.362458  0.078  -0.178792  0.046496  3.694436  0.063  -0.206068  0.040834  3.72073  0.058  -0.293017  -0.161405  0.041036  3.678432  0.054
N  N23  1  0.13816772  0.59878974  0.29998824  1  -0.214746  0.060276  3.362874  0.078  -0.17889  0.046549  3.694996  0.063  -0.206197  0.040873  3.721334  0.058  -0.292941  -0.161491  0.04107  3.678974  0.054
N  N24  1  0.46311880  0.30000034  0.59872129  1  -0.214574  0.060236  3.362456  0.078  -0.178782  0.046496  3.694425  0.063  -0.206057  0.040832  3.72072  0.058  -0.29302  -0.161394  0.041035  3.678422  0.054
N  N25  1  0.36183492  0.70000929  0.40120993  1  -0.21477  0.060277  3.362908  0.078  -0.178933  0.046547  3.695038  0.063  -0.20624  0.040875  3.721372  0.058  -0.292964  -0.161532  0.041069  3.679015  0.054
N  N26  1  0.96312327  0.59872063  0.29999844  1  -0.214586  -0.06023  3.36243  -0.078  -0.178779  -0.046496  3.694402  -0.063  -0.206056  -0.040824  3.720684  -0.058  -0.292998  -0.161389  -0.041033  3.678386  -0.054
N  N27  1  0.86183705  0.40121062  0.70001087  1  -0.214721  -0.060281  3.362838  -0.078  -0.178854  -0.046547  3.694966  -0.063  -0.20616  -0.040871  3.721289  -0.058  -0.292901  -0.161454  -0.041066  3.678938  -0.054
N  N28  1  0.53687809  0.70000067  0.40127781  1  -0.214566  -0.06023  3.362465  -0.078  -0.178754  -0.046497  3.694416  -0.063  -0.206033  -0.040826  3.720698  -0.058  -0.292995  -0.161367  -0.041034  3.678401  -0.054
N  N29  1  0.63816132  0.29998913  0.59879186  1  -0.214707  -0.060282  3.362787  -0.078  -0.178858  -0.04655  3.694922  -0.063  -0.206164  -0.040869  3.721244  -0.058  -0.292918  -0.161458  -0.041068  3.678896  -0.054
Cl  Cl30  1  0.77221063  0.24258604  0.21293129  1  -0.070878  -2e-06  1.459623  0.0  -0.058364  -5e-06  1.700429  0.0  -0.065049  -2e-06  1.69829  0.0  0.008216  -0.053322  5e-06  1.702331  0.0
Cl  Cl31  1  0.22779190  0.75741312  0.78706648  1  -0.070879  1e-06  1.459586  0.0  -0.058373  5e-06  1.700386  0.0  -0.065056  3e-06  1.698247  0.0  0.008207  -0.053332  -4e-06  1.702291  0.0
Cl  Cl32  1  0.72778844  0.78706985  0.75741486  1  -0.070885  -1e-06  1.459594  0.0  -0.058367  -5e-06  1.700402  0.0  -0.065052  -2e-06  1.698264  0.0  0.008212  -0.053325  5e-06  1.702304  0.0
Cl  Cl33  1  0.27221183  0.21293122  0.24258558  1  -0.070876  1e-06  1.459598  0.0  -0.058361  5e-06  1.700405  0.0  -0.065045  3e-06  1.698267  0.0  0.008231  -0.053317  -4e-06  1.702313  0.0
