# generated using pymatgen
data_NiH18C20N2(O3F2)2
_symmetry_space_group_name_H-M   'P 1'
_cell_length_a   7.73360399
_cell_length_b   8.90700289
_cell_length_c   8.99424863
_cell_angle_alpha   100.03921232
_cell_angle_beta   101.93458513
_cell_angle_gamma   115.78968130
_symmetry_Int_Tables_number   1
_chemical_formula_structural   NiH18C20N2(O3F2)2
_chemical_formula_sum   'Ni1 H18 C20 N2 O6 F4'
_cell_volume   520.64390700
_cell_formula_units_Z   1
loop_
 _symmetry_equiv_pos_site_id
 _symmetry_equiv_pos_as_xyz
  1  'x, y, z'
loop_
 _atom_site_type_symbol
 _atom_site_label
 _atom_site_symmetry_multiplicity
 _atom_site_fract_x
 _atom_site_fract_y
 _atom_site_fract_z
 _atom_site_occupancy
 _atom_site_pbe_cm5_charge
 _atom_site_pbe_ddec_charge
 _atom_site_pbe_ddec_spin_density
 _atom_site_pbe_ddec_sum_bond_order
 _atom_site_pbe_magmom
Ni  Ni0  1  0.00000267  0.00000005  0.00000159  1  0.610215  0.665114  -0.017581  2.420778  -0.017
H  H1  1  0.31902096  0.16467014  0.23570969  1  0.288521  0.322087  2.5e-05  1.022139  0.0
H  H2  1  0.68098252  0.83533867  0.76430062  1  0.288518  0.322051  2.4e-05  1.022284  0.0
H  H3  1  0.23165912  0.05128340  0.77831739  1  0.112589  0.081206  0.000716  1.067123  0.001
H  H4  1  0.76833669  0.94871622  0.22168439  1  0.112607  0.081251  0.000717  1.067025  0.001
H  H5  1  0.41538077  0.28460457  0.66158926  1  0.105161  0.119632  0.000199  1.025628  0.0
H  H6  1  0.58460934  0.71538462  0.33840301  1  0.105163  0.119656  0.000199  1.025614  0.0
H  H7  1  0.42363469  0.57197072  0.74155751  1  0.108746  0.110549  0.00022  1.012821  0.0
H  H8  1  0.57635676  0.42801851  0.25843166  1  0.108719  0.110489  0.00022  1.012901  0.0
H  H9  1  0.22809613  0.60634292  0.92445208  1  0.104845  0.107203  0.000199  1.02517  0.0
H  H10  1  0.77190289  0.39365292  0.07553959  1  0.104815  0.107192  0.000199  1.025129  0.0
H  H11  1  0.03895363  0.35475498  0.02055094  1  0.113546  0.081482  0.000623  1.045308  0.001
H  H12  1  0.96105100  0.64524872  0.97944866  1  0.113584  0.081509  0.000623  1.045306  0.001
H  H13  1  0.31189082  0.90975763  0.26375980  1  0.083853  0.0762  -1.9e-05  1.046019  0.0
H  H14  1  0.68810027  0.09024060  0.73624201  1  0.083864  0.076194  -1.9e-05  1.046012  0.0
H  H15  1  0.54952401  0.03905494  0.23587603  1  0.086129  0.085218  0.002913  1.025792  0.003
H  H16  1  0.45046360  0.96093934  0.76412558  1  0.086132  0.085229  0.002914  1.02573  0.003
H  H17  1  0.34300020  0.86873047  0.07148231  1  0.0961  0.099295  0.00043  1.010844  0.001
H  H18  1  0.65698688  0.13126768  0.92851989  1  0.09611  0.099305  0.00043  1.010835  0.001
C  C19  1  0.11323304  0.27493359  0.30934631  1  0.221824  0.605928  -0.001402  4.196529  0.001
C  C20  1  0.88681205  0.72508123  0.69067463  1  0.221779  0.606045  -0.001401  4.196304  0.001
C  C21  1  0.05517569  0.39044992  0.40919381  1  -0.023962  -0.206446  -0.007669  4.033897  -0.006
C  C22  1  0.94483171  0.60955639  0.59081230  1  -0.023967  -0.206466  -0.00767  4.034014  -0.006
C  C23  1  0.92069852  0.32631544  0.49322763  1  0.08937  0.147804  -0.001921  4.102018  -0.001
C  C24  1  0.07930006  0.67368684  0.50677288  1  0.089405  0.147843  -0.001919  4.102063  -0.001
C  C25  1  0.13286076  0.56630401  0.41820846  1  0.08988  0.149273  -0.002219  4.096015  -0.001
C  C26  1  0.86714192  0.43370095  0.58178991  1  0.089914  0.149299  -0.002216  4.096179  -0.001
C  C27  1  0.23301333  0.17549384  0.80571451  1  0.043789  0.084712  0.000265  3.915148  0.0
C  C28  1  0.76697829  0.82450055  0.19427894  1  0.043772  0.084675  0.000266  3.915215  0.0
C  C29  1  0.33773751  0.30707499  0.74358107  1  -0.083553  -0.12272  0.001255  3.958743  0.001
C  C30  1  0.66225207  0.69291807  0.25640956  1  -0.083516  -0.122732  0.001255  3.958585  0.001
C  C31  1  0.33978358  0.46598780  0.78656860  1  -0.06668  -0.021647  -0.000554  3.946821  0.0
C  C32  1  0.66021196  0.53400409  0.21342288  1  -0.066671  -0.021559  -0.000554  3.946646  0.0
C  C33  1  0.23155221  0.48479562  0.88779163  1  -0.087807  -0.134906  0.001339  3.992977  0.001
C  C34  1  0.76844824  0.51520284  0.11220186  1  -0.087775  -0.134888  0.001339  3.992832  0.001
C  C35  1  0.12573580  0.34562033  0.94190686  1  0.039759  0.076733  0.000404  3.930635  0.0
C  C36  1  0.87426269  0.65437937  0.05808874  1  0.039693  0.076647  0.000403  3.930693  0.0
C  C37  1  0.38387068  0.97048204  0.18092803  1  -0.156046  -0.114664  0.002639  3.924268  0.001
C  C38  1  0.61611907  0.02951616  0.81907576  1  -0.1561  -0.114695  0.002639  3.924185  0.001
N  N39  1  0.12715327  0.19286827  0.90314146  1  -0.325762  -0.199691  0.019573  3.579073  0.018
N  N40  1  0.87284726  0.80713275  0.09685917  1  -0.325782  -0.199717  0.019573  3.579271  0.018
O  O41  1  0.97859384  0.17792687  0.17453026  1  -0.295157  -0.528612  -0.05844  2.348933  -0.063
O  O42  1  0.02141319  0.82206910  0.82547509  1  -0.295038  -0.528516  -0.058399  2.349639  -0.063
O  O43  1  0.28253810  0.28632522  0.36575082  1  -0.294314  -0.50225  -0.000191  2.149836  0.0
O  O44  1  0.71746690  0.71368881  0.63425400  1  -0.294467  -0.502516  -0.000194  2.148715  0.0
O  O45  1  0.31882766  0.08907040  0.13754589  1  -0.402712  -0.437312  0.051063  2.46399  0.053
O  O46  1  0.68117021  0.91093055  0.86245981  1  -0.402698  -0.437264  0.051066  2.464132  0.053
F  F47  1  0.25889786  0.63412830  0.33370953  1  -0.07353  -0.105259  -0.000427  1.42138  -0.001
F  F48  1  0.74110750  0.36587671  0.66628820  1  -0.073588  -0.105304  -0.000426  1.421567  -0.001
F  F49  1  0.84463680  0.15717634  0.49398415  1  -0.079624  -0.106307  -0.000254  1.388364  0.0
F  F50  1  0.15535964  0.84282202  0.50601196  1  -0.079655  -0.106348  -0.000254  1.388386  0.0
