# generated using pymatgen
data_ZnH22C24BrNO6
_symmetry_space_group_name_H-M   'P 1'
_cell_length_a   11.03012501
_cell_length_b   14.11500228
_cell_length_c   15.22802938
_cell_angle_alpha   87.93783753
_cell_angle_beta   89.32630154
_cell_angle_gamma   88.91591065
_symmetry_Int_Tables_number   1
_chemical_formula_structural   ZnH22C24BrNO6
_chemical_formula_sum   'Zn2 H44 C48 Br2 N2 O12'
_cell_volume   2368.75043968
_cell_formula_units_Z   2
loop_
 _symmetry_equiv_pos_site_id
 _symmetry_equiv_pos_as_xyz
  1  'x, y, z'
loop_
 _atom_site_type_symbol
 _atom_site_label
 _atom_site_symmetry_multiplicity
 _atom_site_fract_x
 _atom_site_fract_y
 _atom_site_fract_z
 _atom_site_occupancy
 _atom_site_pbe_bader_charge
 _atom_site_pbe_bader_spin_density
 _atom_site_pbe_cm5_charge
 _atom_site_pbe_ddec_charge
 _atom_site_pbe_ddec_spin_density
 _atom_site_pbe_ddec_sum_bond_order
 _atom_site_pbe_magmom
Zn  Zn0  1  0.49674865  0.60359536  0.49584091  1  1.310032  0  0.675694  0.873205  0  2.318645  0
Zn  Zn1  1  0.50021017  0.39841257  0.49513702  1  1.273795  0  0.6723  0.825642  0  2.416607  0
H  H2  1  0.62049493  0.94140117  0.39522781  1  0.082209  0  0.109271  0.126717  0  1.031031  0
H  H3  1  0.58142743  0.62725875  0.20798672  1  0.076092  0  0.100311  0.097303  0  1.030052  0
H  H4  1  0.50633819  0.35897966  0.94981292  1  0.067297  0  0.103086  0.118165  0  1.002787  0
H  H5  1  0.32131913  0.39711401  0.06403779  1  0.059846  0  0.105636  0.121692  0  0.997024  0
H  H6  1  0.30550570  0.07447601  0.54032380  1  0.09041  0  0.114902  0.118948  0  0.987422  0
H  H7  1  0.68713466  0.06530169  0.47239359  1  0.086534  0  0.113764  0.121696  0  0.988611  0
H  H8  1  0.31789886  0.25208506  0.53560669  1  0.157074  0  0.127634  0.103539  0  0.995715  0
H  H9  1  0.68192542  0.24342314  0.46951209  1  0.148055  0  0.130332  0.111777  0  0.97802  0
H  H10  1  0.72608187  0.73389909  0.27826537  1  0.065724  0  0.113465  0.084637  0  0.975642  0
H  H11  1  0.73013016  0.85056924  0.31728372  1  0.049564  0  0.100875  0.060838  0  0.977715  0
H  H12  1  0.50169257  0.76082817  0.24517277  1  0.048617  0  0.09869  0.102095  0  0.989282  0
H  H13  1  0.36286096  0.93101700  0.61136854  1  0.080036  0  0.11267  0.136339  0  1.01065  0
H  H14  1  0.51613409  0.88132987  0.26910879  1  0.033592  0  0.08847  0.081862  0  0.992461  0
H  H15  1  0.67306112  0.90117614  0.14694775  1  0.037145  0  0.085923  0.109963  0  1.003089  0
H  H16  1  0.53443296  0.85914249  0.10675195  1  0.049646  0  0.092454  0.122787  0  0.991776  0
H  H17  1  0.65903080  0.77962001  0.12315288  1  0.015912  0  0.087644  0.113133  0  1.00877  0
H  H18  1  0.19833319  0.73124082  0.53717571  1  0.095125  0  0.10244  0.073538  0  0.980998  0
H  H19  1  0.19586951  0.83103554  0.60750080  1  0.013638  0  0.091018  0.044795  0  0.99553  0
H  H20  1  0.19553400  0.62236959  0.67012412  1  0.046978  0  0.087567  0.091485  0  1.016484  0
H  H21  1  0.18178226  0.72070810  0.73865001  1  0.019281  0  0.089225  0.082545  0  0.968743  0
H  H22  1  0.98267394  0.76850216  0.66594001  1  0.015903  0  0.07963  0.101601  0  1.009307  0
H  H23  1  0.97679835  0.65024336  0.70935633  1  0.020133  0  0.086957  0.120606  0  1.005587  0
H  H24  1  0.23262733  0.56119054  0.35020827  1  0.093479  0  0.102132  0.112729  0  1.025949  0
H  H25  1  0.99884633  0.67152859  0.59518677  1  0.039163  0  0.084867  0.117504  0  1.011149  0
H  H26  1  0.40105899  0.27344484  0.73614138  1  0.045112  0  0.089985  0.054562  0  0.997286  0
H  H27  1  0.43713871  0.23969588  0.84756857  1  0.046084  0  0.088288  0.04274  0  0.98771  0
H  H28  1  0.58172311  0.18736641  0.68225663  1  0.037186  0  0.088412  0.083983  0  0.99408  0
H  H29  1  0.63266795  0.16407495  0.79036870  1  0.03911  0  0.093027  0.087827  0  0.967464  0
H  H30  1  0.45440544  0.05998401  0.82366679  1  0.014222  0  0.083534  0.107956  0  1.005893  0
H  H31  1  0.53291449  0.02015290  0.72915962  1  0.043458  0  0.084181  0.113373  0  1.005486  0
H  H32  1  0.39522391  0.08623636  0.71755071  1  0.01707  0  0.077099  0.097525  0  1.030763  0
H  H33  1  0.44025042  0.28319548  0.26724909  1  0.053346  0  0.093049  0.058023  0  0.990418  0
H  H34  1  0.34983253  0.26260233  0.17287612  1  0.00187  0  0.088416  0.041252  0  0.988283  0
H  H35  1  0.78189195  0.54820185  0.33380011  1  0.042829  0  0.102653  0.113435  0  1.00783  0
H  H36  1  0.25875009  0.26601114  0.36390412  1  0.03683  0  0.092976  0.094185  0  0.987848  0
H  H37  1  0.16599460  0.24971532  0.27218880  1  0.027827  0  0.09418  0.089813  0  0.963573  0
H  H38  1  0.28191580  0.09957826  0.23690767  1  0.0177  0  0.08225  0.105303  0  1.008495  0
H  H39  1  0.22394666  0.09152454  0.34596693  1  0.024467  0  0.082775  0.108995  0  1.008685  0
H  H40  1  0.37936494  0.11566988  0.32690050  1  0.030529  0  0.076546  0.098933  0  1.032879  0
H  H41  1  0.12887257  0.60799197  0.21278663  1  0.051536  0  0.100483  0.098952  0  0.99196  0
H  H42  1  0.90308174  0.60017185  0.20394512  1  0.049876  0  0.096356  0.09025  0  1.005805  0
H  H43  1  0.40506397  0.65459338  0.91981221  1  0.062284  0  0.096408  0.097935  0  1.008283  0
H  H44  1  0.57045250  0.62867829  0.04429704  1  0.047135  0  0.097305  0.098171  0  1.016368  0
H  H45  1  0.43400065  0.64447420  0.75704906  1  0.114022  0  0.10413  0.112395  0  1.011788  0
C  C46  1  0.49898015  0.49705117  0.66418593  1  1.579332  0  0.210746  0.601069  0  4.182016  0
C  C47  1  0.44743356  0.51162429  0.04279845  1  0.012667  0  -0.007886  0.091556  0  4.02288  0
C  C48  1  0.39142814  0.10856565  0.52524556  1  -0.005739  0  -0.071263  -0.166254  0  3.941284  0
C  C49  1  0.60255588  0.10356647  0.48552710  1  0.077265  0  -0.077541  -0.178333  0  3.948395  0
C  C50  1  0.39681583  0.20685369  0.52231775  1  0.433729  0  0.06576  0.109054  0  3.900161  0
C  C51  1  0.60108700  0.20202769  0.48397716  1  0.409262  0  0.063499  0.103153  0  3.919167  0
C  C52  1  0.49556769  0.05460931  0.50545057  1  -0.041244  0  0.018069  0.108348  0  3.971591  0
C  C53  1  0.56462938  0.90237598  0.44274719  1  -0.013594  0  -0.109897  -0.336458  0  3.968954  0
C  C54  1  0.41823540  0.89747437  0.56129303  1  0.066164  0  -0.106042  -0.331861  0  3.957711  0
C  C55  1  0.56144269  0.80344100  0.44260100  1  1.030264  0  0.22548  0.437431  0  4.054109  0
C  C56  1  0.42023650  0.79865945  0.55700341  1  1.027121  0  0.225888  0.440302  0  4.059152  0
C  C57  1  0.47698675  0.50776016  0.32551522  1  1.593862  0  0.216013  0.61026  0  4.173575  0
C  C58  1  0.49252137  0.95020254  0.50363171  1  0.049253  0  0.009874  0.150126  0  4.042446  0
C  C59  1  0.26199923  0.49182839  0.50180482  1  1.600317  0  0.212439  0.600083  0  4.219358  0
C  C60  1  0.73408545  0.49012362  0.48965086  1  1.644342  0  0.212451  0.608321  0  4.196559  0
C  C61  1  0.13421264  0.55780468  0.34694717  1  -0.063315  0  -0.088643  -0.116252  0  3.949726  0
C  C62  1  0.88033730  0.55072267  0.33767914  1  0.002385  0  -0.094656  -0.13112  0  3.977397  0
C  C63  1  0.07589703  0.58459647  0.27022336  1  -0.003088  0  -0.096505  -0.086063  0  4.042245  0
C  C64  1  0.94817597  0.58039344  0.26548441  1  -0.089879  0  -0.10067  -0.098918  0  4.074841  0
C  C65  1  0.93755642  0.52281395  0.41797784  1  -0.032761  0  -0.003314  0.065177  0  3.967642  0
C  C66  1  0.06703909  0.52543027  0.42201204  1  0.09723  0  -0.003999  0.060298  0  3.967646  0
C  C67  1  0.12558161  0.49323964  0.50080729  1  -0.012635  0  -0.015043  -0.104237  0  3.953074  0
C  C68  1  0.48451888  0.49730586  0.76209725  1  -0.010801  0  -0.024868  -0.1331  0  3.937457  0
C  C69  1  0.87047686  0.49092778  0.49382534  1  0.078882  0  -0.016056  -0.10596  0  3.933399  0
C  C70  1  0.05858014  0.46159705  0.57282148  1  -0.013472  0  -0.023622  0.028846  0  3.971812  0
C  C71  1  0.92988005  0.46160028  0.57002434  1  -0.171158  0  -0.023715  0.025195  0  3.979272  0
C  C72  1  0.43262595  0.58778316  0.89100869  1  -0.025958  0  -0.103879  -0.162019  0  4.019012  0
C  C73  1  0.51744468  0.57865364  0.08434194  1  -0.111178  0  -0.102114  -0.157898  0  4.01582  0
C  C74  1  0.44864229  0.58248169  0.80066787  1  -0.085024  0  -0.08487  -0.06844  0  3.990744  0
C  C75  1  0.52372105  0.57779329  0.17549902  1  -0.03434  0  -0.092307  -0.088771  0  4.02974  0
C  C76  1  0.66970531  0.79108653  0.30527640  1  0.382102  0  -0.056122  0.037079  0  3.8621  0
C  C77  1  0.56597010  0.81949393  0.24396219  1  -0.010482  0  -0.171417  -0.151168  0  3.984648  0
C  C78  1  0.61083804  0.84115038  0.15022418  1  -0.088774  0  -0.240125  -0.349223  0  3.977592  0
C  C79  1  0.46055173  0.51121786  0.22779249  1  0.013167  0  -0.023084  -0.127137  0  3.952517  0
C  C80  1  0.22138004  0.75538184  0.60280842  1  0.366714  0  -0.061973  0.047177  0  3.862994  0
C  C81  1  0.15926096  0.69517039  0.67343332  1  0.027115  0  -0.169684  -0.130662  0  3.973396  0
C  C82  1  0.02196016  0.69670533  0.66029647  1  -0.065404  0  -0.245094  -0.351629  0  3.961856  0
C  C83  1  0.47622690  0.25535121  0.78146260  1  0.397487  0  -0.067549  0.047619  0  3.902822  0
C  C84  1  0.55065167  0.17134433  0.74998681  1  -0.006797  0  -0.168915  -0.128328  0  3.980161  0
C  C85  1  0.47948152  0.07946071  0.75536044  1  -0.089777  0  -0.246733  -0.352339  0  3.994734  0
C  C86  1  0.34798847  0.28988690  0.24009682  1  0.424676  0  -0.068347  0.047428  0  3.900374  0
C  C87  1  0.25776552  0.23636935  0.29805577  1  0.011451  0  -0.168197  -0.129987  0  3.969274  0
C  C88  1  0.28728377  0.13010034  0.30219016  1  -0.085494  0  -0.24715  -0.352918  0  4.003891  0
C  C89  1  0.50453631  0.41650454  0.81728700  1  0.508832  0  0.084787  0.246525  0  4.044943  0
C  C90  1  0.38591465  0.44704536  0.18647668  1  0.520332  0  0.086215  0.241536  0  4.05871  0
C  C91  1  0.48566897  0.42142135  0.90795770  1  -0.057331  0  -0.104112  -0.257516  0  3.972734  0
C  C92  1  0.38056908  0.44699764  0.09482861  1  -0.03795  0  -0.101011  -0.253763  0  3.968114  0
C  C93  1  0.45150566  0.50686268  0.94598180  1  0.017262  0  -0.007407  0.094951  0  4.024881  0
Br  Br94  1  0.14243389  0.41858871  0.67587074  1  -0.050581  0  0.033586  -0.052106  0  1.524363  0
Br  Br95  1  0.83801620  0.42436093  0.67139966  1  -0.029695  0  0.033291  -0.031222  0  1.513463  0
N  N96  1  0.49955276  0.25258610  0.50110614  1  -1.229304  0  -0.315672  -0.191442  0  3.502058  0
N  N97  1  0.49118495  0.75231525  0.49930622  1  -1.218201  0  -0.3182  -0.382833  0  3.375816  0
O  O98  1  0.52258833  0.57649326  0.62631718  1  -1.164202  0  -0.318952  -0.547259  0  2.353131  0
O  O99  1  0.35254627  0.74382611  0.61209128  1  -1.071815  0  -0.177286  -0.231889  0  2.508856  0
O  O100  1  0.55520863  0.33495562  0.78442553  1  -1.074538  0  -0.205689  -0.236576  0  2.534424  0
O  O101  1  0.31234412  0.38866510  0.23702250  1  -1.089198  0  -0.20261  -0.239223  0  2.521451  0
O  O102  1  0.46616786  0.58644391  0.36377748  1  -1.162295  0  -0.317048  -0.558317  0  2.324305  0
O  O103  1  0.48312098  0.41941729  0.62615782  1  -1.154968  0  -0.316382  -0.551539  0  2.382801  0
O  O104  1  0.50324919  0.42749918  0.36133408  1  -1.153802  0  -0.312777  -0.539938  0  2.326385  0
O  O105  1  0.31248741  0.57002013  0.51404397  1  -1.15595  0  -0.30017  -0.537194  0  2.341824  0
O  O106  1  0.68101801  0.57007138  0.48079996  1  -1.158463  0  -0.308137  -0.541303  0  2.334947  0
O  O107  1  0.31300839  0.41257587  0.48721671  1  -1.157783  0  -0.308581  -0.539884  0  2.344876  0
O  O108  1  0.68543952  0.40912577  0.49376989  1  -1.16038  0  -0.316402  -0.550444  0  2.350535  0
O  O109  1  0.62601936  0.74976900  0.38765017  1  -1.061619  0  -0.155394  -0.190761  0  2.555472  0
