# generated using pymatgen
data_K2H8C4S9O
_symmetry_space_group_name_H-M   'P 1'
_cell_length_a   8.89131172
_cell_length_b   9.77690906
_cell_length_c   18.53158632
_cell_angle_alpha   90.00009955
_cell_angle_beta   90.00008119
_cell_angle_gamma   89.99995661
_symmetry_Int_Tables_number   1
_chemical_formula_structural   K2H8C4S9O
_chemical_formula_sum   'K8 H32 C16 S36 O4'
_cell_volume   1610.94238758
_cell_formula_units_Z   4
loop_
 _symmetry_equiv_pos_site_id
 _symmetry_equiv_pos_as_xyz
  1  'x, y, z'
loop_
 _atom_site_type_symbol
 _atom_site_label
 _atom_site_symmetry_multiplicity
 _atom_site_fract_x
 _atom_site_fract_y
 _atom_site_fract_z
 _atom_site_occupancy
 _atom_site_hle17_bader_spin_density
 _atom_site_hle17_ddec_charge
 _atom_site_hle17_ddec_spin_density
 _atom_site_hle17_ddec_sum_bond_order
 _atom_site_hle17_magmom
 _atom_site_hse06_10hf_bader_spin_density
 _atom_site_hse06_10hf_ddec_charge
 _atom_site_hse06_10hf_ddec_spin_density
 _atom_site_hse06_10hf_ddec_sum_bond_order
 _atom_site_hse06_10hf_magmom
 _atom_site_hse06_bader_spin_density
 _atom_site_hse06_ddec_charge
 _atom_site_hse06_ddec_spin_density
 _atom_site_hse06_ddec_sum_bond_order
 _atom_site_hse06_magmom
 _atom_site_pbe_bader_spin_density
 _atom_site_pbe_cm5_charge
 _atom_site_pbe_ddec_charge
 _atom_site_pbe_ddec_spin_density
 _atom_site_pbe_ddec_sum_bond_order
 _atom_site_pbe_magmom
K  K0  1  0.27464022  0.43055256  0.25000047  1  0  0.855157  0  0.562007  0  0  0.785821  0  0.78246  0  0  0.798722  0  0.765257  0  0  0.56735  0.776392  0  0.794529  0
K  K1  1  0.72536068  0.56944785  0.74999943  1  0  0.855143  0  0.562026  0  0  0.785817  0  0.78246  0  0  0.798713  0  0.765264  0  0  0.567361  0.776393  0  0.794531  0
K  K2  1  0.22536140  0.43055137  0.75000028  1  0  0.855146  0  0.56202  0  0  0.785829  0  0.782439  0  0  0.798724  0  0.765244  0  0  0.567358  0.776402  0  0.794505  0
K  K3  1  0.77463838  0.56945108  0.25000016  1  0  0.855148  0  0.562018  0  0  0.785806  0  0.782482  0  0  0.798705  0  0.765279  0  0  0.567352  0.776381  0  0.794552  0
K  K4  1  0.24999966  0.49156102  0.50000067  1  0  0.811014  0  0.601628  0  0  0.732819  0  0.828752  0  0  0.742342  0  0.817342  0  0  0.459113  0.72585  0  0.836691  0
K  K5  1  0.75000086  0.50844126  0.99999960  1  0  0.811018  0  0.601616  0  0  0.732823  0  0.828742  0  0  0.742346  0  0.817333  0  0  0.459112  0.725857  0  0.836683  0
K  K6  1  0.75000124  0.50844041  0.49999977  1  0  0.811016  0  0.601623  0  0  0.732813  0  0.828758  0  0  0.742341  0  0.817345  0  0  0.459111  0.725848  0  0.8367  0
K  K7  1  0.24999928  0.49155778  0.99999942  1  0  0.811015  0  0.601623  0  0  0.732821  0  0.828748  0  0  0.742344  0  0.817339  0  0  0.45911  0.725855  0  0.836693  0
H  H8  1  0.13310906  0.18278839  0.35806068  1  0  0.042778  0  0.971539  0  0  0.051345  0  1.051962  0  0  0.051253  0  1.052085  0  0  0.084568  0.051287  0  1.052098  0
H  H9  1  0.86689104  0.81721136  0.85805996  1  0  0.042737  0  0.971448  0  0  0.051313  0  1.05186  0  0  0.051221  0  1.051982  0  0  0.084521  0.05125  0  1.052  0
H  H10  1  0.36689163  0.18277754  0.64193769  1  0  0.042676  0  0.971599  0  0  0.051218  0  1.052031  0  0  0.051126  0  1.052155  0  0  0.084508  0.051162  0  1.052161  0
H  H11  1  0.63311119  0.81721126  0.14194147  1  0  0.042751  0  0.971424  0  0  0.051332  0  1.051838  0  0  0.051242  0  1.05196  0  0  0.084547  0.051268  0  1.051981  0
H  H12  1  0.86689072  0.81721100  0.64193922  1  0  0.042755  0  0.971423  0  0  0.051312  0  1.051856  0  0  0.051221  0  1.051979  0  0  0.084533  0.051248  0  1.051998  0
H  H13  1  0.13310873  0.18278700  0.14194048  1  0  0.042731  0  0.971509  0  0  0.051305  0  1.051918  0  0  0.051213  0  1.052042  0  0  0.084535  0.051243  0  1.052056  0
H  H14  1  0.63310814  0.81722287  0.35806275  1  0  0.042712  0  0.971567  0  0  0.05125  0  1.052004  0  0  0.051157  0  1.052128  0  0  0.084521  0.051193  0  1.052137  0
H  H15  1  0.36688858  0.18278813  0.85805843  1  0  0.042694  0  0.97151  0  0  0.051267  0  1.051942  0  0  0.051174  0  1.052064  0  0  0.084516  0.051211  0  1.05208  0
H  H16  1  0.14579674  0.01259446  0.32351095  1  0  0.040242  0  0.942129  0  0  0.05211  0  1.012795  0  0  0.052402  0  1.012699  0  0  0.08372  0.05182  0  1.012984  0
H  H17  1  0.85420101  0.98740518  0.82350983  1  0  0.040225  0  0.942124  0  0  0.052076  0  1.012812  0  0  0.052365  0  1.012721  0  0  0.083712  0.051783  0  1.013  0
H  H18  1  0.35420184  0.01258373  0.67648997  1  0  0.040185  0  0.942134  0  0  0.052028  0  1.012811  0  0  0.052319  0  1.012719  0  0  0.083703  0.051737  0  1.012998  0
H  H19  1  0.64579885  0.98740825  0.17649013  1  0  0.040187  0  0.942153  0  0  0.052039  0  1.012858  0  0  0.052331  0  1.012766  0  0  0.083698  0.051746  0  1.013046  0
H  H20  1  0.85420191  0.98740595  0.67648949  1  0  0.040246  0  0.942118  0  0  0.052103  0  1.012794  0  0  0.052395  0  1.0127  0  0  0.083711  0.051808  0  1.012983  0
H  H21  1  0.14580102  0.01259216  0.17649007  1  0  0.040229  0  0.942097  0  0  0.05207  0  1.012805  0  0  0.052362  0  1.012712  0  0  0.083695  0.051778  0  1.012992  0
H  H22  1  0.64579682  0.98741770  0.32350993  1  0  0.040209  0  0.942114  0  0  0.052041  0  1.012795  0  0  0.052331  0  1.012703  0  0  0.083697  0.05175  0  1.012983  0
H  H23  1  0.35420206  0.01259216  0.82351031  1  0  0.040201  0  0.942135  0  0  0.052065  0  1.01283  0  0  0.052357  0  1.012737  0  0  0.08371  0.051778  0  1.013015  0
H  H24  1  0.88127193  0.20736534  0.31297144  1  0  0.068082  0  0.964275  0  0  0.080398  0  1.036651  0  0  0.081561  0  1.036719  0  0  0.077748  0.079478  0  1.036747  0
H  H25  1  0.11872804  0.79263323  0.81297289  1  0  0.068064  0  0.964214  0  0  0.080438  0  1.036575  0  0  0.0816  0  1.036644  0  0  0.077793  0.079513  0  1.036678  0
H  H26  1  0.61872517  0.20736403  0.68702675  1  0  0.06806  0  0.964199  0  0  0.080441  0  1.036526  0  0  0.081604  0  1.036593  0  0  0.077763  0.079521  0  1.036628  0
H  H27  1  0.38127217  0.79263413  0.18702818  1  0  0.067993  0  0.964286  0  0  0.080419  0  1.036581  0  0  0.081582  0  1.03665  0  0  0.07776  0.079494  0  1.036683  0
H  H28  1  0.11872785  0.79263404  0.68702738  1  0  0.068118  0  0.964239  0  0  0.080439  0  1.036618  0  0  0.081601  0  1.036687  0  0  0.077784  0.079513  0  1.036725  0
H  H29  1  0.88127174  0.20736615  0.18702647  1  0  0.067944  0  0.964264  0  0  0.080365  0  1.036561  0  0  0.081528  0  1.03663  0  0  0.077735  0.079442  0  1.036663  0
H  H30  1  0.38127460  0.79263638  0.31297315  1  0  0.068059  0  0.964202  0  0  0.080443  0  1.036528  0  0  0.081605  0  1.036596  0  0  0.07776  0.079522  0  1.036627  0
H  H31  1  0.61872761  0.20736833  0.81297226  1  0  0.067952  0  0.964248  0  0  0.080371  0  1.036555  0  0  0.081534  0  1.036623  0  0  0.077745  0.079452  0  1.036653  0
H  H32  1  0.88265200  0.02580285  0.31401444  1  0  0.07175  0  0.97412  0  0  0.084552  0  1.04459  0  0  0.085227  0  1.045087  0  0  0.08245  0.084016  0  1.044322  0
H  H33  1  0.11734684  0.97419880  0.81401336  1  0  0.071737  0  0.974078  0  0  0.084586  0  1.044543  0  0  0.08526  0  1.04504  0  0  0.082457  0.084037  0  1.044284  0
H  H34  1  0.61734974  0.02580153  0.68598736  1  0  0.071712  0  0.974139  0  0  0.084554  0  1.044588  0  0  0.085229  0  1.045081  0  0  0.082451  0.083999  0  1.044339  0
H  H35  1  0.38265321  0.97420071  0.18598572  1  0  0.071736  0  0.974082  0  0  0.084592  0  1.044545  0  0  0.085268  0  1.045038  0  0  0.082459  0.08404  0  1.04429  0
H  H36  1  0.11734778  0.97419756  0.68598600  1  0  0.071767  0  0.974098  0  0  0.084594  0  1.044553  0  0  0.08527  0  1.045048  0  0  0.082455  0.084046  0  1.044294  0
H  H37  1  0.88265406  0.02580059  0.18598708  1  0  0.071733  0  0.974095  0  0  0.084555  0  1.044587  0  0  0.085231  0  1.045081  0  0  0.08245  0.084005  0  1.044328  0
H  H38  1  0.38264891  0.97419888  0.31401254  1  0  0.071701  0  0.97413  0  0  0.08454  0  1.044586  0  0  0.085216  0  1.045078  0  0  0.082441  0.083978  0  1.044345  0
H  H39  1  0.61734769  0.02580175  0.81401472  1  0  0.07174  0  0.974076  0  0  0.084577  0  1.044547  0  0  0.085253  0  1.045041  0  0  0.082443  0.084024  0  1.044294  0
C  C40  1  0.10554840  0.11713056  0.31192266  1  0  0.088831  0  3.621562  0  0  0.036263  0  3.887541  0  0  0.042855  0  3.89436  0  0  -0.086049  0.031812  0  3.882834  0
C  C41  1  0.89445494  0.88287211  0.81192093  1  0  0.088917  0  3.621548  0  0  0.036382  0  3.887539  0  0  0.042974  0  3.89436  0  0  -0.085985  0.031938  0  3.882821  0
C  C42  1  0.39445571  0.11712393  0.68807781  1  0  0.088974  0  3.621631  0  0  0.036474  0  3.887555  0  0  0.043063  0  3.894379  0  0  -0.086001  0.032031  0  3.882828  0
C  C43  1  0.60554500  0.88287422  0.18807894  1  0  0.089022  0  3.621436  0  0  0.036435  0  3.887479  0  0  0.043023  0  3.894305  0  0  -0.085985  0.031996  0  3.882758  0
C  C44  1  0.89445250  0.88286985  0.68807832  1  0  0.088882  0  3.621505  0  0  0.036344  0  3.887463  0  0  0.042931  0  3.89429  0  0  -0.08599  0.03191  0  3.882737  0
C  C45  1  0.10554597  0.11712932  0.18807897  1  0  0.088885  0  3.62162  0  0  0.036351  0  3.887594  0  0  0.042938  0  3.894422  0  0  -0.085989  0.031913  0  3.882866  0
C  C46  1  0.60554406  0.88287750  0.31192155  1  0  0.088888  0  3.621683  0  0  0.036395  0  3.887603  0  0  0.042983  0  3.894429  0  0  -0.086023  0.031949  0  3.882882  0
C  C47  1  0.39445478  0.11712721  0.81192150  1  0  0.089104  0  3.621388  0  0  0.036506  0  3.88746  0  0  0.043098  0  3.89428  0  0  -0.08594  0.03205  0  3.882752  0
C  C48  1  0.93850758  0.11633447  0.29179136  1  0  -0.144908  0  3.636317  0  0  -0.179756  0  3.882743  0  0  -0.181633  0  3.89502  0  0  -0.175517  -0.178279  0  3.874235  0
C  C49  1  0.06148782  0.88367017  0.79179070  1  0  -0.144877  0  3.636354  0  0  -0.179879  0  3.882869  0  0  -0.181757  0  3.895151  0  0  -0.175601  -0.17839  0  3.874358  0
C  C50  1  0.56149072  0.11632304  0.70820837  1  0  -0.144833  0  3.636411  0  0  -0.179767  0  3.882811  0  0  -0.181644  0  3.895093  0  0  -0.1755  -0.178279  0  3.874315  0
C  C51  1  0.43851456  0.88367314  0.20821045  1  0  -0.144861  0  3.636402  0  0  -0.179891  0  3.882913  0  0  -0.181772  0  3.895199  0  0  -0.175552  -0.178401  0  3.874406  0
C  C52  1  0.06149107  0.88366798  0.70820908  1  0  -0.144989  0  3.636356  0  0  -0.179858  0  3.882782  0  0  -0.181733  0  3.895059  0  0  -0.175573  -0.178368  0  3.874271  0
C  C53  1  0.93851421  0.11632615  0.20820974  1  0  -0.144753  0  3.636418  0  0  -0.17974  0  3.882861  0  0  -0.181619  0  3.895147  0  0  -0.175518  -0.17826  0  3.874364  0
C  C54  1  0.43850906  0.88367737  0.29179207  1  0  -0.144839  0  3.636378  0  0  -0.179772  0  3.882784  0  0  -0.181649  0  3.895066  0  0  -0.175521  -0.178278  0  3.874286  0
C  C55  1  0.56148522  0.11632625  0.79178945  1  0  -0.144862  0  3.63637  0  0  -0.179848  0  3.882849  0  0  -0.18173  0  3.895134  0  0  -0.175549  -0.178356  0  3.874347  0
S  S56  1  0.50751264  0.52871458  0.37331491  1  0  -0.674951  0  1.942067  0  0  -0.635493  0  2.317555  0  0  -0.651982  0  2.310372  0  0  -0.383444  -0.623219  0  2.322148  0
S  S57  1  0.49248750  0.47128522  0.87331417  1  0  -0.674956  0  1.942027  0  0  -0.635505  0  2.317527  0  0  -0.651992  0  2.310346  0  0  -0.383452  -0.623233  0  2.322133  0
S  S58  1  0.99248870  0.52871484  0.62668572  1  0  -0.674971  0  1.941975  0  0  -0.635515  0  2.317461  0  0  -0.652005  0  2.31028  0  0  -0.383456  -0.623242  0  2.322052  0
S  S59  1  0.00751183  0.47128617  0.12668607  1  0  -0.674972  0  1.941988  0  0  -0.635524  0  2.317493  0  0  -0.652013  0  2.310314  0  0  -0.38346  -0.623251  0  2.322095  0
S  S60  1  0.49248826  0.47128480  0.62668499  1  0  -0.674958  0  1.942005  0  0  -0.635501  0  2.317483  0  0  -0.651989  0  2.310301  0  0  -0.38344  -0.623224  0  2.322082  0
S  S61  1  0.50751227  0.52871417  0.12668519  1  0  -0.674977  0  1.941996  0  0  -0.63552  0  2.317488  0  0  -0.652009  0  2.310307  0  0  -0.383457  -0.623244  0  2.322083  0
S  S62  1  0.00751220  0.47128557  0.37331418  1  0  -0.674988  0  1.942013  0  0  -0.635526  0  2.317506  0  0  -0.652016  0  2.310326  0  0  -0.383466  -0.623246  0  2.322093  0
S  S63  1  0.99248907  0.52871219  0.87331437  1  0  -0.674967  0  1.942018  0  0  -0.635506  0  2.317505  0  0  -0.651994  0  2.310324  0  0  -0.38345  -0.623228  0  2.322099  0
S  S64  1  0.55979519  0.32746995  0.35409576  1  0  -0.047482  0  2.749454  0  0  -0.031589  0  3.161515  0  0  -0.032281  0  3.157784  0  0  -0.049152  -0.031206  0  3.163858  0
S  S65  1  0.44020377  0.67252979  0.85409517  1  0  -0.047446  0  2.749382  0  0  -0.031562  0  3.161463  0  0  -0.032255  0  3.157733  0  0  -0.049138  -0.031188  0  3.163819  0
S  S66  1  0.94020294  0.32746928  0.64590469  1  0  -0.047437  0  2.74938  0  0  -0.031543  0  3.161434  0  0  -0.032234  0  3.157702  0  0  -0.049129  -0.031158  0  3.163774  0
S  S67  1  0.05979653  0.67253077  0.14590472  1  0  -0.047447  0  2.749392  0  0  -0.031549  0  3.161443  0  0  -0.032241  0  3.157715  0  0  -0.049127  -0.031168  0  3.163793  0
S  S68  1  0.44020346  0.67253046  0.64590468  1  0  -0.04743  0  2.749409  0  0  -0.031529  0  3.161456  0  0  -0.032219  0  3.157721  0  0  -0.049128  -0.031148  0  3.163811  0
S  S69  1  0.55979600  0.32746857  0.14590473  1  0  -0.047431  0  2.74937  0  0  -0.031538  0  3.161435  0  0  -0.032232  0  3.157707  0  0  -0.049122  -0.031157  0  3.163781  0
S  S70  1  0.05979459  0.67253113  0.35409521  1  0  -0.04745  0  2.749394  0  0  -0.031561  0  3.161458  0  0  -0.032254  0  3.157729  0  0  -0.049136  -0.031182  0  3.163807  0
S  S71  1  0.94020662  0.32746759  0.85409410  1  0  -0.047454  0  2.749414  0  0  -0.031567  0  3.16149  0  0  -0.032259  0  3.157761  0  0  -0.049146  -0.03119  0  3.163841  0
S  S72  1  0.44830786  0.20109479  0.42432873  1  0  -0.06243  0  2.523901  0  0  -0.051738  0  2.938869  0  0  -0.049013  0  2.930545  0  0  -0.00119  -0.053732  0  2.944709  0
S  S73  1  0.55169131  0.79890519  0.92432886  1  0  -0.062463  0  2.523921  0  0  -0.051765  0  2.938894  0  0  -0.049041  0  2.930571  0  0  -0.001199  -0.053756  0  2.944728  0
S  S74  1  0.05169057  0.20109416  0.57567182  1  0  -0.06243  0  2.523955  0  0  -0.051742  0  2.938935  0  0  -0.049016  0  2.930612  0  0  -0.001175  -0.053743  0  2.944785  0
S  S75  1  0.94830981  0.79890668  0.07567148  1  0  -0.062434  0  2.523952  0  0  -0.051736  0  2.938925  0  0  -0.049013  0  2.930602  0  0  -0.001182  -0.053732  0  2.944766  0
S  S76  1  0.55168967  0.79890664  0.57567171  1  0  -0.062447  0  2.523949  0  0  -0.051759  0  2.938934  0  0  -0.049035  0  2.93061  0  0  -0.001175  -0.053754  0  2.944782  0
S  S77  1  0.44830959  0.20109420  0.07567104  1  0  -0.062448  0  2.523969  0  0  -0.051755  0  2.93895  0  0  -0.049031  0  2.930626  0  0  -0.001191  -0.053748  0  2.944796  0
S  S78  1  0.94830696  0.79890522  0.42432862  1  0  -0.062443  0  2.523926  0  0  -0.051751  0  2.938898  0  0  -0.049026  0  2.930574  0  0  -0.001184  -0.053749  0  2.944749  0
S  S79  1  0.05169109  0.20109271  0.92432788  1  0  -0.062466  0  2.523962  0  0  -0.051776  0  2.938951  0  0  -0.049052  0  2.930626  0  0  -0.001183  -0.053771  0  2.944802  0
S  S80  1  0.57095133  0.18905634  0.52071663  1  0  -0.028508  0  2.500995  0  0  -0.013263  0  2.919765  0  0  -0.008223  0  2.911058  0  0  0.008043  -0.017044  0  2.926016  0
S  S81  1  0.42904889  0.81094329  0.02071703  1  0  -0.028518  0  2.50099  0  0  -0.013275  0  2.919775  0  0  -0.008235  0  2.911067  0  0  0.008037  -0.01705  0  2.926007  0
S  S82  1  0.92904916  0.18905614  0.47928370  1  0  -0.028536  0  2.501017  0  0  -0.013293  0  2.919802  0  0  -0.008253  0  2.911094  0  0  0.008009  -0.017071  0  2.926048  0
S  S83  1  0.07095018  0.81094402  0.97928352  1  0  -0.028511  0  2.500996  0  0  -0.013265  0  2.919775  0  0  -0.008225  0  2.911067  0  0  0.008021  -0.017043  0  2.926015  0
S  S84  1  0.42904732  0.81094407  0.47928381  1  0  -0.02853  0  2.501092  0  0  -0.013298  0  2.919887  0  0  -0.008256  0  2.911179  0  0  0.007994  -0.017073  0  2.926134  0
S  S85  1  0.57095089  0.18905712  0.97928287  1  0  -0.028534  0  2.501072  0  0  -0.013293  0  2.919862  0  0  -0.008253  0  2.911153  0  0  0.008031  -0.017079  0  2.926112  0
S  S86  1  0.07094949  0.81094325  0.52071674  1  0  -0.028501  0  2.501035  0  0  -0.01325  0  2.919797  0  0  -0.00821  0  2.911091  0  0  0.008045  -0.017026  0  2.926042  0
S  S87  1  0.92905073  0.18905741  0.02071584  1  0  -0.028489  0  2.501024  0  0  -0.013241  0  2.919803  0  0  -0.008201  0  2.911095  0  0  0.008047  -0.017022  0  2.926049  0
S  S88  1  0.74999917  0.06115181  0.50000011  1  0  -0.001896  0  2.549062  0  0  -0.006418  0  2.981383  0  0  -0.008051  0  2.977358  0  0  0.01735  -0.005298  0  2.984046  0
S  S89  1  0.25000023  0.93884740  0.99999962  1  0  -0.001895  0  2.549013  0  0  -0.006428  0  2.981367  0  0  -0.008053  0  2.977321  0  0  0.017349  -0.005307  0  2.984018  0
S  S90  1  0.24999836  0.93884758  0.49999979  1  0  -0.001919  0  2.54919  0  0  -0.006434  0  2.9815  0  0  -0.00807  0  2.977483  0  0  0.017355  -0.005316  0  2.984166  0
S  S91  1  0.75000104  0.06115368  0.99999994  1  0  -0.001909  0  2.549084  0  0  -0.006443  0  2.981445  0  0  -0.008069  0  2.977403  0  0  0.017326  -0.005314  0  2.984099  0
O  O92  1  0.18382020  0.17091225  0.25000086  1  0  -0.371041  0  2.208709  0  0  -0.297846  0  2.460295  0  0  -0.313304  0  2.459723  0  0  -0.326152  -0.286774  0  2.460345  0
O  O93  1  0.81617845  0.82908612  0.74999904  1  0  -0.371072  0  2.208623  0  0  -0.297876  0  2.460199  0  0  -0.313332  0  2.459627  0  0  -0.326151  -0.28681  0  2.46025  0
O  O94  1  0.31617825  0.17090793  0.74999750  1  0  -0.371126  0  2.208406  0  0  -0.297911  0  2.459971  0  0  -0.313367  0  2.459395  0  0  -0.326158  -0.286837  0  2.460023  0
O  O95  1  0.68382153  0.82909248  0.25000348  1  0  -0.371079  0  2.208514  0  0  -0.297843  0  2.460053  0  0  -0.313299  0  2.459479  0  0  -0.32613  -0.286773  0  2.460107  0
