# generated using pymatgen
data_Zr3H30(C5O2)8
_symmetry_space_group_name_H-M   'P 1'
_cell_length_a   15.02331476
_cell_length_b   18.64614202
_cell_length_c   19.60491860
_cell_angle_alpha   81.10807013
_cell_angle_beta   67.45851766
_cell_angle_gamma   66.26791746
_symmetry_Int_Tables_number   1
_chemical_formula_structural   Zr3H30(C5O2)8
_chemical_formula_sum   'Zr6 H60 C80 O32'
_cell_volume   4643.37101160
_cell_formula_units_Z   2
loop_
 _symmetry_equiv_pos_site_id
 _symmetry_equiv_pos_as_xyz
  1  'x, y, z'
loop_
 _atom_site_type_symbol
 _atom_site_label
 _atom_site_symmetry_multiplicity
 _atom_site_fract_x
 _atom_site_fract_y
 _atom_site_fract_z
 _atom_site_occupancy
 _atom_site_pbe_bader_charge
 _atom_site_pbe_bader_spin_density
 _atom_site_pbe_cm5_charge
 _atom_site_pbe_ddec_charge
 _atom_site_pbe_ddec_spin_density
 _atom_site_pbe_ddec_sum_bond_order
 _atom_site_pbe_magmom
Zr  Zr0  1  0.56993345  0.00015324  0.86050020  1  2.617385  0  1.615917  2.361989  0  2.836823  0
Zr  Zr1  1  0.43008890  0.99984441  0.13949918  1  2.617244  0  1.615901  2.361983  0  2.836758  0
Zr  Zr2  1  0.56092146  0.10629647  0.00091106  1  2.59742  0  1.543356  2.357425  0  2.824  0
Zr  Zr3  1  0.43908470  0.89369825  0.99910031  1  2.597353  0  1.543371  2.357448  0  2.824105  0
Zr  Zr4  1  0.33197128  0.10602778  0.00061382  1  2.59393  0  1.542984  2.355924  0  2.827026  0
Zr  Zr5  1  0.66804826  0.89396636  0.99937597  1  2.593946  0  1.542966  2.355878  0  2.827218  0
H  H6  1  0.73710728  0.00402072  0.90564943  1  0.610504  0  0.335791  0.439934  0  0.844004  0
H  H7  1  0.35411150  0.00374938  0.90491079  1  0.617379  0  0.335911  0.439437  0  0.846156  0
H  H8  1  0.26290340  0.99598807  0.09435160  1  0.610704  0  0.335839  0.439863  0  0.844181  0
H  H9  1  0.64590131  0.99624593  0.09509185  1  0.617059  0  0.335897  0.439546  0  0.845976  0
H  H10  1  0.49097051  0.25504509  0.04353004  1  0.638861  0  0.330745  0.417273  0  0.877665  0
H  H11  1  0.46765953  0.74754481  0.04511384  1  0.657749  0  0.32748  0.414801  0  0.885621  0
H  H12  1  0.26085439  0.25218017  0.95454222  1  0.633852  0  0.327265  0.414784  0  0.885957  0
H  H13  1  0.78914083  0.74508519  0.95690596  1  0.63678  0  0.330008  0.415293  0  0.880118  0
H  H14  1  0.50902887  0.74496194  0.95648402  1  0.639193  0  0.330703  0.417109  0  0.877827  0
H  H15  1  0.53234242  0.25246338  0.95489720  1  0.657207  0  0.327399  0.4147  0  0.885748  0
H  H16  1  0.73916310  0.74781455  0.04545273  1  0.634494  0  0.327271  0.414856  0  0.885843  0
H  H17  1  0.21087764  0.25491188  0.04308625  1  0.637052  0  0.329954  0.415282  0  0.880176  0
H  H18  1  0.50616808  0.71963519  0.81824822  1  0.073934  0  0.100019  0.097992  0  1.007302  0
H  H19  1  0.67290156  0.28132439  0.81804208  1  0.072109  0  0.102644  0.101349  0  1.003584  0
H  H20  1  0.77181457  0.71898711  0.18195526  1  0.083604  0  0.102673  0.10148  0  1.004643  0
H  H21  1  0.04383595  0.28025555  0.18148550  1  0.059493  0  0.100234  0.098297  0  1.00778  0
H  H22  1  0.49382282  0.28037008  0.18175103  1  0.073826  0  0.099988  0.097958  0  1.0072  0
H  H23  1  0.32709539  0.71868263  0.18195964  1  0.07198  0  0.102673  0.101389  0  1.003595  0
H  H24  1  0.22818612  0.28100526  0.81804779  1  0.083519  0  0.102652  0.101492  0  1.00464  0
H  H25  1  0.95617074  0.71975265  0.81851055  1  0.05953  0  0.10028  0.098442  0  1.007662  0
H  H26  1  0.63472610  0.88029154  0.67649430  1  0.103224  0  0.108477  0.111516  0  1.001455  0
H  H27  1  0.68796659  0.12004839  0.67621573  1  0.104362  0  0.107476  0.109739  0  1.003714  0
H  H28  1  0.48330909  0.87964785  0.32390538  1  0.09429  0  0.107997  0.11055  0  1.003639  0
H  H29  1  0.19154294  0.11979964  0.32306659  1  0.1047  0  0.108739  0.111944  0  1.002654  0
H  H30  1  0.36526658  0.11971783  0.32349851  1  0.103379  0  0.108541  0.111605  0  1.001494  0
H  H31  1  0.31203024  0.87995219  0.32379267  1  0.105181  0  0.107487  0.10971  0  1.003604  0
H  H32  1  0.51667101  0.12034453  0.67608662  1  0.094545  0  0.108024  0.110563  0  1.003551  0
H  H33  1  0.80845024  0.88019566  0.67693664  1  0.104297  0  0.108737  0.111917  0  1.002667  0
H  H34  1  0.56135811  0.63765859  0.70959845  1  0.070737  0  0.099268  0.098824  0  1.005066  0
H  H35  1  0.72910028  0.36231023  0.70911350  1  0.057487  0  0.099235  0.099137  0  1.003951  0
H  H36  1  0.79999089  0.63777416  0.29077924  1  0.054497  0  0.099111  0.098157  0  1.004505  0
H  H37  1  0.90852992  0.36221395  0.29015968  1  0.052907  0  0.099433  0.099686  0  1.003385  0
H  H38  1  0.43863375  0.36234258  0.29040254  1  0.07083  0  0.099272  0.098905  0  1.004937  0
H  H39  1  0.27089547  0.63769152  0.29088420  1  0.057672  0  0.099254  0.099147  0  1.003913  0
H  H40  1  0.20000287  0.36222349  0.70922930  1  0.054656  0  0.099095  0.098138  0  1.004518  0
H  H41  1  0.09147480  0.63778897  0.70983798  1  0.052928  0  0.099442  0.099726  0  1.00331  0
H  H42  1  0.69254787  0.79808174  0.56733033  1  0.060224  0  0.102611  0.103184  0  1.000655  0
H  H43  1  0.74149816  0.20131671  0.56681289  1  0.031573  0  0.101659  0.101573  0  1.001861  0
H  H44  1  0.50878176  0.79821165  0.43321876  1  0.067685  0  0.101616  0.10152  0  1.001812  0
H  H45  1  0.05823442  0.20200109  0.43224575  1  0.052463  0  0.102491  0.102969  0  1.000745  0
H  H46  1  0.30743875  0.20191943  0.43266450  1  0.059976  0  0.102551  0.103129  0  1.000701  0
H  H47  1  0.25849939  0.79867801  0.43318924  1  0.031929  0  0.101652  0.101553  0  1.001939  0
H  H48  1  0.49119278  0.20178423  0.56677896  1  0.067727  0  0.101675  0.101515  0  1.002044  0
H  H49  1  0.94174808  0.79799773  0.56775484  1  0.052718  0  0.102484  0.102941  0  1.000614  0
H  H50  1  0.71376964  0.55322482  0.61260793  1  0.062366  0  0.100216  0.100977  0  1.017382  0
H  H51  1  0.67550699  0.44637857  0.61256112  1  0.059327  0  0.100005  0.100791  0  1.018433  0
H  H52  1  0.73385866  0.55339960  0.38737045  1  0.052987  0  0.100513  0.101679  0  1.017788  0
H  H53  1  0.87934206  0.44674726  0.38691868  1  0.059436  0  0.099749  0.101538  0  1.0166  0
H  H54  1  0.28622189  0.44677576  0.38739576  1  0.062382  0  0.100169  0.1009  0  1.01747  0
H  H55  1  0.32449301  0.55362026  0.38744160  1  0.059232  0  0.100041  0.100858  0  1.01839  0
H  H56  1  0.26612562  0.44660332  0.61263416  1  0.053061  0  0.100463  0.101574  0  1.017825  0
H  H57  1  0.12064258  0.55325859  0.61307930  1  0.059374  0  0.099757  0.101557  0  1.016575  0
H  H58  1  0.61375363  0.77126778  0.50036046  1  0.042182  0  0.101171  0.100175  0  1.023556  0
H  H59  1  0.88606431  0.22861554  0.49943874  1  0.03874  0  0.101086  0.100197  0  1.023463  0
H  H60  1  0.38623319  0.22872928  0.49964173  1  0.042116  0  0.101177  0.100217  0  1.023483  0
H  H61  1  0.11392797  0.77138562  0.50055348  1  0.038677  0  0.101175  0.10028  0  1.023306  0
H  H62  1  0.71462770  0.11233045  0.03606724  1  0.589464  0  0.289716  0.397594  0  0.899645  0
H  H63  1  0.28541929  0.88763792  0.96391213  1  0.589352  0  0.289695  0.397678  0  0.89954  0
H  H64  1  0.13645556  0.11372363  0.03666722  1  0.586137  0  0.289679  0.397817  0  0.899737  0
H  H65  1  0.86353487  0.88631504  0.96336122  1  0.587823  0  0.289459  0.39748  0  0.900183  0
C  C66  1  0.53194893  0.85760982  0.81736066  1  1.559982  0  0.23057  0.639545  0  4.115991  0
C  C67  1  0.64639639  0.14441900  0.81760824  1  1.552969  0  0.231896  0.635646  0  4.114364  0
C  C68  1  0.60781595  0.85571891  0.18254741  1  1.573857  0  0.231798  0.635959  0  4.11459  0
C  C69  1  0.20680425  0.14237915  0.18229700  1  1.556017  0  0.229748  0.637741  0  4.118029  0
C  C70  1  0.46805623  0.14239076  0.18264189  1  1.559803  0  0.230616  0.63981  0  4.116114  0
C  C71  1  0.35360831  0.85558334  0.18239599  1  1.552516  0  0.231992  0.635825  0  4.114491  0
C  C72  1  0.39218530  0.14427464  0.81745244  1  1.574053  0  0.23172  0.635748  0  4.114898  0
C  C73  1  0.79320541  0.85762436  0.81769635  1  1.555974  0  0.229361  0.637458  0  4.118361  0
C  C74  1  0.56676335  0.80531373  0.75395542  1  -0.043373  0  -0.021239  -0.049281  0  3.972762  0
C  C75  1  0.67679968  0.19574037  0.75372716  1  -0.007004  0  -0.020053  -0.047712  0  3.970722  0
C  C76  1  0.62553161  0.80422748  0.24633712  1  -0.041903  0  -0.020278  -0.04739  0  3.971436  0
C  C77  1  0.12594284  0.19466117  0.24569834  1  -0.000362  0  -0.021752  -0.049619  0  3.973712  0
C  C78  1  0.43323111  0.19468978  0.24604059  1  -0.043422  0  -0.02127  -0.04945  0  3.972984  0
C  C79  1  0.32319822  0.80426490  0.24627310  1  -0.007106  0  -0.019997  -0.047593  0  3.970955  0
C  C80  1  0.37446110  0.19576489  0.75366447  1  -0.042548  0  -0.020263  -0.047044  0  3.970812  0
C  C81  1  0.87406023  0.80533824  0.75429698  1  -0.000481  0  -0.021772  -0.04959  0  3.973409  0
C  C82  1  0.54780886  0.73609567  0.76308460  1  -0.068341  0  -0.087369  -0.089177  0  4.005669  0
C  C83  1  0.68706456  0.26474718  0.76279515  1  -0.035123  0  -0.085325  -0.087117  0  4.000237  0
C  C84  1  0.71406121  0.73539139  0.23720594  1  -0.0407  0  -0.084933  -0.08802  0  4.002354  0
C  C85  1  0.04686355  0.26379245  0.23661696  1  -0.09866  0  -0.087364  -0.089776  0  4.007398  0
C  C86  1  0.45217911  0.26390842  0.23691452  1  -0.068343  0  -0.08727  -0.089069  0  4.005586  0
C  C87  1  0.31293201  0.73525751  0.23720735  1  -0.035665  0  -0.085386  -0.087224  0  4.000416  0
C  C88  1  0.28593377  0.26460333  0.76279724  1  -0.039861  0  -0.084981  -0.088269  0  4.002206  0
C  C89  1  0.95314656  0.73621341  0.76337415  1  -0.098341  0  -0.087361  -0.089968  0  4.007409  0
C  C90  1  0.61934279  0.82689737  0.68285351  1  -0.082405  0  -0.081373  -0.078064  0  3.98312  0
C  C91  1  0.69685988  0.17349821  0.68254729  1  -0.064017  0  -0.081193  -0.078021  0  3.986925  0
C  C92  1  0.55207049  0.82629178  0.31752852  1  0.037778  0  -0.081673  -0.079925  0  3.987685  0
C  C93  1  0.12910397  0.17315627  0.31676790  1  -0.051311  0  -0.08145  -0.078598  0  3.986438  0
C  C94  1  0.38065297  0.17310731  0.31714488  1  -0.082436  0  -0.081461  -0.078195  0  3.983427  0
C  C95  1  0.30314094  0.82650120  0.31745297  1  -0.064522  0  -0.081212  -0.078012  0  3.98695  0
C  C96  1  0.44791195  0.17370645  0.68246892  1  0.03739  0  -0.081662  -0.079942  0  3.987434  0
C  C97  1  0.87089870  0.82684197  0.68322697  1  -0.050852  0  -0.081394  -0.078538  0  3.986219  0
C  C98  1  0.57927720  0.69017568  0.70213150  1  -0.018418  0  -0.093366  -0.13907  0  3.988474  0
C  C99  1  0.71814564  0.31001138  0.70170423  1  -0.066005  0  -0.093898  -0.140848  0  3.98912  0
C  C100  1  0.72933739  0.69003235  0.29822820  1  -0.060211  0  -0.093389  -0.137594  0  3.989289  0
C  C101  1  0.97152722  0.30973269  0.29756225  1  -0.023687  0  -0.093299  -0.138933  0  3.988908  0
C  C102  1  0.42071238  0.30982724  0.29786735  1  -0.018377  0  -0.093382  -0.139167  0  3.988453  0
C  C103  1  0.28184968  0.68999096  0.29829640  1  -0.065399  0  -0.093907  -0.140861  0  3.989152  0
C  C104  1  0.27065895  0.30996296  0.70177202  1  -0.060235  0  -0.093357  -0.13752  0  3.989175  0
C  C105  1  0.02848085  0.69026790  0.70243193  1  -0.024166  0  -0.093336  -0.138941  0  3.988641  0
C  C106  1  0.65066566  0.78114137  0.62221019  1  0.026875  0  -0.091057  -0.136977  0  3.98989  0
C  C107  1  0.72757448  0.21870021  0.62174941  1  0.00188  0  -0.09184  -0.137146  0  3.99014  0
C  C108  1  0.56723817  0.78099953  0.37827004  1  -0.085975  0  -0.091197  -0.135483  0  3.989989  0
C  C109  1  0.05406936  0.21890043  0.37741840  1  -0.022261  0  -0.091065  -0.136351  0  3.988373  0
C  C110  1  0.34933271  0.21885921  0.37778697  1  0.026912  0  -0.090989  -0.136817  0  3.990033  0
C  C111  1  0.27242820  0.78129744  0.37825130  1  0.001324  0  -0.091877  -0.137231  0  3.990133  0
C  C112  1  0.43273914  0.21899694  0.62172685  1  -0.085039  0  -0.091267  -0.135599  0  3.990251  0
C  C113  1  0.94593327  0.78109664  0.62257917  1  -0.022663  0  -0.091025  -0.136243  0  3.988499  0
C  C114  1  0.63013318  0.71242108  0.63052440  1  -0.037106  0  -0.001392  0.08277  0  3.989962  0
C  C115  1  0.73987039  0.28738173  0.63004270  1  -0.003425  0  -0.002373  0.081267  0  3.990287  0
C  C116  1  0.65663366  0.71243425  0.36989563  1  -0.021078  0  -0.003579  0.078216  0  3.992098  0
C  C117  1  0.97310087  0.28755070  0.36914315  1  0.009847  0  -0.00219  0.081211  0  3.989518  0
C  C118  1  0.36985867  0.28758125  0.36947536  1  -0.037023  0  -0.001372  0.082733  0  3.989989  0
C  C119  1  0.26012873  0.71261710  0.36995738  1  -0.003463  0  -0.00234  0.081405  0  3.990117  0
C  C120  1  0.34335460  0.28756633  0.63010281  1  -0.021925  0  -0.003522  0.078348  0  3.992118  0
C  C121  1  0.02689804  0.71244929  0.63084889  1  0.010245  0  -0.002196  0.08121  0  3.989766  0
C  C122  1  0.65892799  0.66723100  0.56448977  1  -0.126041  0  -0.009742  0.075578  0  4.032768  0
C  C123  1  0.77759921  0.33247133  0.56406436  1  -0.064487  0  -0.008155  0.076859  0  4.033358  0
C  C124  1  0.67370610  0.66732535  0.43579626  1  0.00512  0  -0.007969  0.078614  0  4.031642  0
C  C125  1  0.89084487  0.33270236  0.43519216  1  -0.122094  0  -0.008734  0.076029  0  4.033731  0
C  C126  1  0.34105652  0.33277075  0.43551169  1  -0.126061  0  -0.009788  0.07564  0  4.032548  0
C  C127  1  0.22239850  0.66752574  0.43593092  1  -0.064474  0  -0.008203  0.076803  0  4.033237  0
C  C128  1  0.32628694  0.33267347  0.56420473  1  0.004869  0  -0.007979  0.078568  0  4.031751  0
C  C129  1  0.10915069  0.66729471  0.56480586  1  -0.12255  0  -0.008788  0.075862  0  4.03409  0
C  C130  1  0.70006074  0.58509685  0.56373014  1  0.023866  0  -0.089985  -0.180628  0  3.92757  0
C  C131  1  0.73770184  0.41459939  0.56353433  1  -0.018301  0  -0.089473  -0.179514  0  3.930163  0
C  C132  1  0.71559817  0.58518715  0.43630201  1  -0.103682  0  -0.089617  -0.18124  0  3.929264  0
C  C133  1  0.84891709  0.41483225  0.43590469  1  0.019813  0  -0.08906  -0.179716  0  3.928517  0
C  C134  1  0.29993188  0.41490197  0.43626917  1  0.023715  0  -0.089957  -0.180529  0  3.927668  0
C  C135  1  0.26228820  0.58540002  0.43646018  1  -0.018379  0  -0.089499  -0.179615  0  3.930182  0
C  C136  1  0.28438782  0.41481460  0.56370013  1  -0.103702  0  -0.08957  -0.18111  0  3.929204  0
C  C137  1  0.15107725  0.58517009  0.56409548  1  0.02062  0  -0.089019  -0.179717  0  3.928623  0
C  C138  1  0.64604226  0.70738797  0.50021100  1  0.009312  0  -0.088626  -0.181136  0  3.937392  0
C  C139  1  0.85423857  0.29248256  0.49957809  1  -0.025871  0  -0.088698  -0.180734  0  3.937224  0
C  C140  1  0.35395029  0.29261086  0.49978977  1  0.009547  0  -0.088666  -0.181294  0  3.937242  0
C  C141  1  0.14575911  0.70751568  0.50041596  1  -0.025697  0  -0.088718  -0.18069  0  3.93696  0
C  C142  1  0.72895979  0.54329078  0.49993896  1  -0.022792  0  -0.007537  0.081431  0  4.017472  0
C  C143  1  0.77245807  0.45655186  0.49981009  1  0.117093  0  -0.008387  0.07931  0  4.02024  0
C  C144  1  0.27103586  0.45670921  0.50005829  1  -0.022792  0  -0.007458  0.081451  0  4.017597  0
C  C145  1  0.22753601  0.54344931  0.50018670  1  0.116819  0  -0.008432  0.079335  0  4.020116  0
O  O146  1  0.54861100  0.92114302  0.80037710  1  -1.18111  0  -0.364367  -0.620315  0  2.321051  0
O  O147  1  0.65098575  0.07902034  0.80082055  1  -1.183264  0  -0.368714  -0.628122  0  2.319837  0
O  O148  1  0.53009861  0.92101362  0.19937725  1  -1.185795  0  -0.36823  -0.628047  0  2.318924  0
O  O149  1  0.26976040  0.07877019  0.19933146  1  -1.187469  0  -0.363806  -0.618791  0  2.32355  0
O  O150  1  0.45139865  0.07885757  0.19962603  1  -1.180925  0  -0.364333  -0.620345  0  2.321097  0
O  O151  1  0.34902960  0.92097791  0.19918244  1  -1.183564  0  -0.368799  -0.628288  0  2.31991  0
O  O152  1  0.46991266  0.07898697  0.80062364  1  -1.186317  0  -0.368135  -0.62799  0  2.319079  0
O  O153  1  0.73024712  0.92123508  0.80066729  1  -1.187332  0  -0.363687  -0.618684  0  2.323601  0
O  O154  1  0.66931713  0.00009349  0.92915019  1  -1.258876  0  -0.687654  -1.058275  0  2.235975  0
O  O155  1  0.40172015  0.99999930  0.92887585  1  -1.256777  0  -0.687102  -1.05717  0  2.236618  0
O  O156  1  0.33070412  0.99989772  0.07084494  1  -1.258976  0  -0.687672  -1.05815  0  2.236215  0
O  O157  1  0.59828352  0.99999617  0.07113384  1  -1.25658  0  -0.687059  -1.057366  0  2.236603  0
O  O158  1  0.48754276  0.09125616  0.93377954  1  -1.227028  0  -0.791385  -1.1903  0  2.122055  0
O  O159  1  0.58111300  0.90607649  0.93205525  1  -1.222106  0  -0.785805  -1.181001  0  2.083748  0
O  O160  1  0.41889218  0.09392293  0.06794852  1  -1.222031  0  -0.785767  -1.180966  0  2.083762  0
O  O161  1  0.51248219  0.90873447  0.06621793  1  -1.227076  0  -0.791359  -1.190318  0  2.122069  0
O  O162  1  0.48749482  0.83707941  0.88275930  1  -1.204802  0  -0.343859  -0.640136  0  2.273671  0
O  O163  1  0.61985432  0.16722279  0.88294504  1  -1.179963  0  -0.330008  -0.600238  0  2.264425  0
O  O164  1  0.66977256  0.83321412  0.11719725  1  -1.192264  0  -0.330894  -0.601077  0  2.265903  0
O  O165  1  0.20740309  0.16296976  0.11689373  1  -1.200272  0  -0.343289  -0.637984  0  2.274382  0
O  O166  1  0.51252210  0.16291649  0.11724612  1  -1.204774  0  -0.343911  -0.640247  0  2.273736  0
O  O167  1  0.38014846  0.83278248  0.11705824  1  -1.179382  0  -0.330035  -0.600298  0  2.264559  0
O  O168  1  0.33023548  0.16677767  0.88280534  1  -1.192253  0  -0.330903  -0.601094  0  2.266114  0
O  O169  1  0.79262584  0.83704489  0.88309545  1  -1.199975  0  -0.343037  -0.637844  0  2.274613  0
O  O170  1  0.69479397  0.11284536  0.99437860  1  -1.224504  0  -0.711491  -0.979292  0  1.78624  0
O  O171  1  0.30521984  0.88713882  0.00561444  1  -1.224359  0  -0.711436  -0.979379  0  1.786013  0
O  O172  1  0.19760269  0.11310143  0.99451837  1  -1.221656  0  -0.711676  -0.97922  0  1.783975  0
O  O173  1  0.80239501  0.88690735  0.00550204  1  -1.223463  0  -0.711505  -0.978877  0  1.784419  0
O  O174  1  0.48204645  0.24168989  0.00081365  1  -1.238833  0  -0.581379  -0.769371  0  2.053884  0
O  O175  1  0.51796093  0.75831245  0.99919780  1  -1.239675  0  -0.581421  -0.76931  0  2.05389  0
O  O176  1  0.27597521  0.24154891  0.00045047  1  -1.21253  0  -0.580972  -0.768186  0  2.054267  0
O  O177  1  0.72404412  0.75845226  0.99954384  1  -1.21286  0  -0.58102  -0.768274  0  2.054124  0
