# generated using pymatgen
data_Zn3H32C32(NO6)2
_symmetry_space_group_name_H-M   'P 1'
_cell_length_a   8.61930666
_cell_length_b   10.87247105
_cell_length_c   10.80211220
_cell_angle_alpha   101.77419133
_cell_angle_beta   108.82399310
_cell_angle_gamma   111.50919376
_symmetry_Int_Tables_number   1
_chemical_formula_structural   Zn3H32C32(NO6)2
_chemical_formula_sum   'Zn3 H32 C32 N2 O12'
_cell_volume   829.55317002
_cell_formula_units_Z   1
loop_
 _symmetry_equiv_pos_site_id
 _symmetry_equiv_pos_as_xyz
  1  'x, y, z'
loop_
 _atom_site_type_symbol
 _atom_site_label
 _atom_site_symmetry_multiplicity
 _atom_site_fract_x
 _atom_site_fract_y
 _atom_site_fract_z
 _atom_site_occupancy
 _atom_site_hle17_bader_spin_density
 _atom_site_hle17_ddec_charge
 _atom_site_hle17_ddec_spin_density
 _atom_site_hle17_ddec_sum_bond_order
 _atom_site_hle17_magmom
 _atom_site_hse06_10hf_bader_spin_density
 _atom_site_hse06_10hf_ddec_charge
 _atom_site_hse06_10hf_ddec_spin_density
 _atom_site_hse06_10hf_ddec_sum_bond_order
 _atom_site_hse06_10hf_magmom
 _atom_site_hse06_bader_spin_density
 _atom_site_hse06_ddec_charge
 _atom_site_hse06_ddec_spin_density
 _atom_site_hse06_ddec_sum_bond_order
 _atom_site_hse06_magmom
 _atom_site_pbe_bader_spin_density
 _atom_site_pbe_cm5_charge
 _atom_site_pbe_ddec_charge
 _atom_site_pbe_ddec_spin_density
 _atom_site_pbe_ddec_sum_bond_order
 _atom_site_pbe_magmom
Zn  Zn0  1  0.99999950  0.99999990  0.00000037  1  0  1.206343  0  1.764879  0  0  1.045959  0  2.225779  0  0  1.094805  0  2.162431  0  0  0.686443  1.010718  0  2.270297  0
Zn  Zn1  1  0.32968564  0.89553214  0.02647991  1  0  1.140171  0  1.742818  0  0  0.968068  0  2.202357  0  0  1.019467  0  2.140239  0  0  0.67574  0.931598  0  2.245268  0
Zn  Zn2  1  0.67031296  0.10446852  0.97352115  1  0  1.140233  0  1.742773  0  0  0.968083  0  2.20232  0  0  1.019482  0  2.140202  0  0  0.675744  0.931614  0  2.24523  0
H  H3  1  0.67626740  0.67739318  0.81486968  1  0  0.127237  0  0.943048  0  0  0.140237  0  0.996258  0  0  0.144231  0  0.9933  0  0  0.108799  0.137395  0  0.998329  0
H  H4  1  0.32373364  0.32260748  0.18513107  1  0  0.127247  0  0.943042  0  0  0.140257  0  0.99624  0  0  0.144252  0  0.99328  0  0  0.108811  0.137414  0  0.998311  0
H  H5  1  0.51425076  0.40927758  0.71092967  1  0  0.103113  0  0.966462  0  0  0.116699  0  1.021644  0  0  0.118842  0  1.022353  0  0  0.105325  0.115083  0  1.021377  0
H  H6  1  0.48574906  0.59072309  0.28907077  1  0  0.103104  0  0.966462  0  0  0.116688  0  1.021648  0  0  0.118832  0  1.022355  0  0  0.10532  0.115072  0  1.021381  0
H  H7  1  0.70671363  0.28088313  0.72579749  1  0  0.098965  0  0.957256  0  0  0.10898  0  1.023724  0  0  0.111752  0  1.02171  0  0  0.121234  0.106966  0  1.025274  0
H  H8  1  0.29328496  0.71911753  0.27420265  1  0  0.098971  0  0.95726  0  0  0.108991  0  1.023716  0  0  0.111763  0  1.021702  0  0  0.121234  0.106978  0  1.025267  0
H  H9  1  0.99713192  0.29538840  0.84887313  1  0  0.094486  0  0.9276  0  0  0.106205  0  0.994766  0  0  0.107721  0  0.993658  0  0  0.1149  0.104889  0  0.995843  0
H  H10  1  0.00286472  0.70460907  0.15112492  1  0  0.09446  0  0.927639  0  0  0.106185  0  0.994809  0  0  0.107701  0  0.9937  0  0  0.114892  0.10487  0  0.995886  0
H  H11  1  0.20139716  0.45576821  0.90185040  1  0  0.0999  0  0.923391  0  0  0.115552  0  0.98017  0  0  0.117249  0  0.979071  0  0  0.118134  0.114313  0  0.981004  0
H  H12  1  0.79860193  0.54422926  0.09814826  1  0  0.099873  0  0.923382  0  0  0.115539  0  0.980143  0  0  0.117237  0  0.979044  0  0  0.118118  0.11429  0  0.98099  0
H  H13  1  0.22384323  0.54611988  0.68981253  1  0  0.102377  0  0.94296  0  0  0.115968  0  0.996708  0  0  0.119285  0  0.995251  0  0  0.102133  0.113638  0  0.997852  0
H  H14  1  0.77616272  0.45388077  0.31019038  1  0  0.102382  0  0.942953  0  0  0.115951  0  0.996728  0  0  0.119268  0  0.995271  0  0  0.102138  0.113626  0  0.997863  0
H  H15  1  0.22144995  0.45895455  0.45680088  1  0  0.08185  0  0.968753  0  0  0.092598  0  1.029613  0  0  0.094468  0  1.030504  0  0  0.094874  0.091458  0  1.028685  0
H  H16  1  0.77855852  0.54104823  0.54320311  1  0  0.081883  0  0.968782  0  0  0.092643  0  1.029624  0  0  0.094512  0  1.030517  0  0  0.094874  0.091502  0  1.028697  0
H  H17  1  0.05297229  0.19896759  0.31466827  1  0  0.103466  0  0.976535  0  0  0.110343  0  1.04252  0  0  0.113526  0  1.041368  0  0  0.099541  0.107993  0  1.043455  0
H  H18  1  0.94703003  0.80103520  0.68533140  1  0  0.103456  0  0.976569  0  0  0.110332  0  1.04256  0  0  0.113514  0  1.041408  0  0  0.09954  0.108013  0  1.043457  0
H  H19  1  0.88177780  0.02873787  0.40339487  1  0  0.087756  0  0.966303  0  0  0.102784  0  1.02198  0  0  0.104435  0  1.022654  0  0  0.099939  0.101503  0  1.021835  0
H  H20  1  0.11822018  0.97126387  0.59660164  1  0  0.087764  0  0.96631  0  0  0.102789  0  1.021992  0  0  0.104439  0  1.022667  0  0  0.099925  0.101508  0  1.021849  0
H  H21  1  0.88662700  0.11601233  0.63696760  1  0  0.092927  0  0.963185  0  0  0.106191  0  1.022746  0  0  0.108448  0  1.022317  0  0  0.101326  0.104569  0  1.023138  0
H  H22  1  0.11337026  0.88398622  0.36302806  1  0  0.092938  0  0.963155  0  0  0.106204  0  1.02272  0  0  0.108463  0  1.02229  0  0  0.101322  0.104555  0  1.023143  0
H  H23  1  0.60354405  0.20089139  0.46398319  1  0  0.13501  0  0.948688  0  0  0.152039  0  1.010697  0  0  0.153965  0  1.011258  0  0  0.096718  0.150678  0  1.010328  0
H  H24  1  0.39645447  0.79910715  0.53601648  1  0  0.135027  0  0.948657  0  0  0.152068  0  1.010659  0  0  0.153997  0  1.011217  0  0  0.096717  0.150708  0  1.01029  0
H  H25  1  0.42933145  0.07648214  0.49053884  1  0  0.13541  0  0.946907  0  0  0.154666  0  1.007979  0  0  0.156953  0  1.007333  0  0  0.098178  0.152968  0  1.008599  0
H  H26  1  0.57066700  0.92351427  0.50946129  1  0  0.135449  0  0.946866  0  0  0.154698  0  1.007957  0  0  0.156986  0  1.007308  0  0  0.098202  0.152999  0  1.008577  0
H  H27  1  0.40766874  0.22650236  0.45951718  1  0  0.132744  0  0.953749  0  0  0.150734  0  1.013648  0  0  0.15259  0  1.014015  0  0  0.093795  0.14941  0  1.01341  0
H  H28  1  0.59232914  0.77349511  0.54048303  1  0  0.132727  0  0.953735  0  0  0.150722  0  1.013634  0  0  0.152577  0  1.014002  0  0  0.093782  0.149399  0  1.013395  0
H  H29  1  0.43427264  0.16500863  0.76403200  1  0  0.142296  0  0.962917  0  0  0.159838  0  1.026286  0  0  0.162599  0  1.024599  0  0  0.098786  0.157733  0  1.027716  0
H  H30  1  0.56572654  0.83499097  0.23596898  1  0  0.142301  0  0.962911  0  0  0.159845  0  1.026277  0  0  0.162604  0  1.024594  0  0  0.098793  0.15774  0  1.027707  0
H  H31  1  0.50535174  0.31373510  0.91102863  1  0  0.151071  0  0.952223  0  0  0.168798  0  1.012105  0  0  0.171537  0  1.011035  0  0  0.100936  0.166816  0  1.012918  0
H  H32  1  0.49464562  0.68626557  0.08897120  1  0  0.151073  0  0.952222  0  0  0.168831  0  1.012065  0  0  0.171576  0  1.010989  0  0  0.100959  0.166846  0  1.012882  0
H  H33  1  0.28169413  0.24158819  0.76663535  1  0  0.13319  0  0.987339  0  0  0.149397  0  1.049304  0  0  0.150943  0  1.050756  0  0  0.091795  0.148176  0  1.048482  0
H  H34  1  0.71830444  0.75841248  0.23336293  1  0  0.133215  0  0.987337  0  0  0.149416  0  1.049317  0  0  0.150962  0  1.050769  0  0  0.091803  0.148193  0  1.048495  0
C  C35  1  0.05159380  0.61404964  0.87943538  1  0  0.368705  0  3.828378  0  0  0.325985  0  4.104361  0  0  0.348401  0  4.112775  0  0  0.204852  0.311148  0  4.098189  0
C  C36  1  0.94840724  0.38595102  0.12056537  1  0  0.368789  0  3.828307  0  0  0.326063  0  4.104298  0  0  0.348479  0  4.112711  0  0  0.204901  0.311228  0  4.098122  0
C  C37  1  0.94672046  0.69200974  0.88037375  1  0  0.210995  0  3.913012  0  0  0.199389  0  4.176689  0  0  0.205674  0  4.19515  0  0  0.070378  0.194521  0  4.164037  0
C  C38  1  0.05328056  0.30799092  0.11962515  1  0  0.210987  0  3.913036  0  0  0.199379  0  4.176702  0  0  0.205665  0  4.195166  0  0  0.070363  0.194514  0  4.164045  0
C  C39  1  0.75457105  0.61809827  0.81862770  1  0  -0.144274  0  3.720061  0  0  -0.173823  0  3.981293  0  0  -0.173096  0  3.996203  0  0  -0.100122  -0.174175  0  3.970761  0
C  C40  1  0.24542876  0.38190240  0.18137275  1  0  -0.14431  0  3.720086  0  0  -0.173867  0  3.981315  0  0  -0.173142  0  3.996225  0  0  -0.10013  -0.174221  0  3.970783  0
C  C41  1  0.66475214  0.46844953  0.75994704  1  0  -0.128981  0  3.849995  0  0  -0.144737  0  4.116968  0  0  -0.149371  0  4.137519  0  0  -0.105563  -0.141794  0  4.103259  0
C  C42  1  0.33524703  0.53155007  0.24005301  1  0  -0.128947  0  3.849995  0  0  -0.144701  0  4.116961  0  0  -0.149336  0  4.137513  0  0  -0.105564  -0.141758  0  4.103253  0
C  C43  1  0.76610104  0.39599076  0.76481986  1  0  0.023326  0  3.698277  0  0  -0.02879  0  3.974295  0  0  -0.022064  0  3.991304  0  0  0.014192  -0.033451  0  3.963305  0
C  C44  1  0.23389813  0.60400884  0.23518020  1  0  0.023246  0  3.698286  0  0  -0.028872  0  3.974307  0  0  -0.022148  0  3.991317  0  0  0.014153  -0.033534  0  3.963315  0
C  C45  1  0.05935475  0.38630597  0.82038565  1  0  -0.043901  0  3.628254  0  0  -0.113639  0  3.881923  0  0  -0.108899  0  3.890788  0  0  -0.051954  -0.116933  0  3.876046  0
C  C46  1  0.94064441  0.61369363  0.17961348  1  0  -0.043737  0  3.628098  0  0  -0.113488  0  3.881727  0  0  -0.108745  0  3.890583  0  0  -0.051881  -0.116775  0  3.875849  0
C  C47  1  0.05431545  0.33621385  0.67762545  1  0  0.053825  0  3.773988  0  0  0.076475  0  4.012327  0  0  0.075191  0  4.036758  0  0  -0.018012  0.077358  0  3.995494  0
C  C48  1  0.94568558  0.66378681  0.32237437  1  0  0.053671  0  3.774002  0  0  0.076358  0  4.012295  0  0  0.075075  0  4.036727  0  0  -0.018043  0.077243  0  3.995453  0
C  C49  1  0.14852076  0.43272714  0.62639645  1  0  -0.120626  0  3.738287  0  0  -0.141123  0  3.981121  0  0  -0.143781  0  4.002482  0  0  -0.093742  -0.139185  0  3.966872  0
C  C50  1  0.85148396  0.56727351  0.37360616  1  0  -0.120506  0  3.738293  0  0  -0.140993  0  3.981105  0  0  -0.143653  0  4.002468  0  0  -0.093734  -0.139061  0  3.966852  0
C  C51  1  0.14673698  0.38363177  0.49572849  1  0  -0.073964  0  3.7937  0  0  -0.082705  0  4.039264  0  0  -0.085375  0  4.062717  0  0  -0.094183  -0.081027  0  4.023367  0
C  C52  1  0.85326780  0.61637102  0.50427272  1  0  -0.074108  0  3.793809  0  0  -0.082865  0  4.039377  0  0  -0.085536  0  4.062832  0  0  -0.09418  -0.081189  0  4.023492  0
C  C53  1  0.05128297  0.23812218  0.41517110  1  0  -0.07538  0  3.752732  0  0  -0.089426  0  3.997526  0  0  -0.091481  0  4.019238  0  0  -0.09421  -0.087986  0  3.983015  0
C  C54  1  0.94872058  0.76188061  0.58482981  1  0  -0.075293  0  3.752769  0  0  -0.089342  0  3.997582  0  0  -0.091393  0  4.019291  0  0  -0.094201  -0.087923  0  3.983058  0
C  C55  1  0.95543192  0.14218730  0.46517933  1  0  -0.067682  0  3.777372  0  0  -0.078332  0  4.019267  0  0  -0.08033  0  4.041552  0  0  -0.093136  -0.077095  0  4.004314  0
C  C56  1  0.04456787  0.85781337  0.53481833  1  0  -0.067753  0  3.777449  0  0  -0.078401  0  4.019348  0  0  -0.080399  0  4.041635  0  0  -0.093139  -0.077164  0  4.004397  0
C  C57  1  0.95672298  0.19098556  0.59565629  1  0  -0.129517  0  3.771  0  0  -0.1487  0  4.014863  0  0  -0.15122  0  4.036353  0  0  -0.093748  -0.146328  0  3.999752  0
C  C58  1  0.04327681  0.80901511  0.40434137  1  0  -0.12946  0  3.771013  0  0  -0.148663  0  4.014876  0  0  -0.151185  0  4.036366  0  0  -0.093742  -0.146269  0  3.999774  0
C  C59  1  0.35354982  0.06362706  0.27575369  1  0  0.763679  0  3.819065  0  0  0.725238  0  4.107247  0  0  0.759714  0  4.098481  0  0  0.214941  0.701772  0  4.112481  0
C  C60  1  0.64644929  0.93637041  0.72424683  1  0  0.763715  0  3.819068  0  0  0.725196  0  4.107353  0  0  0.759673  0  4.098586  0  0  0.21493  0.701729  0  4.112588  0
C  C61  1  0.45358928  0.14778811  0.43219704  1  0  -0.460176  0  3.660749  0  0  -0.533162  0  3.888188  0  0  -0.540908  0  3.891551  0  0  -0.247879  -0.527691  0  3.885839  0
C  C62  1  0.54640925  0.85221043  0.56780356  1  0  -0.460207  0  3.660632  0  0  -0.533211  0  3.888108  0  0  -0.540958  0  3.891469  0  0  -0.247905  -0.52774  0  3.885762  0
C  C63  1  0.30460649  0.12089479  0.89987179  1  0  0.789217  0  3.759788  0  0  0.74743  0  4.043851  0  0  0.782056  0  4.03597  0  0  0.229708  0.723742  0  4.04827  0
C  C64  1  0.69539031  0.87910694  0.10012905  1  0  0.789156  0  3.759839  0  0  0.747339  0  4.043947  0  0  0.781961  0  4.036072  0  0  0.229676  0.723651  0  4.048364  0
C  C65  1  0.38439003  0.21597738  0.82952533  1  0  -0.489108  0  3.665952  0  0  -0.565805  0  3.895728  0  0  -0.573679  0  3.898385  0  0  -0.256589  -0.560074  0  3.893842  0
C  C66  1  0.61560668  0.78402223  0.17047411  1  0  -0.489141  0  3.665926  0  0  -0.565862  0  3.895716  0  0  -0.573739  0  3.898366  0  0  -0.256631  -0.560131  0  3.893841  0
N  N67  1  0.95617036  0.46870895  0.82404134  1  0  -0.112674  0  3.510654  0  0  -0.02072  0  3.728807  0  0  -0.037455  0  3.753509  0  0  -0.232462  -0.009604  0  3.712094  0
N  N68  1  0.04382944  0.53129171  0.17595818  1  0  -0.112679  0  3.510606  0  0  -0.020736  0  3.728775  0  0  -0.037471  0  3.753476  0  0  -0.232456  -0.00962  0  3.712059  0
O  O69  1  0.22912550  0.67966926  0.92976149  1  0  -0.602134  0  2.070701  0  0  -0.537741  0  2.332112  0  0  -0.564175  0  2.322679  0  0  -0.315632  -0.51921  0  2.338093  0
O  O70  1  0.77087365  0.32033034  0.07023671  1  0  -0.602188  0  2.070658  0  0  -0.53779  0  2.33208  0  0  -0.564224  0  2.32264  0  0  -0.315656  -0.519254  0  2.338047  0
O  O71  1  0.04999810  0.83154410  0.93962583  1  0  -0.66985  0  2.286232  0  0  -0.582035  0  2.580516  0  0  -0.613162  0  2.569497  0  0  -0.337325  -0.559679  0  2.587365  0
O  O72  1  0.95000350  0.16845549  0.06037392  1  0  -0.669853  0  2.286233  0  0  -0.582007  0  2.580488  0  0  -0.613126  0  2.569445  0  0  -0.33731  -0.559656  0  2.587333  0
O  O73  1  0.24031505  0.09481078  0.19894397  1  0  -0.654808  0  2.04057  0  0  -0.594887  0  2.297035  0  0  -0.621166  0  2.283191  0  0  -0.311315  -0.576371  0  2.305872  0
O  O74  1  0.75968592  0.90518775  0.80105725  1  0  -0.654801  0  2.040604  0  0  -0.594849  0  2.297082  0  0  -0.621126  0  2.283235  0  0  -0.311289  -0.576344  0  2.305948  0
O  O75  1  0.39524838  0.96597511  0.23151260  1  0  -0.685426  0  2.004998  0  0  -0.617035  0  2.273324  0  0  -0.646532  0  2.25752  0  0  -0.337513  -0.596559  0  2.283658  0
O  O76  1  0.60474448  0.03401811  0.76848731  1  0  -0.685548  0  2.005112  0  0  -0.617051  0  2.273414  0  0  -0.64655  0  2.257608  0  0  -0.33752  -0.596574  0  2.283751  0
O  O77  1  0.15467598  0.10504487  0.90328170  1  0  -0.614091  0  2.019055  0  0  -0.553813  0  2.271229  0  0  -0.580902  0  2.259818  0  0  -0.296081  -0.534798  0  2.2788  0
O  O78  1  0.84532139  0.89495580  0.09671813  1  0  -0.614164  0  2.019109  0  0  -0.553783  0  2.271205  0  0  -0.580871  0  2.259797  0  0  -0.296073  -0.534768  0  2.278775  0
O  O79  1  0.40042784  0.06080479  0.95509016  1  0  -0.702267  0  2.122423  0  0  -0.610125  0  2.405298  0  0  -0.642867  0  2.385315  0  0  -0.319986  -0.587124  0  2.418286  0
O  O80  1  0.59956953  0.93919587  0.04491060  1  0  -0.702172  0  2.122478  0  0  -0.61007  0  2.405407  0  0  -0.642812  0  2.385428  0  0  -0.31996  -0.587066  0  2.418391  0
