# generated using pymatgen
data_Al3H17C36(O7F)2
_symmetry_space_group_name_H-M   'P 1'
_cell_length_a   12.17582062
_cell_length_b   12.20451076
_cell_length_c   27.03297212
_cell_angle_alpha   82.42688245
_cell_angle_beta   90.89090101
_cell_angle_gamma   61.71245388
_symmetry_Int_Tables_number   1
_chemical_formula_structural   Al3H17C36(O7F)2
_chemical_formula_sum   'Al6 H34 C72 O28 F4'
_cell_volume   3492.49389927
_cell_formula_units_Z   2
loop_
 _symmetry_equiv_pos_site_id
 _symmetry_equiv_pos_as_xyz
  1  'x, y, z'
loop_
 _atom_site_type_symbol
 _atom_site_label
 _atom_site_symmetry_multiplicity
 _atom_site_fract_x
 _atom_site_fract_y
 _atom_site_fract_z
 _atom_site_occupancy
 _atom_site_pbe_bader_charge
 _atom_site_pbe_bader_spin_density
 _atom_site_pbe_cm5_charge
 _atom_site_pbe_ddec_charge
 _atom_site_pbe_ddec_spin_density
 _atom_site_pbe_ddec_sum_bond_order
 _atom_site_pbe_magmom
Al  Al0  1  0.41172838  0.18945497  0.48979870  1  2.493986  0  0.399706  1.680103  0  2.565716  0
Al  Al1  1  0.40906559  0.92518603  0.49954252  1  2.486481  0  0.512189  1.660927  0  2.50658  0
Al  Al2  1  0.65827022  0.91898943  0.50344842  1  2.481404  0  0.509543  1.659518  0  2.512843  0
Al  Al3  1  0.91374817  0.16147809  0.01656689  1  2.492691  0  0.401539  1.680613  0  2.560302  0
Al  Al4  1  0.65783069  0.42315403  0.00314827  1  2.483187  0  0.511499  1.660255  0  2.508978  0
Al  Al5  1  0.89924473  0.43454829  0.00250697  1  2.482954  0  0.51314  1.663138  0  2.504918  0
H  H6  1  0.47950334  0.68543613  0.20722899  1  0.092091  0  0.114037  0.121994  0  0.979921  0
H  H7  1  0.78410607  0.39865487  0.61742692  1  0.023679  0  0.090974  0.123009  0  0.991317  0
H  H8  1  0.95039754  0.17917628  0.64924083  1  0.052839  0  0.096785  0.095793  0  0.978055  0
H  H9  1  0.84652867  0.24137789  0.69543124  1  0.058986  0  0.089898  0.084321  0  1.03113  0
H  H10  1  0.01230981  0.60773904  0.26511318  1  0.046134  0  0.089125  0.117283  0  0.995369  0
H  H11  1  0.03813792  0.45209929  0.28514359  1  0.034528  0  0.083199  0.107279  0  1.026775  0
H  H12  1  0.10892630  0.48372898  0.23243582  1  0.024233  0  0.091848  0.123583  0  0.993764  0
H  H13  1  0.92890501  0.46196016  0.20229627  1  0.020355  0  0.093982  0.090103  0  0.993078  0
H  H14  1  0.90089180  0.61581619  0.18362260  1  0.06344  0  0.10355  0.106657  0  0.955312  0
H  H15  1  0.40355312  0.25460770  0.65817340  1  0.038786  0  0.084831  0.117936  0  1.016627  0
H  H16  1  0.33408241  0.34931407  0.70534456  1  0.014796  0  0.079657  0.105601  0  1.015455  0
H  H17  1  0.85771266  0.59395854  0.31376453  1  0.091032  0  0.111947  0.12297  0  0.999031  0
H  H18  1  0.30516696  0.41921085  0.64095793  1  0.044938  0  0.096132  0.131913  0  0.981351  0
H  H19  1  0.46108225  0.46126027  0.68504503  1  0.062579  0  0.095469  0.09353  0  0.9761  0
H  H20  1  0.52928227  0.36644852  0.63811854  1  0.056984  0  0.09918  0.0997  0  0.979434  0
H  H21  1  0.03045314  0.00078836  0.80297577  1  0.02835  0  0.077084  0.097185  0  1.031533  0
H  H22  1  0.95030075  0.09551526  0.84876910  1  0.034726  0  0.083791  0.115975  0  1.026256  0
H  H23  1  0.04990715  0.93180205  0.86708144  1  0.043845  0  0.097971  0.136017  0  0.975843  0
H  H24  1  0.82628224  0.98134809  0.86349778  1  0.060307  0  0.101202  0.106024  0  0.974219  0
H  H25  1  0.90435995  0.88440737  0.81882598  1  0.028856  0  0.097062  0.0948  0  0.986708  0
H  H26  1  0.81125187  0.81609574  0.75782761  1  0.020622  0  0.082723  0.106703  0  1.021976  0
H  H27  1  0.74716938  0.88153124  0.69489624  1  0.026529  0  0.082793  0.110431  0  1.023978  0
H  H28  1  0.41626286  0.90368293  0.31887721  1  0.016379  0  0.083748  0.110347  0  1.014519  0
H  H29  1  0.90406339  0.75770419  0.70748481  1  0.031274  0  0.089685  0.121753  0  0.99032  0
H  H30  1  0.89981496  0.96439603  0.68280799  1  0.049895  0  0.09398  0.091648  0  0.99017  0
H  H31  1  0.96522118  0.90074699  0.74521794  1  0.036878  0  0.096644  0.095533  0  0.986149  0
H  H32  1  0.34410006  0.91874024  0.25892827  1  0.034984  0  0.08292  0.108161  0  1.014275  0
H  H33  1  0.26874096  0.90793033  0.31389372  1  0.038258  0  0.089261  0.121506  0  0.999546  0
H  H34  1  0.36689578  0.70125126  0.28173837  1  0.024123  0  0.098029  0.096467  0  0.965707  0
H  H35  1  0.43753753  0.68709931  0.34171679  1  0.048752  0  0.09968  0.102223  0  0.9744  0
H  H36  1  0.82804295  0.45520924  0.66741535  1  0.045103  0  0.08093  0.107476  0  1.029504  0
H  H37  1  0.93281241  0.39300910  0.62088556  1  0.023123  0  0.089443  0.121503  0  0.997129  0
H  H38  1  0.29977416  0.39889806  0.44990864  1  0.561593  0  0.295715  0.387286  0  0.916627  0
H  H39  1  0.04203491  0.95584509  0.05786003  1  0.576827  0  0.296406  0.387007  0  0.916689  0
C  C40  1  0.27247794  0.11284714  0.41890900  1  1.705663  0  0.277525  0.69321  0  4.184969  0
C  C41  1  0.66725977  0.19897070  0.18041552  1  -0.37543  0  -0.005779  0.027852  0  4.254914  0
C  C42  1  0.66018476  0.18122189  0.22993295  1  -0.229338  0  0.001662  -0.001165  0  4.194563  0
C  C43  1  0.60846766  0.76457367  0.44686640  1  1.592415  0  0.285135  0.724254  0  4.144922  0
C  C44  1  0.65768792  0.16430461  0.27581178  1  0.193484  0  0.00073  -0.003677  0  4.194083  0
C  C45  1  0.65304102  0.14429800  0.32542810  1  -0.26779  0  -0.005645  0.030058  0  4.257523  0
C  C46  1  0.64762956  0.12437842  0.37075725  1  0.219042  0  0.001802  -0.132314  0  3.826492  0
C  C47  1  0.10257404  0.23337834  0.13169161  1  0.134326  0  0.008147  -0.124155  0  3.811791  0
C  C48  1  0.12464745  0.21849469  0.17723161  1  -0.201843  0  -0.003182  0.024702  0  4.253054  0
C  C49  1  0.14607959  0.20298794  0.22704975  1  0.052653  0  0.00832  0.002378  0  4.177485  0
C  C50  1  0.16391525  0.18866360  0.27303677  1  -0.048894  0  0.011115  0.005369  0  4.177436  0
C  C51  1  0.78763534  0.59665910  0.23979367  1  -0.011574  0  0.008457  0.091423  0  3.902443  0
C  C52  1  0.18903756  0.16878796  0.32280281  1  -0.514363  0  0.000381  0.027923  0  4.25328  0
C  C53  1  0.21686393  0.14590057  0.36818096  1  0.347741  0  0.006603  -0.129604  0  3.812253  0
C  C54  1  0.67525716  0.63163288  0.87400191  1  0.180033  0  0.01202  -0.123718  0  3.791155  0
C  C55  1  0.62206465  0.09933098  0.42144086  1  1.671588  0  0.276552  0.693803  0  4.186063  0
C  C56  1  0.66199548  0.65231147  0.82801040  1  -0.270071  0  0.009672  0.045544  0  4.212666  0
C  C57  1  0.64868396  0.67294586  0.77774835  1  0.185279  0  0.016975  0.015149  0  4.147801  0
C  C58  1  0.63794957  0.69021540  0.73148381  1  -0.076611  0  0.014161  0.006983  0  4.151127  0
C  C59  1  0.62600271  0.71298395  0.68122295  1  -0.446877  0  0.008861  0.044099  0  4.223793  0
C  C60  1  0.61484939  0.73595525  0.63524898  1  0.345446  0  0.009007  -0.131518  0  3.799721  0
C  C61  1  0.67737166  0.11744978  0.60779295  1  0.282415  0  -0.033683  -0.211351  0  3.913902  0
C  C62  1  0.77597667  0.61334992  0.28970687  1  0.01219  0  -0.075582  -0.168069  0  3.913942  0
C  C63  1  0.59015082  0.26909242  0.71305818  1  0.048383  0  -0.003656  -0.018889  0  3.9557  0
C  C64  1  0.59002345  0.28188697  0.76319820  1  0.452591  0  0.108098  0.190857  0  4.03466  0
C  C65  1  0.77516504  0.07584082  0.78777006  1  0.02232  0  0.010546  0.055745  0  3.883352  0
C  C66  1  0.78008971  0.05948914  0.73739782  1  0.011034  0  0.000981  0.023232  0  3.900185  0
C  C67  1  0.26879688  0.10006804  0.55913849  1  1.704322  0  0.283109  0.707047  0  4.16236  0
C  C68  1  0.68686596  0.15470272  0.70099844  1  0.051639  0  0.004797  0.023739  0  4.0746  0
C  C69  1  0.67821862  0.18916816  0.80079643  1  0.190738  0  -0.004451  -0.036492  0  4.124976  0
C  C70  1  0.67062699  0.21043371  0.85085218  1  -0.403506  0  -0.004322  0.027485  0  4.095541  0
C  C71  1  0.68582017  0.13432606  0.65085482  1  -0.537055  0  0.002289  0.025293  0  4.082432  0
C  C72  1  0.66863897  0.22622632  0.89447917  1  0.136438  0  -0.029569  -0.198622  0  3.922461  0
C  C73  1  0.65986945  0.65602959  0.31070326  1  0.113165  0  0.006426  0.064467  0  4.077963  0
C  C74  1  0.21061989  0.12005818  0.60543223  1  0.252352  0  -0.020789  -0.178127  0  3.890956  0
C  C75  1  0.25244410  0.13476782  0.73175087  1  0.538266  0  0.097047  0.119035  0  4.08938  0
C  C76  1  0.23171216  0.16159504  0.78007934  1  0.571537  0  0.102878  0.146818  0  4.085897  0
C  C77  1  0.01133525  0.24679316  0.75926361  1  0.441943  0  0.108207  0.190582  0  4.024811  0
C  C78  1  0.02792928  0.22017581  0.71065405  1  0.10396  0  -0.006381  -0.016305  0  3.951497  0
C  C79  1  0.59467710  0.78408308  0.58254949  1  1.659944  0  0.284566  0.70112  0  4.17274  0
C  C80  1  0.15231893  0.16396573  0.69657811  1  0.17428  0  -0.001202  -0.00552  0  4.122253  0
C  C81  1  0.10973649  0.21823658  0.79541547  1  0.170023  0  -0.011307  -0.073708  0  4.175156  0
C  C82  1  0.08824520  0.23890273  0.84527559  1  -0.399849  0  -0.009636  0.022727  0  4.089389  0
C  C83  1  0.17977074  0.13888205  0.64742530  1  -0.517183  0  -0.004264  0.02028  0  4.075243  0
C  C84  1  0.67712153  0.62582502  0.20979136  1  0.121918  0  0.006838  0.069579  0  4.083169  0
C  C85  1  0.06881127  0.25139384  0.88872579  1  0.205428  0  -0.015293  -0.167156  0  3.885874  0
C  C86  1  0.70711186  0.23763743  0.08513279  1  1.704667  0  0.278079  0.692467  0  4.186533  0
C  C87  1  0.70659647  0.56479259  0.06583800  1  1.609511  0  0.284464  0.723568  0  4.145129  0
C  C88  1  0.05159905  0.25597010  0.08077346  1  1.710701  0  0.279254  0.691801  0  4.188372  0
C  C89  1  0.69032798  0.24877946  0.94325486  1  1.665076  0  0.280484  0.707977  0  4.168315  0
C  C90  1  0.70328050  0.58096752  0.92646833  1  1.65243  0  0.288711  0.702261  0  4.168748  0
C  C91  1  0.63881876  0.09514157  0.56166392  1  1.646478  0  0.280481  0.708987  0  4.171851  0
C  C92  1  0.02780457  0.26310294  0.93841992  1  1.675081  0  0.284172  0.711802  0  4.15596  0
C  C93  1  0.63782077  0.70529543  0.40320492  1  0.251095  0  -0.036015  -0.216546  0  3.922393  0
C  C94  1  0.55071569  0.68075736  0.28118458  1  -0.002553  0  0.010386  0.098059  0  3.920329  0
C  C95  1  0.68236909  0.61437572  0.15836275  1  -0.524631  0  0.003583  0.018046  0  4.056528  0
C  C96  1  0.56201121  0.66542768  0.23106950  1  -0.048386  0  -0.072624  -0.168574  0  3.921118  0
C  C97  1  0.42556841  0.72958773  0.30221277  1  0.027398  0  -0.157772  -0.149756  0  3.986552  0
C  C98  1  0.35966012  0.87349827  0.29817579  1  -0.07292  0  -0.243882  -0.349454  0  3.96051  0
C  C99  1  0.91892394  0.25026698  0.67438537  1  -0.006282  0  -0.160383  -0.130108  0  3.976618  0
C  C100  1  0.86291732  0.38227564  0.64320896  1  -0.041754  0  -0.241084  -0.347544  0  3.939168  0
C  C101  1  0.91127640  0.54829831  0.21711117  1  0.01936  0  -0.156995  -0.145346  0  3.990569  0
C  C102  1  0.02342509  0.52182418  0.25202256  1  -0.077802  0  -0.243819  -0.355352  0  3.985137  0
C  C103  1  0.49024891  0.36802965  0.67454713  1  -0.016439  0  -0.157694  -0.128746  0  3.978803  0
C  C104  1  0.37623947  0.34652567  0.66955938  1  -0.044489  0  -0.24121  -0.348221  0  3.931055  0
C  C105  1  0.87091811  0.97914022  0.82836716  1  -0.009726  0  -0.158562  -0.146454  0  3.970208  0
C  C106  1  0.65087949  0.67902006  0.36083483  1  -0.504372  0  0.008053  0.0302  0  4.042063  0
C  C107  1  0.98215823  0.00306313  0.83718044  1  -0.056961  0  -0.241474  -0.347242  0  3.931292  0
C  C108  1  0.87798998  0.94084040  0.72076017  1  -0.010485  0  -0.160062  -0.144282  0  3.985731  0
C  C109  1  0.83271577  0.84301520  0.72030138  1  -0.052371  0  -0.242881  -0.350322  0  3.955364  0
C  C110  1  0.68815123  0.60360959  0.11406030  1  0.291476  0  -0.034055  -0.207579  0  3.922666  0
C  C111  1  0.67690219  0.21504986  0.13527847  1  0.278704  0  0.005497  -0.125648  0  3.819142  0
O  O112  1  0.52304505  0.18272820  0.43577638  1  -1.208697  0  -0.20635  -0.554733  0  2.291493  0
O  O113  1  0.80625043  0.55069521  0.04587484  1  -1.244164  0  -0.227849  -0.592624  0  2.246075  0
O  O114  1  0.02371498  0.36425382  0.05527058  1  -1.249334  0  -0.233291  -0.585876  0  2.227392  0
O  O115  1  0.29668413  0.19169001  0.43552163  1  -1.209325  0  -0.205997  -0.557071  0  2.296876  0
O  O116  1  0.00230594  0.17963168  0.95856803  1  -1.205476  0  -0.196104  -0.532309  0  2.282983  0
O  O117  1  0.78947612  0.16670094  0.96942523  1  -1.232247  0  -0.203211  -0.54594  0  2.282202  0
O  O118  1  0.60948403  0.35441972  0.95601940  1  -1.254868  0  -0.240658  -0.602295  0  2.226871  0
O  O119  1  0.62454426  0.55445231  0.94798463  1  -1.229904  0  -0.215204  -0.567387  0  2.250388  0
O  O120  1  0.80875478  0.55992052  0.94661774  1  -1.23185  0  -0.220531  -0.575674  0  2.240033  0
O  O121  1  0.01614137  0.35959873  0.95705277  1  -1.25623  0  -0.239657  -0.604381  0  2.234097  0
O  O122  1  0.82328981  0.34185097  0.00756048  1  -1.612267  0  -0.39074  -1.27616  0  2.296995  0
O  O123  1  0.49134762  0.80748283  0.55972576  1  -1.235303  0  -0.222347  -0.579242  0  2.24584  0
O  O124  1  0.29717763  0.00324187  0.44185760  1  -1.247502  0  -0.23374  -0.586812  0  2.229708  0
O  O125  1  0.49933772  0.79644588  0.46193530  1  -1.244941  0  -0.227912  -0.592834  0  2.239898  0
O  O126  1  0.69005698  0.78780083  0.46679382  1  -1.236172  0  -0.227062  -0.591815  0  2.242151  0
O  O127  1  0.70027345  0.99166248  0.44680665  1  -1.253301  0  -0.235472  -0.592344  0  2.238973  0
O  O128  1  0.53005807  0.17445109  0.54212017  1  -1.219157  0  -0.199811  -0.538339  0  2.291746  0
O  O129  1  0.30808051  0.17550614  0.54285111  1  -1.205074  0  -0.194567  -0.528719  0  2.286472  0
O  O130  1  0.28038574  0.00468249  0.53942002  1  -1.256541  0  -0.240915  -0.604466  0  2.22645  0
O  O131  1  0.67958506  0.80496700  0.56345549  1  -1.232094  0  -0.220609  -0.573818  0  2.246747  0
O  O132  1  0.71527761  0.99392881  0.54466289  1  -1.257555  0  -0.244266  -0.610664  0  2.227742  0
O  O133  1  0.49343028  0.00943938  0.49695748  1  -1.610731  0  -0.391308  -1.275531  0  2.298821  0
O  O134  1  0.03295121  0.17158501  0.06636446  1  -1.199966  0  -0.203274  -0.550158  0  2.287306  0
O  O135  1  0.81704012  0.16484917  0.07543620  1  -1.208089  0  -0.204354  -0.549482  0  2.295584  0
O  O136  1  0.62149707  0.33261282  0.05541022  1  -1.25626  0  -0.236474  -0.596019  0  2.240278  0
O  O137  1  0.62452700  0.54049478  0.04701344  1  -1.244956  0  -0.229027  -0.591166  0  2.236503  0
O  O138  1  0.33527260  0.35386359  0.48325440  1  -1.34193  0  -0.572945  -0.989126  0  1.789709  0
O  O139  1  0.99829274  0.99712202  0.02513642  1  -1.352797  0  -0.570214  -0.984872  0  1.787519  0
F  F140  1  0.32991318  0.13149948  0.81289490  1  -0.61722  0  -0.083992  -0.099253  0  1.3558  0
F  F141  1  0.89312070  0.30231839  0.77378910  1  -0.627668  0  -0.084093  -0.120329  0  1.374872  0
F  F142  1  0.49966530  0.38923538  0.77728673  1  -0.629509  0  -0.094553  -0.132008  0  1.347527  0
F  F143  1  0.37134768  0.07853561  0.71876914  1  -0.620379  0  -0.083586  -0.107187  0  1.383924  0
