# generated using pymatgen
data_CdB2H16C22N4(OF4)2
_symmetry_space_group_name_H-M   'P 1'
_cell_length_a   8.56612574
_cell_length_b   9.16704822
_cell_length_c   9.67546789
_cell_angle_alpha   60.91260145
_cell_angle_beta   68.43648242
_cell_angle_gamma   68.91713742
_symmetry_Int_Tables_number   1
_chemical_formula_structural   CdB2H16C22N4(OF4)2
_chemical_formula_sum   'Cd1 B2 H16 C22 N4 O2 F8'
_cell_volume   601.96745159
_cell_formula_units_Z   1
loop_
 _symmetry_equiv_pos_site_id
 _symmetry_equiv_pos_as_xyz
  1  'x, y, z'
loop_
 _atom_site_type_symbol
 _atom_site_label
 _atom_site_symmetry_multiplicity
 _atom_site_fract_x
 _atom_site_fract_y
 _atom_site_fract_z
 _atom_site_occupancy
 _atom_site_hle17_bader_spin_density
 _atom_site_hle17_ddec_charge
 _atom_site_hle17_ddec_spin_density
 _atom_site_hle17_ddec_sum_bond_order
 _atom_site_hle17_magmom
 _atom_site_hse06_10hf_bader_spin_density
 _atom_site_hse06_10hf_ddec_charge
 _atom_site_hse06_10hf_ddec_spin_density
 _atom_site_hse06_10hf_ddec_sum_bond_order
 _atom_site_hse06_10hf_magmom
 _atom_site_hse06_bader_spin_density
 _atom_site_hse06_ddec_charge
 _atom_site_hse06_ddec_spin_density
 _atom_site_hse06_ddec_sum_bond_order
 _atom_site_hse06_magmom
 _atom_site_pbe_bader_spin_density
 _atom_site_pbe_cm5_charge
 _atom_site_pbe_ddec_charge
 _atom_site_pbe_ddec_spin_density
 _atom_site_pbe_ddec_sum_bond_order
 _atom_site_pbe_magmom
Cd  Cd0  1  0.49999870  0.50000124  0.00000023  1  0  1.070825  0  1.676405  0  0  0.845907  0  2.121295  0  0  0.90214  0  2.076044  0  0  0.812552  0.805126  0  2.154189  0
B  B1  1  0.80707000  0.17419402  0.20070547  1  0  1.237902  0  2.848974  0  0  1.061541  0  3.251306  0  0  1.102429  0  3.199869  0  0  0.033289  1.033148  0  3.286479  0
B  B2  1  0.19292724  0.82580764  0.79929365  1  0  1.237981  0  2.848772  0  0  1.061624  0  3.251142  0  0  1.102487  0  3.19976  0  0  0.03331  1.033249  0  3.286262  0
H  H3  1  0.43731004  0.39981400  0.38425481  1  0  0.0769  0  0.961755  0  0  0.082107  0  1.033436  0  0  0.084027  0  1.032557  0  0  0.112279  0.080511  0  1.034271  0
H  H4  1  0.56269126  0.60018643  0.61574250  1  0  0.076916  0  0.961746  0  0  0.082136  0  1.033406  0  0  0.084057  0  1.032526  0  0  0.112276  0.080545  0  1.034239  0
H  H5  1  0.97754955  0.20347913  0.64770997  1  0  0.101292  0  0.956038  0  0  0.108392  0  1.024349  0  0  0.111267  0  1.021644  0  0  0.112367  0.106258  0  1.026296  0
H  H6  1  0.02245206  0.79652000  0.35228989  1  0  0.101293  0  0.956037  0  0  0.108397  0  1.024345  0  0  0.11128  0  1.021629  0  0  0.112364  0.106255  0  1.026307  0
H  H7  1  0.97783812  0.19189252  0.39149579  1  0  0.119697  0  0.972035  0  0  0.126641  0  1.033842  0  0  0.130375  0  1.032043  0  0  0.108125  0.12368  0  1.035594  0
H  H8  1  0.02216129  0.80810531  0.60850539  1  0  0.119694  0  0.972075  0  0  0.126661  0  1.033858  0  0  0.130397  0  1.032061  0  0  0.10811  0.123696  0  1.035621  0
H  H9  1  0.20394510  0.29928702  0.14197998  1  0  0.077536  0  0.94292  0  0  0.085446  0  1.009691  0  0  0.087479  0  1.007406  0  0  0.119269  0.084055  0  1.011383  0
H  H10  1  0.79605244  0.70071336  0.85801962  1  0  0.07752  0  0.942909  0  0  0.085407  0  1.009704  0  0  0.087434  0  1.007421  0  0  0.119248  0.084007  0  1.011393  0
H  H11  1  0.24579175  0.45631282  0.84873988  1  0  0.097613  0  0.944848  0  0  0.101978  0  1.013444  0  0  0.105934  0  1.008364  0  0  0.121679  0.099124  0  1.017149  0
H  H12  1  0.75421017  0.54368504  0.15126047  1  0  0.097588  0  0.944829  0  0  0.101983  0  1.013398  0  0  0.105938  0  1.00832  0  0  0.121685  0.099126  0  1.017101  0
H  H13  1  0.51780615  0.09599424  0.62731786  1  0  0.114396  0  0.927708  0  0  0.123658  0  0.98771  0  0  0.126759  0  0.9851  0  0  0.113754  0.121371  0  0.989638  0
H  H14  1  0.48219576  0.90400362  0.37268145  1  0  0.11439  0  0.927767  0  0  0.123655  0  0.987762  0  0  0.126754  0  0.985153  0  0  0.113762  0.121369  0  0.989695  0
H  H15  1  0.76506844  0.02918846  0.74559454  1  0  0.11978  0  0.967344  0  0  0.127928  0  1.028144  0  0  0.130731  0  1.028085  0  0  0.109525  0.126045  0  1.028258  0
H  H16  1  0.23493163  0.97081194  0.25440629  1  0  0.119766  0  0.967339  0  0  0.127912  0  1.02814  0  0  0.130717  0  1.028081  0  0  0.109518  0.12603  0  1.028258  0
H  H17  1  0.73869731  0.18098865  0.91021829  1  0  0.099526  0  0.929577  0  0  0.105909  0  0.993862  0  0  0.109496  0  0.989247  0  0  0.123742  0.103325  0  0.997185  0
H  H18  1  0.26130402  0.81901176  0.08978315  1  0  0.099532  0  0.929588  0  0  0.105919  0  0.993872  0  0  0.109506  0  0.989256  0  0  0.123753  0.103337  0  0.997197  0
C  C19  1  0.33205578  0.35480588  0.39087235  1  0  0.113881  0  3.684021  0  0  0.07279  0  3.934974  0  0  0.080635  0  3.95429  0  0  0.053957  0.067559  0  3.922169  0
C  C20  1  0.66794426  0.64519454  0.60912537  1  0  0.113885  0  3.684174  0  0  0.072788  0  3.935106  0  0  0.080635  0  3.954422  0  0  0.053976  0.067546  0  3.922307  0
C  C21  1  0.20711748  0.30176167  0.53513094  1  0  -0.076121  0  3.753784  0  0  -0.054418  0  3.988322  0  0  -0.064502  0  4.012164  0  0  -0.007386  -0.047856  0  3.972612  0
C  C22  1  0.79288132  0.69823871  0.46486928  1  0  -0.076201  0  3.753973  0  0  -0.054486  0  3.988514  0  0  -0.064579  0  4.012368  0  0  -0.00745  -0.047926  0  3.972809  0
C  C23  1  0.07553029  0.24472152  0.53581033  1  0  0.013167  0  3.667015  0  0  -0.019614  0  3.917567  0  0  -0.013516  0  3.933581  0  0  -0.046106  -0.023061  0  3.906478  0
C  C24  1  0.92447007  0.75527760  0.46418995  1  0  0.013159  0  3.667054  0  0  -0.019633  0  3.917626  0  0  -0.01354  0  3.933642  0  0  -0.046092  -0.023074  0  3.906549  0
C  C25  1  0.07588809  0.23821355  0.39554724  1  0  -0.111962  0  3.695643  0  0  -0.122208  0  3.945826  0  0  -0.13068  0  3.966258  0  0  -0.076037  -0.116905  0  3.932379  0
C  C26  1  0.92411383  0.76178431  0.60445311  1  0  -0.111903  0  3.695708  0  0  -0.122172  0  3.945872  0  0  -0.130648  0  3.966308  0  0  -0.07599  -0.116872  0  3.932422  0
C  C27  1  0.20304921  0.29755797  0.25562863  1  0  0.167488  0  3.659572  0  0  0.130616  0  3.915  0  0  0.14016  0  3.931842  0  0  0.06259  0.124478  0  3.903373  0
C  C28  1  0.79694959  0.70244243  0.74437055  1  0  0.167494  0  3.65956  0  0  0.130638  0  3.915003  0  0  0.140189  0  3.931838  0  0  0.062606  0.124515  0  3.903351  0
C  C29  1  0.19959894  0.31549464  0.68492035  1  0  0.403068  0  3.730978  0  0  0.383042  0  3.986641  0  0  0.40372  0  3.992728  0  0  0.171542  0.368397  0  3.983282  0
C  C30  1  0.80040333  0.68450707  0.31507915  1  0  0.403201  0  3.730848  0  0  0.383134  0  3.986534  0  0  0.403825  0  3.992596  0  0  0.171595  0.3685  0  3.983175  0
C  C31  1  0.35872746  0.36026521  0.82452122  1  0  0.120204  0  3.667502  0  0  0.078823  0  3.920444  0  0  0.087874  0  3.936503  0  0  0.059047  0.073137  0  3.909143  0
C  C32  1  0.64127260  0.63973519  0.17547857  1  0  0.12025  0  3.667468  0  0  0.07883  0  3.920403  0  0  0.087881  0  3.936464  0  0  0.059052  0.07316  0  3.909082  0
C  C33  1  0.36131955  0.27969295  0.73213592  1  0  -0.080682  0  3.738233  0  0  -0.058916  0  3.971352  0  0  -0.069869  0  3.99625  0  0  -0.008805  -0.051612  0  3.954497  0
C  C34  1  0.63868021  0.72030873  0.26786339  1  0  -0.080755  0  3.738233  0  0  -0.058934  0  3.971311  0  0  -0.069891  0  3.996209  0  0  -0.008802  -0.051635  0  3.954457  0
C  C35  1  0.51073619  0.16110359  0.69889919  1  0  0.012529  0  3.650077  0  0  -0.018842  0  3.901008  0  0  -0.013002  0  3.918113  0  0  -0.047268  -0.021841  0  3.888794  0
C  C36  1  0.48926514  0.83889681  0.30110329  1  0  0.012524  0  3.650024  0  0  -0.018865  0  3.900942  0  0  -0.013025  0  3.918048  0  0  -0.047298  -0.02187  0  3.888739  0
C  C37  1  0.64796601  0.12370548  0.76407623  1  0  -0.118951  0  3.700408  0  0  -0.129201  0  3.951593  0  0  -0.138194  0  3.974455  0  0  -0.078984  -0.1237  0  3.936173  0
C  C38  1  0.35203309  0.87629363  0.23592343  1  0  -0.11891  0  3.700307  0  0  -0.129162  0  3.951506  0  0  -0.138155  0  3.974363  0  0  -0.078969  -0.12365  0  3.936086  0
C  C39  1  0.63451373  0.20806450  0.85618231  1  0  0.145032  0  3.66408  0  0  0.109314  0  3.920395  0  0  0.117771  0  3.938019  0  0  0.056847  0.104205  0  3.908103  0
C  C40  1  0.36548508  0.79193588  0.14381790  1  0  0.145012  0  3.664093  0  0  0.109288  0  3.920411  0  0  0.117745  0  3.938035  0  0  0.056835  0.104176  0  3.908127  0
N  N41  1  0.32793359  0.35644829  0.25233503  1  0  -0.339437  0  3.249357  0  0  -0.258724  0  3.521114  0  0  -0.28018  0  3.539597  0  0  -0.327345  -0.243469  0  3.508125  0
N  N42  1  0.67206425  0.64355082  0.74766402  1  0  -0.339447  0  3.249342  0  0  -0.258733  0  3.521087  0  0  -0.280188  0  3.539566  0  0  -0.327346  -0.243473  0  3.508087  0
N  N43  1  0.49270501  0.32697109  0.88389129  1  0  -0.351652  0  3.257198  0  0  -0.271074  0  3.528544  0  0  -0.292918  0  3.548361  0  0  -0.328975  -0.255616  0  3.514439  0
N  N44  1  0.50729505  0.67302931  0.11610850  1  0  -0.351649  0  3.25718  0  0  -0.271072  0  3.528546  0  0  -0.292916  0  3.54836  0  0  -0.328968  -0.255615  0  3.514435  0
O  O45  1  0.05879033  0.35633982  0.76991540  1  0  -0.42349  0  1.926801  0  0  -0.388112  0  2.134889  0  0  -0.40622  0  2.133698  0  0  -0.237407  -0.375688  0  2.135723  0
O  O46  1  0.94121072  0.64366702  0.23008112  1  0  -0.42355  0  1.92674  0  0  -0.388166  0  2.13485  0  0  -0.406276  0  2.133651  0  0  -0.237451  -0.375749  0  2.13569  0
F  F47  1  0.77082615  0.34015757  0.06852346  1  0  -0.510812  0  1.093364  0  0  -0.432851  0  1.293999  0  0  -0.452408  0  1.271622  0  0  -0.149209  -0.421312  0  1.312033  0
F  F48  1  0.22917265  0.65984282  0.93147676  1  0  -0.510828  0  1.093316  0  0  -0.43287  0  1.293964  0  0  -0.452432  0  1.271601  0  0  -0.149212  -0.421336  0  1.311995  0
F  F49  1  0.72755069  0.06460558  0.20014294  1  0  -0.514902  0  1.03749  0  0  -0.457808  0  1.219561  0  0  -0.471406  0  1.198125  0  0  -0.152532  -0.447745  0  1.234366  0
F  F50  1  0.27244656  0.93539607  0.79985617  1  0  -0.5149  0  1.037419  0  0  -0.457811  0  1.219497  0  0  -0.471402  0  1.198068  0  0  -0.152528  -0.447756  0  1.234296  0
F  F51  1  0.98646411  0.11337409  0.17566321  1  0  -0.504193  0  1.018596  0  0  -0.444235  0  1.194415  0  0  -0.458148  0  1.172646  0  0  -0.145452  -0.433963  0  1.209223  0
F  F52  1  0.01353374  0.88662501  0.82433688  1  0  -0.504205  0  1.018579  0  0  -0.444257  0  1.194415  0  0  -0.45816  0  1.172646  0  0  -0.145457  -0.43399  0  1.209213  0
F  F53  1  0.73747281  0.19670777  0.34818467  1  0  -0.523222  0  1.017273  0  0  -0.46513  0  1.195419  0  0  -0.478677  0  1.174301  0  0  -0.158782  -0.455083  0  1.20983  0
F  F54  1  0.26252567  0.80329391  0.65181299  1  0  -0.523272  0  1.017247  0  0  -0.465172  0  1.195393  0  0  -0.478714  0  1.174281  0  0  -0.158801  -0.455129  0  1.209796  0
