# generated using pymatgen
data_CuH20C20(N2O3)2
_symmetry_space_group_name_H-M   'P 1'
_cell_length_a   10.54535824
_cell_length_b   17.76133513
_cell_length_c   17.76141111
_cell_angle_alpha   100.02136320
_cell_angle_beta   101.32844283
_cell_angle_gamma   101.32927866
_symmetry_Int_Tables_number   1
_chemical_formula_structural   CuH20C20(N2O3)2
_chemical_formula_sum   'Cu4 H80 C80 N16 O24'
_cell_volume   3119.15042662
_cell_formula_units_Z   4
loop_
 _symmetry_equiv_pos_site_id
 _symmetry_equiv_pos_as_xyz
  1  'x, y, z'
loop_
 _atom_site_type_symbol
 _atom_site_label
 _atom_site_symmetry_multiplicity
 _atom_site_fract_x
 _atom_site_fract_y
 _atom_site_fract_z
 _atom_site_occupancy
 _atom_site_pbe_bader_charge
 _atom_site_pbe_bader_spin_density
 _atom_site_pbe_cm5_charge
 _atom_site_pbe_ddec_charge
 _atom_site_pbe_ddec_spin_density
 _atom_site_pbe_ddec_sum_bond_order
 _atom_site_pbe_magmom
Cu  Cu0  1  0.29157623  0.76073327  0.75247926  1  1.072381  -0.559229  0.740446  0.772479  -0.753371  2.291201  -0.559
Cu  Cu1  1  0.20842185  0.24752067  0.23926513  1  1.072595  -0.559255  0.740585  0.772647  -0.753415  2.291576  -0.559
Cu  Cu2  1  0.70847339  0.23926825  0.24750963  1  1.072599  0.559238  0.740485  0.772446  0.753395  2.291112  0.559
Cu  Cu3  1  0.79152562  0.75248686  0.76072658  1  1.072473  0.559183  0.740378  0.772517  0.753311  2.290319  0.559
H  H4  1  0.51832125  0.75627897  0.68781227  1  0.635702  4.9e-05  0.273665  0.365078  -0.000131  0.994775  0.0
H  H5  1  0.98167470  0.31219737  0.24372009  1  0.635704  4.9e-05  0.273615  0.365016  -0.000132  0.99486  0.0
H  H6  1  0.48166557  0.24372130  0.31220261  1  0.635559  -4.8e-05  0.273617  0.36503  0.000132  0.994742  0.0
H  H7  1  0.01833688  0.68780594  0.75627241  1  0.63534  -4.8e-05  0.273543  0.364903  0.000132  0.99492  0.0
H  H8  1  0.56247100  0.83461327  0.75858773  1  0.629973  9.8e-05  0.274638  0.370861  -3.4e-05  0.982229  0.0
H  H9  1  0.93752899  0.24141904  0.16537881  1  0.630041  9.7e-05  0.274657  0.370919  -3.5e-05  0.982183  0.0
H  H10  1  0.43751000  0.16537473  0.24140907  1  0.62976  -9.8e-05  0.274543  0.370729  3.5e-05  0.982387  0.0
H  H11  1  0.06249386  0.75859306  0.83462225  1  0.630138  -9.7e-05  0.274551  0.370722  3.5e-05  0.982432  0.0
H  H12  1  0.18151679  0.38133192  0.17916412  1  0.167987  -0.001678  0.129916  0.119196  -0.000808  0.976671  -0.001
H  H13  1  0.31847888  0.82083517  0.61866167  1  0.168361  -0.001677  0.129869  0.119219  -0.000808  0.976697  -0.001
H  H14  1  0.81846567  0.61865725  0.82083249  1  0.168733  0.001678  0.129918  0.119313  0.000808  0.976658  0.001
H  H15  1  0.68152292  0.17916341  0.38133726  1  0.168241  0.001678  0.129891  0.119169  0.000808  0.976693  0.001
H  H16  1  0.23674996  0.44416070  0.06978231  1  0.106452  -0.000819  0.116736  0.128143  -0.000448  0.984659  0.0
H  H17  1  0.26325530  0.93022635  0.55583283  1  0.106205  -0.00082  0.116694  0.12817  -0.000448  0.984573  0.0
H  H18  1  0.76324996  0.55582896  0.93022889  1  0.106198  0.00082  0.116685  0.128156  0.000448  0.984524  0.0
H  H19  1  0.73675209  0.06977635  0.44416525  1  0.106353  0.00082  0.116706  0.128107  0.000448  0.984617  0.0
H  H20  1  0.43874551  0.26012157  0.01047930  1  0.121619  -0.001106  0.117293  0.12552  -0.00061  0.997761  -0.001
H  H21  1  0.06123925  0.98952729  0.73987232  1  0.12149  -0.001106  0.117256  0.125476  -0.000611  0.997598  -0.001
H  H22  1  0.56124086  0.73987282  0.98953279  1  0.121456  0.001106  0.11725  0.125494  0.00061  0.997601  0.001
H  H23  1  0.93874805  0.01047131  0.26012487  1  0.121606  0.001106  0.117259  0.125464  0.00061  0.997699  0.001
H  H24  1  0.37921945  0.20715025  0.12373681  1  0.169152  -0.001713  0.127221  0.104472  -0.000758  1.024591  -0.001
H  H25  1  0.12076177  0.87626133  0.79284308  1  0.168893  -0.001714  0.127265  0.104569  -0.000758  1.024486  -0.001
H  H26  1  0.62078253  0.79284652  0.87626689  1  0.169221  0.001715  0.127253  0.104521  0.000759  1.024601  0.001
H  H27  1  0.87920410  0.12372968  0.20714623  1  0.169214  0.001714  0.127214  0.104495  0.000758  1.024592  0.001
H  H28  1  0.22553273  0.69750872  0.88770951  1  0.152001  -0.002188  0.126311  0.102433  -0.00108  1.008559  -0.001
H  H29  1  0.27445274  0.11229688  0.30248746  1  0.151418  -0.002188  0.126265  0.102326  -0.00108  1.008497  -0.001
H  H30  1  0.77444147  0.30248399  0.11228956  1  0.151859  0.002188  0.126257  0.10229  0.00108  1.00856  0.001
H  H31  1  0.72554041  0.88770644  0.69750845  1  0.151732  0.002188  0.126267  0.102328  0.00108  1.008564  0.001
H  H32  1  0.25648900  0.58145269  0.94551612  1  0.101505  -0.001225  0.118349  0.130879  -0.000664  0.98001  -0.001
H  H33  1  0.24352382  0.05450315  0.41854739  1  0.102037  -0.001225  0.118396  0.130963  -0.000664  0.980182  -0.001
H  H34  1  0.74351387  0.41854641  0.05449316  1  0.101912  0.001224  0.118393  0.130941  0.000664  0.980057  0.001
H  H35  1  0.75647397  0.94550902  0.58144559  1  0.101772  0.001224  0.118405  0.130955  0.000664  0.979892  0.001
H  H36  1  0.45427153  0.51252347  0.76227991  1  0.1106  -0.000911  0.116484  0.123586  -0.000499  1.001472  0.0
H  H37  1  0.04574472  0.23773281  0.48747741  1  0.110951  -0.000911  0.116545  0.123577  -0.000499  1.001431  0.0
H  H38  1  0.54574590  0.48748270  0.23772676  1  0.110962  0.000911  0.116531  0.123616  0.000499  1.001487  0.0
H  H39  1  0.95426617  0.76227582  0.51251315  1  0.110981  0.000911  0.116503  0.123572  0.000499  1.001403  0.0
H  H40  1  0.41190238  0.63101659  0.71086598  1  0.172364  -0.00176  0.126993  0.107302  -0.000829  1.02006  -0.001
H  H41  1  0.08808695  0.28913676  0.36898165  1  0.17218  -0.00176  0.127015  0.107381  -0.000829  1.01995  -0.001
H  H42  1  0.58811002  0.36898902  0.28913773  1  0.172455  0.001761  0.126997  0.107276  0.00083  1.019975  0.001
H  H43  1  0.91189727  0.71086600  0.63101196  1  0.172431  0.001761  0.126977  0.107287  0.00083  1.019906  0.001
H  H44  1  0.29408121  0.00772923  0.90801617  1  0.002285  -8e-06  0.085996  0.077895  -8e-06  1.019976  0.0
H  H45  1  0.20592790  0.09198253  0.99226448  1  0.001852  -8e-06  0.086059  0.078005  -8e-06  1.019828  0.0
H  H46  1  0.70592008  0.99226816  0.09198417  1  0.00226  8e-06  0.086003  0.0779  8e-06  1.020005  0.0
H  H47  1  0.79408428  0.90802015  0.00773643  1  0.001894  8e-06  0.08606  0.077976  8e-06  1.020056  0.0
H  H48  1  0.44355182  0.99222341  0.88369270  1  0.046233  -4e-05  0.090669  0.093864  -9e-06  0.975641  0.0
H  H49  1  0.05644471  0.11631068  0.00776396  1  0.045761  -4e-05  0.090639  0.093882  -1e-05  0.975647  0.0
H  H50  1  0.55644808  0.00777754  0.11630360  1  0.046217  4e-05  0.090685  0.093912  9e-06  0.975694  0.0
H  H51  1  0.94354194  0.88369090  0.99222917  1  0.046321  4e-05  0.090699  0.093963  1e-05  0.975622  0.0
H  H52  1  0.32986239  0.93602754  0.01579321  1  0.059594  -0.002127  0.098128  0.083445  -0.001117  0.974934  -0.001
H  H53  1  0.17013278  0.98421400  0.06397317  1  0.059749  -0.002127  0.098176  0.083539  -0.001117  0.974893  -0.001
H  H54  1  0.67013758  0.06396636  0.98419791  1  0.059475  0.002126  0.098111  0.083406  0.001117  0.974756  0.001
H  H55  1  0.82986434  0.01579928  0.93603344  1  0.059705  0.002124  0.098145  0.083486  0.001117  0.974772  0.001
H  H56  1  0.57782234  0.91141299  0.95912194  1  0.05595  -0.000247  0.090489  0.091723  -0.00023  1.016678  0.0
H  H57  1  0.92216768  0.04087894  0.08858106  1  0.055827  -0.000247  0.090481  0.091694  -0.00023  1.016645  0.0
H  H58  1  0.42218216  0.08858264  0.04087454  1  0.05607  0.000247  0.090532  0.091748  0.00023  1.016682  0.0
H  H59  1  0.07781139  0.95911849  0.91141605  1  0.056125  0.000247  0.090517  0.091708  0.000231  1.016699  0.0
H  H60  1  0.52072370  0.87224417  0.03531082  1  0.001272  0.000144  0.084081  0.075632  9.8e-05  0.98545  0.0
H  H61  1  0.97927573  0.96469412  0.12776380  1  0.00121  0.000144  0.084091  0.075624  9.8e-05  0.985293  0.0
H  H62  1  0.47927573  0.12775796  0.96468564  1  0.001182  -0.000144  0.084084  0.075661  -9.8e-05  0.985414  0.0
H  H63  1  0.02072471  0.03530381  0.87224611  1  0.001393  -0.000144  0.084115  0.075678  -9.8e-05  0.985475  0.0
H  H64  1  0.01051367  0.47842452  0.60845467  1  0.020097  3.6e-05  0.089231  0.089411  2.5e-05  0.980137  0.0
H  H65  1  0.48949330  0.39154067  0.52158775  1  0.019783  3.6e-05  0.0892  0.089361  2.5e-05  0.980119  0.0
H  H66  1  0.98948337  0.52158588  0.39154016  1  0.0198  -3.6e-05  0.089191  0.089372  -2.5e-05  0.980068  0.0
H  H67  1  0.51051494  0.60845962  0.47841845  1  0.019938  -3.6e-05  0.089202  0.089373  -2.5e-05  0.980114  0.0
H  H68  1  0.18118142  0.48965988  0.60889759  1  0.021821  0.000139  0.085373  0.078055  0.000104  1.004195  0.0
H  H69  1  0.31881355  0.39109200  0.51034790  1  0.021779  0.000139  0.085392  0.078131  0.000104  1.00408  0.0
H  H70  1  0.81881510  0.51034461  0.39109950  1  0.021651  -0.000139  0.085365  0.078059  -0.000104  1.004178  0.0
H  H71  1  0.68116930  0.60889831  0.48965516  1  0.021896  -0.000139  0.085365  0.078051  -0.000104  1.004229  0.0
H  H72  1  0.16705861  0.58829457  0.52554393  1  0.012113  -6.6e-05  0.098713  0.085463  -0.000112  0.964932  0.0
H  H73  1  0.33294002  0.47445069  0.41171635  1  0.011942  -6.5e-05  0.098699  0.085457  -0.000112  0.964896  0.0
H  H74  1  0.83294186  0.41170759  0.47444703  1  0.01219  6.5e-05  0.098633  0.085384  0.000112  0.965023  0.0
H  H75  1  0.66705762  0.52555200  0.58828619  1  0.012173  6.6e-05  0.09866  0.085409  0.000113  0.965044  0.0
H  H76  1  0.95663802  0.63105322  0.48892005  1  -0.001935  0.000214  0.084659  0.075711  0.000136  0.998216  0.0
H  H77  1  0.54335073  0.51107756  0.36894327  1  -0.002011  0.000215  0.084614  0.075695  0.000136  0.998153  0.0
H  H78  1  0.04335098  0.36894951  0.51107808  1  -0.002229  -0.000215  0.08463  0.075667  -0.000136  0.998214  0.0
H  H79  1  0.45665845  0.48892223  0.63104719  1  -0.002144  -0.000214  0.084619  0.075683  -0.000136  0.998209  0.0
H  H80  1  0.87617097  0.56297552  0.53682496  1  0.042153  4e-06  0.091677  0.088971  -4e-06  1.004596  0.0
H  H81  1  0.62383706  0.46318184  0.43702653  1  0.042083  4e-06  0.091676  0.088968  -4e-06  1.004653  0.0
H  H82  1  0.12383226  0.43703129  0.46317673  1  0.042156  -4e-06  0.091712  0.088985  4e-06  1.004618  0.0
H  H83  1  0.37617168  0.53681964  0.56297826  1  0.042158  -4e-06  0.091714  0.089001  4e-06  1.004719  0.0
C  C84  1  0.23862440  0.35737409  0.14022573  1  0.510041  0.002316  0.058647  0.113693  0.001171  3.901653  0.002
C  C85  1  0.26137286  0.85977372  0.64262055  1  0.509674  0.002314  0.058606  0.113444  0.00117  3.9019  0.002
C  C86  1  0.76136507  0.64262038  0.85977210  1  0.509948  -0.002311  0.05864  0.113559  -0.001167  3.902026  -0.002
C  C87  1  0.73862537  0.14022311  0.35737426  1  0.509898  -0.002314  0.058655  0.113713  -0.001169  3.901724  -0.002
C  C88  1  0.26831311  0.39102794  0.07900256  1  -0.050597  -0.004624  -0.078414  -0.159017  -0.003212  3.939191  -0.004
C  C89  1  0.23169045  0.92100335  0.60896846  1  -0.050394  -0.004624  -0.078319  -0.158806  -0.003212  3.938828  -0.004
C  C90  1  0.73168982  0.60896883  0.92100238  1  -0.05084  0.004626  -0.078302  -0.158853  0.003213  3.938909  0.004
C  C91  1  0.76831356  0.07900054  0.39102887  1  -0.050479  0.004626  -0.078385  -0.158862  0.003213  3.939153  0.004
C  C92  1  0.34068389  0.35605378  0.03052730  1  0.023923  0.003342  0.008836  0.036469  0.002285  4.05035  0.002
C  C93  1  0.15931138  0.96948230  0.64394189  1  0.023046  0.003341  0.008757  0.036089  0.002284  4.050237  0.002
C  C94  1  0.65931264  0.64394414  0.96948439  1  0.023122  -0.00334  0.00873  0.036107  -0.002284  4.050201  -0.002
C  C95  1  0.84069237  0.03052335  0.35605740  1  0.023215  -0.003343  0.008783  0.036099  -0.002286  4.050627  -0.002
C  C96  1  0.38137988  0.28862221  0.04620398  1  -0.033549  -0.005244  -0.069046  -0.13979  -0.003661  3.908676  -0.004
C  C97  1  0.11861730  0.95380171  0.71137728  1  -0.032875  -0.005245  -0.068979  -0.139533  -0.003661  3.908311  -0.004
C  C98  1  0.61861870  0.71138046  0.95380091  1  -0.03321  0.005246  -0.068981  -0.139597  0.003662  3.908326  0.004
C  C99  1  0.88138112  0.04620276  0.28862229  1  -0.033592  0.005245  -0.069063  -0.139645  0.003662  3.908541  0.004
C  C100  1  0.34809411  0.25883660  0.10891697  1  0.462608  0.000722  0.057022  0.097749  -0.000346  3.907439  0.0
C  C101  1  0.15189796  0.89108210  0.74115972  1  0.462672  0.000722  0.056962  0.097588  -0.000346  3.907613  0.0
C  C102  1  0.65190524  0.74116078  0.89108427  1  0.462894  -0.000722  0.056946  0.097629  0.000346  3.907746  0.0
C  C103  1  0.84808912  0.10891357  0.25883580  1  0.462681  -0.000724  0.057037  0.097677  0.000344  3.907451  0.0
C  C104  1  0.37612220  0.39026224  0.96691747  1  1.037526  0.000216  0.222018  0.298124  0.000151  3.98289  0.0
C  C105  1  0.12387984  0.03309218  0.60973509  1  1.038933  0.000217  0.22209  0.298457  0.000152  3.982717  0.0
C  C106  1  0.62387920  0.60973568  0.03309256  1  1.038601  -0.000216  0.222074  0.298429  -0.000151  3.982772  0.0
C  C107  1  0.87612153  0.96691231  0.39026146  1  1.038275  -0.000216  0.222085  0.298484  -0.000151  3.982968  0.0
C  C108  1  0.38283436  0.47079535  0.88992760  1  1.034608  6.2e-05  0.220415  0.295285  3.3e-05  3.987672  0.0
C  C109  1  0.11718027  0.11008544  0.52920359  1  1.034294  6.2e-05  0.220404  0.295199  3.3e-05  3.98761  0.0
C  C110  1  0.61717722  0.52920374  0.11008105  1  1.034136  -6.2e-05  0.220424  0.29533  -3.3e-05  3.987698  0.0
C  C111  1  0.88282644  0.88992259  0.47079142  1  1.034515  -6.2e-05  0.220365  0.295386  -3.3e-05  3.987636  0.0
C  C112  1  0.27427115  0.65439913  0.86161144  1  0.475459  0.001749  0.058577  0.109331  0.000419  3.908247  0.001
C  C113  1  0.22571752  0.13839511  0.34559744  1  0.475985  0.001751  0.058743  0.109673  0.000421  3.907871  0.001
C  C114  1  0.72571270  0.34559591  0.13838977  1  0.474691  -0.00175  0.058676  0.109475  -0.000421  3.907952  -0.001
C  C115  1  0.77427704  0.86160938  0.65440054  1  0.475303  -0.001748  0.058676  0.109459  -0.000419  3.90813  -0.001
C  C116  1  0.29138774  0.58975564  0.89312443  1  0.039434  -0.005049  -0.075992  -0.152538  -0.003542  3.924564  -0.004
C  C117  1  0.20861136  0.10688613  0.41024143  1  0.038995  -0.005048  -0.07597  -0.152672  -0.003541  3.92492  -0.004
C  C118  1  0.70860525  0.41023820  0.10688048  1  0.039753  0.005045  -0.075951  -0.152476  0.00354  3.924585  0.004
C  C119  1  0.79138563  0.89311953  0.58975648  1  0.039837  0.005047  -0.075963  -0.152529  0.003541  3.924266  0.004
C  C120  1  0.35706669  0.53730177  0.85754056  1  -0.032475  0.003925  0.010164  0.039657  0.00269  4.04677  0.003
C  C121  1  0.14294488  0.14247159  0.46269592  1  -0.032583  0.003925  0.010014  0.039623  0.002691  4.047164  0.003
C  C122  1  0.64293770  0.46269619  0.14246308  1  -0.032366  -0.003925  0.010109  0.03962  -0.00269  4.046999  -0.003
C  C123  1  0.85705753  0.85753528  0.53729555  1  -0.033048  -0.003923  0.010043  0.039585  -0.002689  4.046692  -0.003
C  C124  1  0.40200824  0.55171075  0.79093971  1  -0.014191  -0.005215  -0.0707  -0.145017  -0.003625  3.916565  -0.004
C  C125  1  0.09799491  0.20906704  0.44828989  1  -0.014631  -0.005214  -0.070692  -0.144886  -0.003625  3.916743  -0.004
C  C126  1  0.59799183  0.44828840  0.20906193  1  -0.01462  0.005216  -0.070791  -0.145171  0.003626  3.916949  0.004
C  C127  1  0.90200740  0.79093508  0.55170804  1  -0.014414  0.005216  -0.07068  -0.145029  0.003626  3.916484  0.004
C  C128  1  0.37969015  0.61719714  0.76264403  1  0.484826  0.002332  0.056865  0.101691  0.001036  3.896337  0.002
C  C129  1  0.12029783  0.23735787  0.38280234  1  0.484569  0.002332  0.056853  0.101562  0.001036  3.896234  0.002
C  C130  1  0.62030224  0.38280205  0.23735275  1  0.484649  -0.002329  0.057005  0.101908  -0.001034  3.896253  -0.002
C  C131  1  0.87969284  0.76264661  0.61719686  1  0.484922  -0.002328  0.05697  0.101837  -0.001034  3.896344  -0.002
C  C132  1  0.30735348  0.85666057  0.90673040  1  1.549346  -0.000847  0.203941  0.576887  -0.001854  4.175663  0.001
C  C133  1  0.19266273  0.09327738  0.14334308  1  1.549247  -0.00085  0.203906  0.576829  -0.001856  4.175787  0.001
C  C134  1  0.69265989  0.14334504  0.09327286  1  1.549527  0.000846  0.203758  0.576502  0.001853  4.175885  -0.001
C  C135  1  0.80737379  0.90672818  0.85666522  1  1.549281  0.000842  0.203956  0.576985  0.001848  4.175228  -0.001
C  C136  1  0.39490572  0.00196731  0.93287459  1  -0.01905  -5.3e-05  -0.162131  -0.158285  -5.3e-05  3.906376  0.0
C  C137  1  0.10509356  0.06712566  0.99803019  1  -0.017919  -5.4e-05  -0.162159  -0.158473  -5.4e-05  3.906583  0.0
C  C138  1  0.60509710  0.99803364  0.06712151  1  -0.018914  5.4e-05  -0.162126  -0.158434  5.3e-05  3.906609  0.0
C  C139  1  0.89490171  0.93287586  0.00196960  1  -0.018582  5.4e-05  -0.162274  -0.158653  5.4e-05  3.906624  0.0
C  C140  1  0.38619318  0.92936807  0.96999335  1  -0.010833  -0.010901  -0.090476  -0.103368  -0.007961  3.857731  -0.008
C  C141  1  0.11379791  0.03001233  0.07063016  1  -0.011227  -0.0109  -0.090446  -0.103426  -0.007961  3.857954  -0.008
C  C142  1  0.61381395  0.07063403  0.03000572  1  -0.01074  0.010897  -0.090344  -0.102994  0.007958  3.857493  0.008
C  C143  1  0.88618191  0.96999159  0.92936707  1  -0.010909  0.010896  -0.090395  -0.103248  0.007958  3.857658  0.008
C  C144  1  0.52667610  0.92281545  0.00681621  1  -0.03774  0.000255  -0.165754  -0.156259  0.000117  3.925337  0.0
C  C145  1  0.97331905  0.99318627  0.07718659  1  -0.037475  0.000255  -0.165709  -0.156075  0.000118  3.925105  0.0
C  C146  1  0.47332960  0.07718549  0.99318079  1  -0.037687  -0.000254  -0.165822  -0.156431  -0.000117  3.925419  0.0
C  C147  1  0.02667156  0.00681348  0.92281683  1  -0.038142  -0.000254  -0.16584  -0.156313  -0.000116  3.925302  0.0
C  C148  1  0.11746419  0.63377553  0.63288267  1  1.548962  0.000566  0.20187  0.576976  -0.00068  4.177694  0.003
C  C149  1  0.38254406  0.36709931  0.36623151  1  1.549304  0.000565  0.201873  0.577079  -0.00068  4.176784  0.003
C  C150  1  0.88254309  0.36622428  0.36710531  1  1.548849  -0.000567  0.201855  0.576898  0.000678  4.177286  -0.003
C  C151  1  0.61747235  0.63287855  0.63377620  1  1.548724  -0.00057  0.201823  0.576826  0.000678  4.177423  -0.003
C  C152  1  0.08384619  0.49045301  0.57299169  1  -0.001043  -0.0009  -0.160233  -0.152836  -0.000625  3.920505  -0.001
C  C153  1  0.41615700  0.42700116  0.50955167  1  -0.000231  -0.0009  -0.160373  -0.153096  -0.000625  3.920661  -0.001
C  C154  1  0.91615253  0.50955208  0.42700352  1  -2.2e-05  0.000899  -0.16027  -0.152919  0.000624  3.920517  0.001
C  C155  1  0.58383776  0.57299447  0.49044814  1  -0.000713  0.000901  -0.160252  -0.152863  0.000626  3.920563  0.001
C  C156  1  0.08709672  0.57260881  0.55575214  1  0.029961  -0.013243  -0.093811  -0.110947  -0.00976  3.869368  -0.011
C  C157  1  0.41291032  0.44424329  0.42740040  1  0.030108  -0.013245  -0.093656  -0.110576  -0.009762  3.868967  -0.011
C  C158  1  0.91290472  0.42739571  0.44423880  1  0.029786  0.013241  -0.093616  -0.110585  0.009759  3.869261  0.011
C  C159  1  0.58710201  0.55576229  0.57260780  1  0.029505  0.013242  -0.093723  -0.110718  0.00976  3.869509  0.011
C  C160  1  0.95285306  0.57280654  0.50310224  1  -0.031135  0.000271  -0.162585  -0.155036  0.000221  3.924533  0.0
C  C161  1  0.54714311  0.49689664  0.42719420  1  -0.030657  0.000273  -0.162604  -0.15519  0.000222  3.924759  0.0
C  C162  1  0.04714394  0.42719677  0.49689413  1  -0.030437  -0.000272  -0.162694  -0.155163  -0.000222  3.924661  0.0
C  C163  1  0.45285993  0.50310253  0.57280274  1  -0.030679  -0.000272  -0.162568  -0.155025  -0.000222  3.924682  0.0
N  N164  1  0.31742975  0.66762556  0.79759890  1  -1.198386  -0.07829  -0.339398  -0.217577  -0.055027  3.614658  -0.069
N  N165  1  0.18255614  0.20240614  0.33236777  1  -1.198089  -0.078295  -0.339556  -0.217754  -0.055033  3.61449  -0.069
N  N166  1  0.68255484  0.33236654  0.20240131  1  -1.19807  0.078288  -0.339549  -0.217657  0.05503  3.614398  0.069
N  N167  1  0.81743776  0.79759896  0.66762630  1  -1.198689  0.078272  -0.339497  -0.21766  0.055018  3.614755  0.069
N  N168  1  0.45749772  0.42286453  0.87101113  1  -0.657381  0.001361  -0.219754  -0.236131  0.000891  3.139209  0.001
N  N169  1  0.04251233  0.12899925  0.57712894  1  -0.657269  0.001362  -0.219701  -0.235949  0.000891  3.139453  0.001
N  N170  1  0.54250395  0.57712691  0.12899609  1  -0.657079  -0.001361  -0.219629  -0.235864  -0.000891  3.139319  -0.001
N  N171  1  0.95749831  0.87100879  0.42286260  1  -0.657083  -0.001361  -0.219667  -0.236011  -0.000891  3.139248  -0.001
N  N172  1  0.45320632  0.37088914  0.92076903  1  -0.670921  0.00107  -0.222113  -0.237854  0.000689  3.140914  0.001
N  N173  1  0.04678960  0.07924115  0.62910485  1  -0.671515  0.001069  -0.222223  -0.238079  0.000689  3.140877  0.001
N  N174  1  0.54678177  0.62910231  0.07924049  1  -0.671205  -0.001069  -0.222204  -0.238014  -0.000689  3.14093  -0.001
N  N175  1  0.95321469  0.92076806  0.37089064  1  -0.67084  -0.00107  -0.222087  -0.237828  -0.00069  3.140937  -0.001
N  N176  1  0.27728953  0.29234599  0.15465625  1  -1.196444  -0.076079  -0.33576  -0.209113  -0.053424  3.574225  -0.067
N  N177  1  0.22270272  0.84534867  0.70764873  1  -1.196218  -0.076069  -0.335667  -0.208966  -0.053418  3.574513  -0.067
N  N178  1  0.72269986  0.70764844  0.84534720  1  -1.196569  0.076061  -0.335675  -0.209047  0.053415  3.574637  0.067
N  N179  1  0.77728829  0.15465172  0.29234415  1  -1.196355  0.076078  -0.335655  -0.208951  0.053427  3.574181  0.067
O  O180  1  0.32796871  0.45362404  0.95068485  1  -1.040522  0.000304  -0.101073  -0.176425  0.000199  2.49828  0.0
O  O181  1  0.17203756  0.04932350  0.54637612  1  -1.040656  0.000304  -0.101025  -0.17661  0.000199  2.498266  0.0
O  O182  1  0.67203734  0.54637802  0.04932253  1  -1.040947  -0.000304  -0.101048  -0.176764  -0.000199  2.498512  0.0
O  O183  1  0.82796500  0.95067921  0.45362138  1  -1.04074  -0.000304  -0.101094  -0.176883  -0.000199  2.498588  0.0
O  O184  1  0.37170336  0.83273096  0.85620961  1  -1.124727  -0.105701  -0.332241  -0.54496  -0.070741  2.363961  -0.095
O  O185  1  0.12831140  0.14379534  0.16728049  1  -1.124431  -0.105688  -0.332339  -0.545003  -0.070732  2.36418  -0.095
O  O186  1  0.62830191  0.16727589  0.14378501  1  -1.124635  0.1057  -0.332179  -0.544782  0.070745  2.364105  0.095
O  O187  1  0.87173739  0.85622136  0.83273465  1  -1.124976  0.105729  -0.332217  -0.544868  0.070767  2.363672  0.095
O  O188  1  0.18781261  0.82713625  0.90529462  1  -1.200978  -0.002086  -0.328403  -0.570743  -0.001018  2.177772  -0.002
O  O189  1  0.31219796  0.09472368  0.17286373  1  -1.20127  -0.002083  -0.328391  -0.570754  -0.001017  2.178057  -0.002
O  O190  1  0.81220568  0.17287695  0.09472072  1  -1.201468  0.002088  -0.328401  -0.570768  0.00102  2.177749  0.002
O  O191  1  0.68779965  0.90527899  0.82714106  1  -1.200837  0.002095  -0.328465  -0.571016  0.001024  2.176993  0.002
O  O192  1  0.03914752  0.62685165  0.67753932  1  -1.195341  -0.001375  -0.321062  -0.557586  -0.000571  2.208493  -0.002
O  O193  1  0.46084407  0.32243810  0.37315312  1  -1.195586  -0.001371  -0.321044  -0.557597  -0.000569  2.208171  -0.002
O  O194  1  0.96086435  0.37313813  0.32244800  1  -1.195421  0.001374  -0.32114  -0.557743  0.000571  2.208114  0.002
O  O195  1  0.53913211  0.67754096  0.62685896  1  -1.195142  0.001384  -0.321116  -0.557786  0.000577  2.207465  0.002
O  O196  1  0.22468950  0.68874840  0.64624466  1  -1.107861  -0.128192  -0.325924  -0.541583  -0.085752  2.333392  -0.116
O  O197  1  0.27533310  0.35374479  0.31124897  1  -1.108172  -0.12818  -0.325991  -0.541831  -0.085742  2.333361  -0.116
O  O198  1  0.77532429  0.31125080  0.35374569  1  -1.107951  0.128195  -0.325876  -0.541493  0.08576  2.333432  0.116
O  O199  1  0.72468813  0.64623020  0.68874249  1  -1.107763  0.128225  -0.325841  -0.541437  0.08578  2.333373  0.116
O  O200  1  0.48586213  0.79775578  0.71866721  1  -1.273146  0.000967  -0.610619  -0.810815  0.000407  2.112698  0.0
O  O201  1  0.01414193  0.28132219  0.20225728  1  -1.273249  0.000968  -0.61055  -0.810793  0.000407  2.11279  0.0
O  O202  1  0.51414277  0.20224100  0.28133515  1  -1.272999  -0.000972  -0.610432  -0.810706  -0.00041  2.112288  0.0
O  O203  1  0.98586737  0.71864847  0.79777250  1  -1.273093  -0.000972  -0.610394  -0.810669  -0.000411  2.112202  0.0
