# generated using pymatgen
data_CdH8(C6N5)2
_symmetry_space_group_name_H-M   'P 1'
_cell_length_a   6.92078262
_cell_length_b   10.12642021
_cell_length_c   10.12642547
_cell_angle_alpha   70.09831841
_cell_angle_beta   81.64031954
_cell_angle_gamma   81.64032011
_symmetry_Int_Tables_number   1
_chemical_formula_structural   CdH8(C6N5)2
_chemical_formula_sum   'Cd2 H16 C24 N20'
_cell_volume   656.69665492
_cell_formula_units_Z   2
loop_
 _symmetry_equiv_pos_site_id
 _symmetry_equiv_pos_as_xyz
  1  'x, y, z'
loop_
 _atom_site_type_symbol
 _atom_site_label
 _atom_site_symmetry_multiplicity
 _atom_site_fract_x
 _atom_site_fract_y
 _atom_site_fract_z
 _atom_site_occupancy
 _atom_site_hle17_bader_spin_density
 _atom_site_hle17_ddec_charge
 _atom_site_hle17_ddec_spin_density
 _atom_site_hle17_ddec_sum_bond_order
 _atom_site_hle17_magmom
 _atom_site_hse06_10hf_bader_spin_density
 _atom_site_hse06_10hf_ddec_charge
 _atom_site_hse06_10hf_ddec_spin_density
 _atom_site_hse06_10hf_ddec_sum_bond_order
 _atom_site_hse06_10hf_magmom
 _atom_site_hse06_bader_spin_density
 _atom_site_hse06_ddec_charge
 _atom_site_hse06_ddec_spin_density
 _atom_site_hse06_ddec_sum_bond_order
 _atom_site_hse06_magmom
 _atom_site_pbe_bader_spin_density
 _atom_site_pbe_cm5_charge
 _atom_site_pbe_ddec_charge
 _atom_site_pbe_ddec_spin_density
 _atom_site_pbe_ddec_sum_bond_order
 _atom_site_pbe_magmom
Cd  Cd0  1  0.25000012  0.38123939  0.61876322  1  0  0.913641  0  1.862501  0  0  0.676339  0  2.329927  0  0  0.727934  0  2.291843  0  0  0.808594  0.640785  0  2.357307  0
Cd  Cd1  1  0.74999860  0.61876078  0.38123854  1  0  0.913656  0  1.862497  0  0  0.676338  0  2.329967  0  0  0.727935  0  2.291879  0  0  0.808597  0.64079  0  2.357356  0
H  H2  1  0.82348554  0.95724087  0.92181596  1  0  0.092396  0  0.975751  0  0  0.103769  0  1.035008  0  0  0.105946  0  1.036143  0  0  0.101655  0.102127  0  1.034714  0
H  H3  1  0.67650880  0.07818187  0.04276157  1  0  0.09241  0  0.975704  0  0  0.103761  0  1.034998  0  0  0.105938  0  1.036133  0  0  0.101635  0.102119  0  1.034703  0
H  H4  1  0.17651008  0.04276036  0.07818181  1  0  0.092373  0  0.975749  0  0  0.103747  0  1.035011  0  0  0.105923  0  1.036148  0  0  0.101628  0.102105  0  1.034716  0
H  H5  1  0.32349235  0.92182149  0.95723393  1  0  0.092436  0  0.975664  0  0  0.103749  0  1.035002  0  0  0.105925  0  1.036138  0  0  0.101606  0.102107  0  1.034707  0
H  H6  1  0.96148583  0.78337045  0.79809733  1  0  0.104329  0  0.964498  0  0  0.111522  0  1.029989  0  0  0.114259  0  1.028459  0  0  0.11023  0.109629  0  1.030804  0
H  H7  1  0.53851269  0.20190172  0.21663227  1  0  0.104308  0  0.96448  0  0  0.111516  0  1.029962  0  0  0.114255  0  1.028431  0  0  0.11021  0.109622  0  1.030778  0
H  H8  1  0.03851173  0.21662761  0.20190328  1  0  0.104274  0  0.964479  0  0  0.111496  0  1.029952  0  0  0.114234  0  1.028421  0  0  0.110229  0.109602  0  1.030766  0
H  H9  1  0.46148910  0.79809740  0.78336855  1  0  0.104318  0  0.964518  0  0  0.111524  0  1.029991  0  0  0.114261  0  1.028461  0  0  0.110216  0.109627  0  1.030806  0
H  H10  1  0.31682679  0.09960066  0.51216667  1  0  0.09213  0  0.965444  0  0  0.091709  0  1.045178  0  0  0.09559  0  1.040577  0  0  0.116515  0.089075  0  1.047985  0
H  H11  1  0.18318100  0.48783954  0.90040036  1  0  0.092103  0  0.965425  0  0  0.091729  0  1.045135  0  0  0.095611  0  1.040532  0  0  0.116511  0.089093  0  1.047948  0
H  H12  1  0.68317953  0.90039740  0.48783403  1  0  0.092132  0  0.965433  0  0  0.091741  0  1.045148  0  0  0.095622  0  1.040546  0  0  0.116536  0.089107  0  1.04796  0
H  H13  1  0.81682134  0.51216591  0.09960023  1  0  0.092126  0  0.96546  0  0  0.091739  0  1.045163  0  0  0.09562  0  1.04056  0  0  0.116535  0.089107  0  1.047979  0
H  H14  1  0.95069739  0.19699142  0.83536318  1  0  0.077246  0  0.965184  0  0  0.080089  0  1.041116  0  0  0.083017  0  1.038309  0  0  0.111279  0.078035  0  1.042751  0
H  H15  1  0.54929715  0.16463770  0.80301163  1  0  0.077198  0  0.96511  0  0  0.080018  0  1.041096  0  0  0.082944  0  1.038288  0  0  0.111262  0.077966  0  1.042731  0
H  H16  1  0.04929825  0.80300981  0.16463656  1  0  0.07725  0  0.965176  0  0  0.080079  0  1.041122  0  0  0.083006  0  1.038318  0  0  0.111288  0.078029  0  1.042757  0
H  H17  1  0.45070109  0.83536565  0.19698614  1  0  0.077207  0  0.965118  0  0  0.080028  0  1.041109  0  0  0.082952  0  1.038305  0  0  0.111262  0.077978  0  1.042739  0
C  C18  1  0.93346711  0.98550535  0.83130477  1  0  -0.122476  0  3.76746  0  0  -0.130972  0  4.017225  0  0  -0.13845  0  4.039204  0  0  -0.088479  -0.126964  0  4.003068  0
C  C19  1  0.56652455  0.16869227  0.01449829  1  0  -0.12251  0  3.767503  0  0  -0.130994  0  4.017287  0  0  -0.138471  0  4.039264  0  0  -0.088453  -0.126988  0  4.00313  0
C  C20  1  0.06652835  0.01449694  0.16869167  1  0  -0.122524  0  3.767464  0  0  -0.131019  0  4.017236  0  0  -0.138496  0  4.039211  0  0  -0.088461  -0.127008  0  4.003074  0
C  C21  1  0.43347238  0.83131002  0.98549898  1  0  -0.122483  0  3.767377  0  0  -0.130935  0  4.017129  0  0  -0.138411  0  4.039102  0  0  -0.088399  -0.126924  0  4.002963  0
C  C22  1  0.00792928  0.88903019  0.76219661  1  0  -0.023115  0  3.667389  0  0  -0.049902  0  3.909307  0  0  -0.046021  0  3.926178  0  0  -0.060507  -0.051943  0  3.897623  0
C  C23  1  0.49207155  0.23780413  0.11096960  1  0  -0.023115  0  3.667392  0  0  -0.049936  0  3.909308  0  0  -0.046043  0  3.926177  0  0  -0.060484  -0.051973  0  3.897622  0
C  C24  1  0.99207280  0.11096682  0.23780390  1  0  -0.022971  0  3.667247  0  0  -0.049783  0  3.909167  0  0  -0.045895  0  3.926039  0  0  -0.060505  -0.051823  0  3.897479  0
C  C25  1  0.50792861  0.76219606  0.88902806  1  0  -0.023127  0  3.667422  0  0  -0.049903  0  3.909318  0  0  -0.046014  0  3.926188  0  0  -0.060506  -0.051937  0  3.897622  0
C  C26  1  0.14886010  0.92726678  0.64516309  1  0  -0.031924  0  3.769701  0  0  -0.008388  0  3.998842  0  0  -0.013989  0  4.021617  0  0  0.004781  -0.00558  0  3.984228  0
C  C27  1  0.35114319  0.35484114  0.07273452  1  0  -0.031874  0  3.769435  0  0  -0.008279  0  3.99855  0  0  -0.013909  0  4.021367  0  0  0.004807  -0.005471  0  3.98394  0
C  C28  1  0.85114345  0.07273023  0.35483826  1  0  -0.031955  0  3.76961  0  0  -0.008432  0  3.998788  0  0  -0.014056  0  4.021593  0  0  0.004788  -0.005617  0  3.984172  0
C  C29  1  0.64885523  0.64516113  0.92726755  1  0  -0.031899  0  3.769591  0  0  -0.008393  0  3.998781  0  0  -0.014018  0  4.021585  0  0  0.0048  -0.005579  0  3.984163  0
C  C30  1  0.20791381  0.06364187  0.60213248  1  0  0.114462  0  3.629999  0  0  0.072321  0  3.882369  0  0  0.079929  0  3.898263  0  0  0.054989  0.067865  0  3.871392  0
C  C31  1  0.29208612  0.39786786  0.93636077  1  0  0.114437  0  3.629904  0  0  0.072218  0  3.882274  0  0  0.079832  0  3.898181  0  0  0.055002  0.067768  0  3.871299  0
C  C32  1  0.79209120  0.93635514  0.39786773  1  0  0.114445  0  3.629887  0  0  0.072271  0  3.882259  0  0  0.079882  0  3.898167  0  0  0.054967  0.067819  0  3.87129  0
C  C33  1  0.70791246  0.60213336  0.06364163  1  0  0.114435  0  3.63001  0  0  0.072264  0  3.882385  0  0  0.079878  0  3.898289  0  0  0.054977  0.067808  0  3.871421  0
C  C34  1  0.00308314  0.11773745  0.78400620  1  0  0.107462  0  3.719088  0  0  0.072517  0  3.975482  0  0  0.080035  0  3.993477  0  0  0.03659  0.068761  0  3.9628  0
C  C35  1  0.49692085  0.21599707  0.88226279  1  0  0.107525  0  3.719094  0  0  0.07258  0  3.975479  0  0  0.080101  0  3.993468  0  0  0.036617  0.068833  0  3.962779  0
C  C36  1  0.99692011  0.88226167  0.21599546  1  0  0.107516  0  3.719154  0  0  0.072577  0  3.975538  0  0  0.080097  0  3.993532  0  0  0.036616  0.068823  0  3.962852  0
C  C37  1  0.50307885  0.78400628  0.11773385  1  0  0.107473  0  3.719084  0  0  0.072525  0  3.975459  0  0  0.080049  0  3.99345  0  0  0.036584  0.068771  0  3.962776  0
C  C38  1  0.23733864  0.82076013  0.58078949  1  0  0.240647  0  3.819322  0  0  0.222358  0  4.096921  0  0  0.229643  0  4.114604  0  0  0.204406  0.217531  0  4.085239  0
C  C39  1  0.26266262  0.41921010  0.17924282  1  0  0.240762  0  3.819191  0  0  0.222423  0  4.096834  0  0  0.229716  0  4.114524  0  0  0.204387  0.21758  0  4.085168  0
C  C40  1  0.76267092  0.17923582  0.41921259  1  0  0.240611  0  3.819356  0  0  0.222345  0  4.096936  0  0  0.229636  0  4.114624  0  0  0.204367  0.217503  0  4.085264  0
C  C41  1  0.73732912  0.58078794  0.82076234  1  0  0.2407  0  3.819192  0  0  0.222415  0  4.0968  0  0  0.229707  0  4.114487  0  0  0.204359  0.21758  0  4.085126  0
N  N42  1  0.13809096  0.15542806  0.67162347  1  0  -0.309511  0  3.241446  0  0  -0.228542  0  3.507651  0  0  -0.247929  0  3.526641  0  0  -0.326643  -0.216009  0  3.494734  0
N  N43  1  0.36191332  0.32837823  0.84457310  1  0  -0.309512  0  3.241534  0  0  -0.228503  0  3.507711  0  0  -0.247899  0  3.526722  0  0  -0.326672  -0.215968  0  3.49479  0
N  N44  1  0.86191081  0.84457107  0.32837438  1  0  -0.309559  0  3.24151  0  0  -0.228575  0  3.507708  0  0  -0.247962  0  3.526696  0  0  -0.326669  -0.21604  0  3.494785  0
N  N45  1  0.63808947  0.67162406  0.15542654  1  0  -0.309495  0  3.241531  0  0  -0.228505  0  3.507724  0  0  -0.247892  0  3.526712  0  0  -0.326637  -0.215975  0  3.494812  0
N  N46  1  0.37046339  0.83767069  0.46627450  1  0  -0.289307  0  2.932632  0  0  -0.272285  0  3.213198  0  0  -0.280153  0  3.226957  0  0  -0.216966  -0.266446  0  3.203452  0
N  N47  1  0.12953370  0.53372293  0.16233410  1  0  -0.289356  0  2.932531  0  0  -0.272324  0  3.213124  0  0  -0.280192  0  3.226882  0  0  -0.21698  -0.266478  0  3.203379  0
N  N48  1  0.62953971  0.16232948  0.53372582  1  0  -0.289309  0  2.93268  0  0  -0.272301  0  3.213253  0  0  -0.280168  0  3.227012  0  0  -0.216971  -0.266456  0  3.203501  0
N  N49  1  0.87046226  0.46627618  0.83766830  1  0  -0.289455  0  2.932583  0  0  -0.272445  0  3.213181  0  0  -0.280312  0  3.226939  0  0  -0.217029  -0.266603  0  3.203433  0
N  N50  1  0.41665214  0.70807076  0.45692829  1  0  -0.124019  0  3.12705  0  0  -0.080739  0  3.424667  0  0  -0.087864  0  3.440711  0  0  -0.116995  -0.075428  0  3.413453  0
N  N51  1  0.08334586  0.54306945  0.29193311  1  0  -0.124068  0  3.127024  0  0  -0.080799  0  3.424657  0  0  -0.087925  0  3.440703  0  0  -0.117025  -0.075494  0  3.413443  0
N  N52  1  0.58334965  0.29192836  0.54307253  1  0  -0.12401  0  3.127035  0  0  -0.080731  0  3.424642  0  0  -0.087858  0  3.44069  0  0  -0.116967  -0.075419  0  3.413417  0
N  N53  1  0.91664909  0.45692649  0.70807046  1  0  -0.123929  0  3.12691  0  0  -0.080648  0  3.424534  0  0  -0.087774  0  3.440579  0  0  -0.116963  -0.075334  0  3.41331  0
N  N54  1  0.31389649  0.61727066  0.56190513  1  0  -0.112242  0  3.203959  0  0  -0.062525  0  3.503203  0  0  -0.070863  0  3.520905  0  0  -0.120322  -0.057117  0  3.49201  0
N  N55  1  0.18610047  0.43809234  0.38273271  1  0  -0.112141  0  3.203934  0  0  -0.062414  0  3.503154  0  0  -0.070754  0  3.520859  0  0  -0.120269  -0.056999  0  3.491943  0
N  N56  1  0.68610237  0.38272847  0.43809400  1  0  -0.112224  0  3.20401  0  0  -0.0625  0  3.503246  0  0  -0.070837  0  3.520948  0  0  -0.120324  -0.057087  0  3.492046  0
N  N57  1  0.81389709  0.56190571  0.61726988  1  0  -0.1122  0  3.20386  0  0  -0.062487  0  3.50311  0  0  -0.070823  0  3.52081  0  0  -0.120289  -0.057076  0  3.491911  0
N  N58  1  0.20085952  0.68444531  0.64104462  1  0  -0.272916  0  2.964105  0  0  -0.259106  0  3.246529  0  0  -0.26712  0  3.263122  0  0  -0.214848  -0.253951  0  3.235467  0
N  N59  1  0.29913786  0.35895288  0.31555734  1  0  -0.272974  0  2.96406  0  0  -0.259149  0  3.246482  0  0  -0.267163  0  3.263071  0  0  -0.214837  -0.253988  0  3.235416  0
N  N60  1  0.79914242  0.31555275  0.35895654  1  0  -0.272893  0  2.964247  0  0  -0.259094  0  3.246675  0  0  -0.267105  0  3.263265  0  0  -0.214822  -0.253932  0  3.235607  0
N  N61  1  0.70085708  0.64104306  0.68444525  1  0  -0.272917  0  2.964083  0  0  -0.259099  0  3.246506  0  0  -0.267112  0  3.263095  0  0  -0.214805  -0.25394  0  3.235443  0
