# generated using pymatgen
data_Al2H13C22NO14
_symmetry_space_group_name_H-M   'P 1'
_cell_length_a   6.63281216
_cell_length_b   11.17579964
_cell_length_c   11.05961374
_cell_angle_alpha   80.67345086
_cell_angle_beta   73.25932998
_cell_angle_gamma   72.69993760
_symmetry_Int_Tables_number   1
_chemical_formula_structural   Al2H13C22NO14
_chemical_formula_sum   'Al2 H13 C22 N1 O14'
_cell_volume   746.93253147
_cell_formula_units_Z   1
loop_
 _symmetry_equiv_pos_site_id
 _symmetry_equiv_pos_as_xyz
  1  'x, y, z'
loop_
 _atom_site_type_symbol
 _atom_site_label
 _atom_site_symmetry_multiplicity
 _atom_site_fract_x
 _atom_site_fract_y
 _atom_site_fract_z
 _atom_site_occupancy
 _atom_site_pbe_bader_charge
 _atom_site_pbe_bader_spin_density
 _atom_site_pbe_cm5_charge
 _atom_site_pbe_ddec_charge
 _atom_site_pbe_ddec_spin_density
 _atom_site_pbe_ddec_sum_bond_order
 _atom_site_pbe_magmom
Al  Al0  1  0.48388269  0.49849253  0.50631441  1  2.502166  0  0.395829  1.632047  0  2.594542  0
Al  Al1  1  0.98624314  0.50063513  0.49777199  1  2.499666  0  0.393142  1.626512  0  2.595368  0
H  H2  1  0.27505547  0.34694198  0.56691695  1  0.608201  0  0.3533  0.428397  0  0.858323  0
H  H3  1  0.77021818  0.55986250  0.34682850  1  0.609141  0  0.347052  0.418378  0  0.876232  0
H  H4  1  0.09098107  0.57543265  0.10365766  1  0.076353  0  0.099696  0.10859  0  1.025294  0
H  H5  1  0.75634392  0.45816177  0.13190189  1  0.088163  0  0.107659  0.117817  0  1.003571  0
H  H6  1  0.22676888  0.57721737  0.86729363  1  0.101175  0  0.107477  0.107691  0  1.013023  0
H  H7  1  0.23400425  0.24200676  0.31806602  1  0.084717  0  0.111906  0.123622  0  1.020831  0
H  H8  1  0.49347156  0.77582777  0.37093295  1  0.152274  0  0.113279  0.118909  0  1.048984  0
H  H9  1  0.73448678  0.87529551  0.59463969  1  0.086183  0  0.117324  0.124453  0  0.973346  0
H  H10  1  0.61833580  0.10965615  0.58982096  1  0.101138  0  0.114287  0.116362  0  0.981218  0
H  H11  1  0.00052247  0.46321340  0.79330103  1  0.497363  0  0.309635  0.320191  0  0.973379  0
H  H12  1  0.04295749  0.43147609  0.94546129  1  0.455782  0  0.306391  0.299394  0  0.961717  0
H  H13  1  0.45117824  0.17817081  0.06470740  1  0.616106  0  0.3447  0.379839  0  0.856295  0
H  H14  1  0.85874634  0.76153620  0.34440442  1  0.627469  0  0.320057  0.359777  0  0.939878  0
C  C15  1  0.85192025  0.27147432  0.49018350  1  1.579724  0  0.272365  0.652901  0  4.07708  0
C  C16  1  0.62958187  0.50836681  0.72870198  1  1.524818  0  0.265219  0.656194  0  4.084895  0
C  C17  1  0.12615259  0.72741053  0.50281235  1  1.534663  0  0.274243  0.64452  0  4.081985  0
C  C18  1  0.34446029  0.50715198  0.27087363  1  1.50842  0  0.270636  0.653904  0  4.064697  0
C  C19  1  0.56493259  0.51508286  0.86654948  1  -0.030748  0  -0.028425  -0.174621  0  3.937865  0
C  C20  1  0.41867445  0.51314110  0.13041448  1  -0.060274  0  -0.015277  -0.019842  0  4.014703  0
C  C21  1  0.72155215  0.48444371  0.93988984  1  0.50617  0  0.122318  0.321968  0  4.05471  0
C  C22  1  0.26442918  0.54682039  0.05742355  1  -0.039769  0  -0.107346  -0.148001  0  4.026477  0
C  C23  1  0.64091234  0.48509924  0.07298780  1  0.068137  0  -0.089325  -0.199053  0  3.901002  0
C  C24  1  0.34035452  0.54829675  0.92720471  1  0.007677  0  -0.085029  -0.074899  0  4.029841  0
C  C25  1  0.92946049  0.13264661  0.48028805  1  0.032431  0  0.002561  -0.064259  0  3.904302  0
C  C26  1  0.14715385  0.07212859  0.41406491  1  -0.036564  0  0.01135  0.077857  0  3.925341  0
C  C27  1  0.78467803  0.06170347  0.54230183  1  -0.019137  0  -0.069925  -0.073095  0  3.971085  0
C  C28  1  0.29043356  0.13998663  0.33075415  1  3.4e-05  0  -0.079781  -0.145886  0  3.926194  0
C  C29  1  0.49657073  0.07920652  0.26379158  1  0.005897  0  -0.008448  -0.067183  0  4.010437  0
C  C30  1  0.06484000  0.86763580  0.49220971  1  -0.012108  0  -0.002445  -0.076539  0  3.92863  0
C  C31  1  0.85052289  0.92994142  0.54618551  1  -0.00118  0  -0.07369  -0.090742  0  3.982326  0
C  C32  1  0.21907077  0.93712387  0.42480021  1  0.056706  0  0.007753  0.070143  0  3.927855  0
C  C33  1  0.43684048  0.87784503  0.36082083  1  -0.045548  0  -0.077793  -0.13726  0  3.923823  0
C  C34  1  0.57385306  0.94611286  0.28214271  1  -0.085898  0  -0.013709  -0.071505  0  4.022403  0
C  C35  1  0.63896602  0.15574112  0.17454301  1  1.548135  0  0.237084  0.592221  0  4.119954  0
C  C36  1  0.78933430  0.88090359  0.20056314  1  1.558505  0  0.229761  0.576817  0  4.123298  0
N  N37  1  0.94046679  0.45038626  0.88848547  1  -1.281918  0  -0.581668  -0.599042  0  3.356658  0
O  O38  1  0.65155092  0.32431719  0.49450679  1  -1.264405  0  -0.23418  -0.597588  0  2.338686  0
O  O39  1  0.82432528  0.51274911  0.66825014  1  -1.277703  0  -0.236853  -0.599192  0  2.377113  0
O  O40  1  0.98642247  0.67531414  0.49012634  1  -1.250382  0  -0.230873  -0.592614  0  2.366928  0
O  O41  1  0.47846000  0.51394561  0.33072763  1  -1.27149  0  -0.242265  -0.613045  0  2.372389  0
O  O42  1  0.31044401  0.66905298  0.52271900  1  -1.255526  0  -0.222685  -0.559372  0  2.363121  0
O  O43  1  0.15158088  0.49537759  0.32310172  1  -1.271381  0  -0.243076  -0.610635  0  2.358046  0
O  O44  1  0.99007522  0.32634222  0.49890755  1  -1.264737  0  -0.235319  -0.603611  0  2.364698  0
O  O45  1  0.49017699  0.49592452  0.67570665  1  -1.269353  0  -0.23879  -0.596198  0  2.348435  0
O  O46  1  0.23683394  0.43823026  0.55756779  1  -1.413984  0  -0.447776  -0.980035  0  2.182745  0
O  O47  1  0.73540482  0.55604955  0.43880461  1  -1.416481  0  -0.450962  -0.984025  0  2.201166  0
O  O48  1  0.57195120  0.20955374  0.06834174  1  -1.10142  0  -0.324226  -0.467185  0  2.234572  0
O  O49  1  0.79573685  0.17549118  0.19581859  1  -1.112608  0  -0.2797  -0.454722  0  2.064406  0
O  O50  1  0.90950978  0.77499269  0.25138395  1  -1.142548  0  -0.332812  -0.475866  0  2.296252  0
O  O51  1  0.85280726  0.91833238  0.09002776  1  -1.112047  0  -0.282646  -0.452493  0  2.047321  0
