# generated using pymatgen
data_CoP2H22C24(NO3)2
_symmetry_space_group_name_H-M   'P 1'
_cell_length_a   10.81458556
_cell_length_b   10.71451132
_cell_length_c   11.19415130
_cell_angle_alpha   75.73682720
_cell_angle_beta   82.67283022
_cell_angle_gamma   62.39700085
_symmetry_Int_Tables_number   1
_chemical_formula_structural   CoP2H22C24(NO3)2
_chemical_formula_sum   'Co2 P4 H44 C48 N4 O12'
_cell_volume   1113.89492709
_cell_formula_units_Z   2
loop_
 _symmetry_equiv_pos_site_id
 _symmetry_equiv_pos_as_xyz
  1  'x, y, z'
loop_
 _atom_site_type_symbol
 _atom_site_label
 _atom_site_symmetry_multiplicity
 _atom_site_fract_x
 _atom_site_fract_y
 _atom_site_fract_z
 _atom_site_occupancy
 _atom_site_pbe_bader_charge
 _atom_site_pbe_bader_spin_density
 _atom_site_pbe_cm5_charge
 _atom_site_pbe_ddec_charge
 _atom_site_pbe_ddec_spin_density
 _atom_site_pbe_ddec_sum_bond_order
 _atom_site_pbe_magmom
Co  Co0  1  0.19466861  0.81050279  0.01536456  1  1.296131  -2.624417  0.714772  0.99547  -2.900525  2.437344  -2.584
Co  Co1  1  0.78481060  0.20458819  0.99676275  1  1.192327  1.022455  0.713652  0.86391  1.118131  2.850819  0.989
P  P2  1  0.01691394  0.62551242  0.12587145  1  3.333779  -0.004767  0.367097  1.314363  -0.005491  5.27034  -0.005
P  P3  1  0.96610619  0.38650132  0.88926824  1  3.28337  5.1e-05  0.374086  1.314642  0.00025  5.256179  0.0
P  P4  1  0.95098285  0.93771155  0.82135817  1  3.341358  -0.000582  0.357312  1.330416  -0.000759  5.308163  0.003
P  P5  1  0.05022784  0.06139373  0.17973021  1  3.321527  -0.004055  0.372869  1.352782  -0.00557  5.254092  -0.007
H  H6  1  0.90077052  0.64296919  0.32365077  1  0.069095  -5.8e-05  0.10674  0.149057  1e-06  0.99398  0.0
H  H7  1  0.08776600  0.33911393  0.69707440  1  0.0501  -2.8e-05  0.107728  0.149028  -3.7e-05  0.990834  0.0
H  H8  1  0.93154556  0.48294597  0.27871490  1  0.043366  -0.001122  0.108493  0.151819  -0.000456  0.982824  -0.001
H  H9  1  0.06991163  0.50091366  0.72949607  1  0.070199  -0.000201  0.11089  0.154923  -7.1e-05  0.976353  0.0
H  H10  1  0.82879424  0.94179104  0.49795319  1  0.042816  -4.2e-05  0.097673  0.097685  -2.1e-05  1.016844  0.0
H  H11  1  0.17333446  0.05470108  0.49848852  1  0.074514  1.3e-05  0.09821  0.098543  1.6e-05  1.017558  0.0
H  H12  1  0.74422767  0.39774323  0.23093662  1  0.097732  6.2e-05  0.112267  0.11345  4.5e-05  0.979762  0.0
H  H13  1  0.25523727  0.61552934  0.77141163  1  0.127163  -0.000225  0.112174  0.120174  -7.2e-05  0.982434  0.0
H  H14  1  0.73164614  0.26404397  0.70595569  1  0.109596  -0.000132  0.103107  0.110001  -0.000199  1.035077  0.0
H  H15  1  0.27204820  0.72745143  0.29519582  1  0.072544  9.4e-05  0.101462  0.105163  4.3e-05  1.032416  0.0
H  H16  1  0.49175926  0.39008883  0.63179633  1  0.078128  -0.000145  0.091942  0.086494  -0.000112  1.065047  0.0
H  H17  1  0.51234730  0.60575852  0.36691304  1  0.05875  0.000124  0.092607  0.088876  2.7e-05  1.061183  0.0
H  H18  1  0.98953986  0.09248839  0.64788746  1  0.046843  2.7e-05  0.107289  0.138983  5e-05  0.998919  0.0
H  H19  1  0.01677919  0.89740760  0.34769862  1  0.038217  1e-06  0.109635  0.145497  4.4e-05  0.99591  0.0
H  H20  1  0.01419736  0.93168866  0.60894365  1  0.044495  1.3e-05  0.107145  0.148354  3.5e-05  0.996751  0.0
H  H21  1  0.98648963  0.05721088  0.39274152  1  0.096301  -0.000319  0.108145  0.149771  -0.000127  0.998937  0.0
H  H22  1  0.59214956  0.06953482  0.41791563  1  0.06108  -8.5e-05  0.094077  0.087959  -5.3e-05  1.056256  0.0
H  H23  1  0.41055857  0.92993029  0.57723646  1  0.063336  4.8e-05  0.095297  0.090975  3.5e-05  1.046705  0.0
H  H24  1  0.69894334  0.63909370  0.09815183  1  0.128601  -0.000797  0.110514  0.125381  -0.00036  1.041551  -0.001
H  H25  1  0.29337745  0.37532793  0.90580399  1  0.126339  -4.2e-05  0.110638  0.123767  3.5e-05  1.032038  0.0
H  H26  1  0.55181921  0.32267755  0.26297057  1  0.098307  -0.000982  0.107267  0.114978  -0.000426  1.020225  0.0
H  H27  1  0.45846025  0.67403347  0.73010730  1  0.122632  9e-06  0.107581  0.115012  8.4e-05  1.019571  0.0
H  H28  1  0.32030308  0.51726083  0.52574976  1  0.050496  -0.000123  0.095489  0.094964  -6.8e-05  1.040532  0.0
H  H29  1  0.68027539  0.47917456  0.47514582  1  0.053927  4.5e-05  0.095908  0.094253  5e-06  1.041715  0.0
H  H30  1  0.32160569  0.49416381  0.16483958  1  0.136522  -0.002195  0.118984  0.096255  -0.000796  1.036228  -0.002
H  H31  1  0.68923138  0.49299050  0.81829697  1  0.146852  8.4e-05  0.120988  0.096618  -6.4e-05  1.044415  0.0
H  H32  1  0.34852584  0.16918449  0.70968270  1  0.094399  -0.001032  0.101956  0.104482  -0.000449  1.033372  0.0
H  H33  1  0.66308316  0.83750564  0.28547511  1  0.079916  -0.000231  0.104146  0.106939  -5.7e-05  1.024899  0.0
H  H34  1  0.09087543  0.64702681  0.42978173  1  0.022178  -3.7e-05  0.09763  0.100218  5e-06  1.007927  0.0
H  H35  1  0.90517674  0.34585572  0.57833972  1  0.067816  -1e-05  0.098047  0.100409  -5e-06  1.007566  0.0
H  H36  1  0.16096138  0.26844127  0.30765946  1  0.101045  -5.1e-05  0.097915  0.115496  -2.5e-05  1.043117  0.0
H  H37  1  0.83944886  0.72576615  0.69604221  1  0.114969  5.8e-05  0.099762  0.119331  4.2e-05  1.037685  0.0
H  H38  1  0.38790680  0.13667871  0.40595956  1  0.050082  -6.9e-05  0.092521  0.087829  -4.7e-05  1.064474  0.0
H  H39  1  0.61719029  0.86109224  0.58991938  1  0.03528  5.3e-05  0.093344  0.089833  4.3e-05  1.060851  0.0
H  H40  1  0.59677378  0.03739623  0.78306733  1  0.119258  2.8e-05  0.107413  0.108677  2.8e-05  1.01889  0.0
H  H41  1  0.41454153  0.95802193  0.21389308  1  0.109738  -9e-05  0.1085  0.112031  -2.1e-05  1.014281  0.0
H  H42  1  0.66715419  0.81301072  0.94500299  1  0.097597  -0.00107  0.113347  0.131272  -0.00046  1.021295  -0.001
H  H43  1  0.33722641  0.18066319  0.04728866  1  0.133182  -0.000176  0.115168  0.135262  -1.3e-05  1.003166  0.0
H  H44  1  0.18295075  0.06314071  0.80214799  1  0.135626  -0.002393  0.118909  0.090389  -0.000775  0.996722  -0.002
H  H45  1  0.82091173  0.95108308  0.19102642  1  0.157464  -0.000597  0.125449  0.10694  -0.00035  1.010154  0.0
H  H46  1  0.89285594  0.76817555  0.91202826  1  0.661873  -2.2e-05  0.306035  0.378916  2.3e-05  0.971406  0.0
H  H47  1  0.09142022  0.24515076  0.09508642  1  0.661042  3.7e-05  0.305677  0.384739  6e-06  0.966445  0.0
H  H48  1  0.11823251  0.43782406  0.03428763  1  0.659803  -2.3e-05  0.307473  0.385178  -2.1e-05  0.961797  0.0
H  H49  1  0.87205268  0.58011379  0.97418495  1  0.670744  -4.9e-05  0.30775  0.38521  -3.9e-05  0.966226  0.0
C  C50  1  0.51991109  0.24013491  0.51934189  1  0.019428  -0.00103  -0.016175  0.048059  -0.000548  4.021153  -0.001
C  C51  1  0.48369050  0.75800160  0.47705133  1  -0.011281  -0.000213  -0.014928  0.050299  -0.000111  4.018939  0.0
C  C52  1  0.97918986  0.55241838  0.28427629  1  -0.540422  -0.004296  -0.163598  -0.502668  -0.002105  3.951742  -0.003
C  C53  1  0.01387544  0.43784108  0.72827116  1  -0.46505  -0.000855  -0.159515  -0.497155  -0.000492  3.945538  -0.001
C  C54  1  0.37607175  0.31630246  0.47176365  1  -0.040126  -0.00037  -0.019102  0.043695  -0.00019  4.03142  0.0
C  C55  1  0.62700385  0.68123252  0.52593641  1  -0.083664  -0.000231  -0.019283  0.040635  -0.000125  4.031836  0.0
C  C56  1  0.75544737  0.04116069  0.52685663  1  -0.063085  -0.000956  -0.094007  -0.135133  -0.000493  3.982948  -0.001
C  C57  1  0.24733661  0.95543526  0.46974930  1  -0.047021  -0.000143  -0.092534  -0.133898  -5.7e-05  3.981726  0.0
C  C58  1  0.64341177  0.46850664  0.18733701  1  -0.032402  0.0088  -0.066136  -0.035052  0.005182  3.970383  0.004
C  C59  1  0.35735117  0.53796638  0.80928766  1  -0.012399  -0.019579  -0.071672  -0.044296  -0.010274  3.965912  -0.012
C  C60  1  0.79883453  0.09427600  0.60722166  1  -0.063888  -0.000697  -0.010867  0.154131  -0.000337  3.993025  0.0
C  C61  1  0.20426334  0.90026359  0.39099634  1  -0.047511  -0.000323  -0.010176  0.153068  -0.000162  3.989773  0.0
C  C62  1  0.70051393  0.22167585  0.64262737  1  -0.028307  -0.000876  -0.092681  -0.135185  -0.000489  3.969382  -0.001
C  C63  1  0.30311488  0.77262163  0.35616492  1  -0.03018  -0.000225  -0.091837  -0.131294  -3.3e-05  3.968113  0.0
C  C64  1  0.56439612  0.29259571  0.60020682  1  -0.101955  2.4e-05  -0.095581  -0.129022  -5e-06  3.987607  0.0
C  C65  1  0.43946318  0.70369751  0.39760655  1  -0.038723  6.3e-05  -0.096826  -0.131601  5e-05  3.988426  0.0
C  C66  1  0.94398986  0.01749213  0.65702530  1  -0.477366  -0.003378  -0.163369  -0.493031  -0.001616  3.946413  -0.002
C  C67  1  0.05858746  0.97479979  0.34214726  1  -0.499465  -0.003769  -0.161099  -0.499308  -0.00188  3.936866  -0.003
C  C68  1  0.10975572  0.46880924  0.35902283  1  0.00029  -0.000198  -0.011536  0.155429  -3.3e-05  4.000269  0.0
C  C69  1  0.88783811  0.52416338  0.64794428  1  -0.002162  -1.4e-05  -0.010419  0.155177  -2.6e-05  3.999696  0.0
C  C70  1  0.49191729  0.68669308  0.05167870  1  0.443806  0.002171  0.121008  0.171375  0.001263  3.979565  0.001
C  C71  1  0.50701243  0.31435147  0.93993092  1  0.455354  -0.015198  0.111704  0.146658  -0.00801  3.998281  -0.009
C  C72  1  0.61963922  0.11303911  0.48301303  1  -0.10793  1.1e-05  -0.099725  -0.139673  -3.1e-05  4.002044  0.0
C  C73  1  0.38347495  0.88528039  0.51282314  1  -0.097536  -4.5e-05  -0.096795  -0.135823  -4e-06  3.991886  0.0
C  C74  1  0.61931555  0.60174732  0.11170584  1  -0.021529  -0.000552  -0.076231  -0.14088  -0.000344  3.916676  -0.001
C  C75  1  0.37769041  0.40621830  0.88536231  1  -0.076309  0.003673  -0.075168  -0.135577  0.001741  3.930612  0.003
C  C76  1  0.53705249  0.42629036  0.20544013  1  -0.00795  -0.000588  -0.0806  -0.127795  7.7e-05  3.966155  -0.002
C  C77  1  0.46981947  0.57124131  0.78683613  1  -0.10343  0.001996  -0.077162  -0.111491  0.00103  3.95152  0.002
C  C78  1  0.28633226  0.45989041  0.48010624  1  -0.015614  -0.000145  -0.096298  -0.134726  -8e-05  3.993477  0.0
C  C79  1  0.71453734  0.53621170  0.52086021  1  -0.046273  -0.000201  -0.095715  -0.133288  -0.000122  3.995214  0.0
C  C80  1  0.46270224  0.81946576  0.95754461  1  0.451501  0.007914  0.121738  0.162894  0.003907  3.991007  0.005
C  C81  1  0.53605983  0.18517301  0.03513865  1  0.428293  -0.010151  0.117657  0.150317  -0.005388  3.990675  -0.006
C  C82  1  0.40878615  0.52078646  0.15029827  1  0.443855  0.003007  0.049193  0.102387  0.000493  3.923239  0.001
C  C83  1  0.59918545  0.47154417  0.83690507  1  0.446365  -0.014209  0.046029  0.090426  -0.007266  3.896932  -0.008
C  C84  1  0.38380230  0.06917876  0.77930123  1  -0.041564  -0.006431  -0.086403  -0.13869  -0.003444  3.972922  -0.005
C  C85  1  0.62372355  0.93728157  0.21556817  1  -0.022187  -0.001728  -0.08235  -0.129258  -0.001038  3.970601  -0.001
C  C86  1  0.15611147  0.53445740  0.42465739  1  -0.027504  -0.000413  -0.093317  -0.133123  -0.00014  3.979661  0.0
C  C87  1  0.84208432  0.45948013  0.58072900  1  -0.056145  -0.000246  -0.092446  -0.134615  -0.000161  3.979857  0.0
C  C88  1  0.19515013  0.32327763  0.35634503  1  -0.05823  -0.000472  -0.099209  -0.145292  -0.000245  3.969301  0.0
C  C89  1  0.80570921  0.67140632  0.64634377  1  -0.064662  -0.000205  -0.097373  -0.14343  -0.000107  3.963267  0.0
C  C90  1  0.32501429  0.24908721  0.41155388  1  -0.06364  -0.000294  -0.099032  -0.133725  -0.00017  4.000348  0.0
C  C91  1  0.67840703  0.74778769  0.58660690  1  -0.044588  3.9e-05  -0.097243  -0.133165  3.2e-05  3.996161  0.0
C  C92  1  0.52134976  0.99629970  0.82019673  1  -0.036317  0.012926  -0.068214  -0.025302  0.006812  3.950431  0.008
C  C93  1  0.48606956  0.00381537  0.17554112  1  0.007787  -0.012795  -0.068266  -0.030785  -0.006657  3.954199  -0.008
C  C94  1  0.56127764  0.87013317  0.91080376  1  0.007964  -0.005437  -0.074291  -0.136816  -0.003045  3.892477  -0.004
C  C95  1  0.44242375  0.12856507  0.08321431  1  -0.011662  0.000134  -0.072067  -0.134397  -8e-06  3.901357  0.001
C  C96  1  0.29182734  0.01146875  0.82936216  1  0.453081  0.009139  0.054375  0.110716  0.004071  3.933817  0.006
C  C97  1  0.71238585  0.99869354  0.16499597  1  0.424301  -0.010477  0.05287  0.101322  -0.00566  3.878731  -0.006
N  N98  1  0.38598350  0.64837667  0.07470768  1  -1.221949  -0.064434  -0.326943  -0.315191  -0.03582  3.591727  -0.05
N  N99  1  0.61943486  0.34408530  0.91260219  1  -1.157925  -0.007296  -0.338529  -0.265576  -0.003168  3.647795  -0.007
N  N100  1  0.33090460  0.88908323  0.91516960  1  -1.189403  -0.066849  -0.319153  -0.267668  -0.036188  3.574449  -0.061
N  N101  1  0.66849420  0.12236583  0.07884404  1  -1.151721  -0.020112  -0.331776  -0.21349  -0.010641  3.626647  -0.016
O  O102  1  0.06575644  0.73676341  0.12826101  1  -1.440866  -0.055835  -0.368129  -0.755525  -0.030247  2.293496  -0.039
O  O103  1  0.90688089  0.28099863  0.89635271  1  -1.405395  -0.005109  -0.357905  -0.718355  -0.00288  2.384513  -0.006
O  O104  1  0.88852738  0.67685912  0.04755409  1  -1.4616  -0.002044  -0.365842  -0.753446  -0.000719  2.245605  -0.001
O  O105  1  0.09504622  0.33454800  0.96737678  1  -1.458058  -0.000202  -0.365975  -0.750946  -9.2e-05  2.228272  0.0
O  O106  1  0.14401860  0.49428142  0.07857558  1  -1.432961  -0.000839  -0.388978  -0.671051  -0.000263  2.300888  0.0
O  O107  1  0.84518443  0.52936601  0.92348335  1  -1.44837  0.000203  -0.388133  -0.674056  0.000199  2.322205  0.0
O  O108  1  0.10550564  0.86042524  0.85588897  1  -1.428058  -0.079192  -0.379913  -0.781655  -0.042193  2.361055  -0.056
O  O109  1  0.89977013  0.11987724  0.14010090  1  -1.406009  0.023946  -0.366251  -0.746174  0.013297  2.422034  0.013
O  O110  1  0.85179968  0.04829863  0.89265701  1  -1.442494  0.045027  -0.36423  -0.750291  0.023889  2.360826  0.038
O  O111  1  0.16306685  0.95831336  0.10767986  1  -1.424322  -0.07371  -0.368431  -0.752674  -0.038947  2.373172  -0.054
O  O112  1  0.89726803  0.82072775  0.82400420  1  -1.435371  0.002268  -0.396633  -0.665803  0.001517  2.243731  0.002
O  O113  1  0.08533702  0.18899003  0.18273656  1  -1.437904  -0.006016  -0.391589  -0.671903  -0.002985  2.237681  -0.005
