# generated using pymatgen
data_AlH11C8S
_symmetry_space_group_name_H-M   'P 1'
_cell_length_a   6.92406127
_cell_length_b   7.06531925
_cell_length_c   8.94902943
_cell_angle_alpha   100.84042745
_cell_angle_beta   89.99973671
_cell_angle_gamma   90.00003564
_symmetry_Int_Tables_number   1
_chemical_formula_structural   AlH11C8S
_chemical_formula_sum   'Al2 H22 C16 S2'
_cell_volume   429.98030997
_cell_formula_units_Z   2
loop_
 _symmetry_equiv_pos_site_id
 _symmetry_equiv_pos_as_xyz
  1  'x, y, z'
loop_
 _atom_site_type_symbol
 _atom_site_label
 _atom_site_symmetry_multiplicity
 _atom_site_fract_x
 _atom_site_fract_y
 _atom_site_fract_z
 _atom_site_occupancy
 _atom_site_pbe_bader_spin_density
 _atom_site_pbe_cm5_charge
 _atom_site_pbe_ddec_charge
 _atom_site_pbe_ddec_spin_density
 _atom_site_pbe_ddec_sum_bond_order
 _atom_site_pbe_magmom
Al  Al0  1  0.55805547  0.86565444  0.07603424  1  0  0.175651  0.939785  0  2.965395  0
Al  Al1  1  0.44195005  0.36566015  0.07603133  1  0  0.175646  0.939759  0  2.965569  0
H  H2  1  0.46008109  0.87411929  0.59872748  1  0  0.102532  0.115998  0  1.003866  0
H  H3  1  0.53990693  0.37411922  0.59872339  1  0  0.102457  0.115897  0  1.004002  0
H  H4  1  0.71541158  0.85444250  0.40077339  1  0  0.102952  0.098662  0  1.035303  0
H  H5  1  0.28456747  0.35445118  0.40077707  1  0  0.102989  0.09876  0  1.035197  0
H  H6  1  0.03204198  0.01653725  0.46302084  1  0  0.100753  0.101476  0  1.014517  0
H  H7  1  0.96793506  0.51654895  0.46305383  1  0  0.100748  0.101491  0  1.014403  0
H  H8  1  0.09440640  0.19629465  0.72607851  1  0  0.095903  0.095182  0  1.03577  0
H  H9  1  0.90558943  0.69629924  0.72612076  1  0  0.095853  0.09514  0  1.035704  0
H  H10  1  0.84128396  0.21469098  0.92414033  1  0  0.103927  0.10495  0  1.038076  0
H  H11  1  0.15873671  0.71469273  0.92416809  1  0  0.103928  0.105057  0  1.038024  0
H  H12  1  0.36910498  0.77190938  0.30162399  1  0  0.082876  0.171295  0  1.070073  0
H  H13  1  0.63088039  0.27190791  0.30162720  1  0  0.082853  0.171278  0  1.070074  0
H  H14  1  0.21492414  0.89769300  0.19637963  1  0  0.079165  0.176979  0  1.076302  0
H  H15  1  0.78507781  0.39769878  0.19639338  1  0  0.079149  0.176967  0  1.07631  0
H  H16  1  0.38862358  0.02464856  0.32314806  1  0  0.080354  0.169021  0  1.070844  0
H  H17  1  0.61136440  0.52464861  0.32315271  1  0  0.080324  0.168971  0  1.070924  0
H  H18  1  0.91625007  0.90433299  0.01128762  1  0  0.080834  0.174784  0  1.066762  0
H  H19  1  0.08374574  0.40432154  0.01128912  1  0  0.080855  0.174816  0  1.066656  0
H  H20  1  0.89441848  0.76892992  0.15837058  1  0  0.082651  0.17776  0  1.049727  0
H  H21  1  0.10560238  0.26893000  0.15837478  1  0  0.082651  0.177746  0  1.049842  0
H  H22  1  0.87001916  0.02392561  0.20058306  1  0  0.081848  0.175371  0  1.062448  0
H  H23  1  0.12997676  0.52392283  0.20058346  1  0  0.08184  0.175359  0  1.06248  0
C  C24  1  0.63518999  0.04624940  0.77339868  1  0  -0.002704  0.1079  0  4.021095  0
C  C25  1  0.36482714  0.54625243  0.77341136  1  0  -0.002646  0.108057  0  4.021455  0
C  C26  1  0.59938367  0.94398133  0.62605078  1  0  -0.093856  -0.137101  0  3.96203  0
C  C27  1  0.40061145  0.44397850  0.62605909  1  0  -0.09372  -0.136846  0  3.962273  0
C  C28  1  0.74303812  0.93381011  0.51530086  1  0  -0.089325  -0.078122  0  4.0034  0
C  C29  1  0.25696775  0.43381460  0.51532079  1  0  -0.089414  -0.078434  0  4.003436  0
C  C30  1  0.92067627  0.02500594  0.55018007  1  0  -0.090408  -0.08538  0  3.992665  0
C  C31  1  0.07931038  0.52500625  0.55020680  1  0  -0.090478  -0.085412  0  3.992342  0
C  C32  1  0.95586764  0.12560121  0.69750730  1  0  -0.087281  -0.065571  0  4.001441  0
C  C33  1  0.04413842  0.62560299  0.69753660  1  0  -0.087157  -0.065322  0  4.000895  0
C  C34  1  0.81387695  0.13616892  0.80930326  1  0  -0.091006  -0.151113  0  4.007746  0
C  C35  1  0.18614580  0.63615911  0.80932591  1  0  -0.091076  -0.15145  0  4.007776  0
C  C36  1  0.36321848  0.89181558  0.23909277  1  0  -0.35674  -0.887658  0  3.81083  0
C  C37  1  0.63678032  0.39182276  0.23909832  1  0  -0.356692  -0.88761  0  3.810942  0
C  C38  1  0.83689316  0.89408563  0.11579545  1  0  -0.358203  -0.872069  0  3.788292  0
C  C39  1  0.16311503  0.39408281  0.11579903  1  0  -0.35821  -0.872103  0  3.788508  0
S  S40  1  0.44435651  0.06009727  0.90898390  1  0  6.3e-05  -0.332148  0  2.727555  0
S  S41  1  0.55565406  0.56009002  0.90897318  1  0  0.000114  -0.332123  0  2.72779  0
