# generated using pymatgen
data_NaH4C6S(NO)3
_symmetry_space_group_name_H-M   'P 1'
_cell_length_a   5.79474961
_cell_length_b   8.42113970
_cell_length_c   17.41865134
_cell_angle_alpha   89.99997373
_cell_angle_beta   89.60647267
_cell_angle_gamma   89.99949373
_symmetry_Int_Tables_number   1
_chemical_formula_structural   NaH4C6S(NO)3
_chemical_formula_sum   'Na4 H16 C24 S4 N12 O12'
_cell_volume   849.98219671
_cell_formula_units_Z   4
loop_
 _symmetry_equiv_pos_site_id
 _symmetry_equiv_pos_as_xyz
  1  'x, y, z'
loop_
 _atom_site_type_symbol
 _atom_site_label
 _atom_site_symmetry_multiplicity
 _atom_site_fract_x
 _atom_site_fract_y
 _atom_site_fract_z
 _atom_site_occupancy
 _atom_site_hle17_bader_spin_density
 _atom_site_hle17_ddec_charge
 _atom_site_hle17_ddec_spin_density
 _atom_site_hle17_ddec_sum_bond_order
 _atom_site_hle17_magmom
 _atom_site_hse06_10hf_bader_spin_density
 _atom_site_hse06_10hf_ddec_charge
 _atom_site_hse06_10hf_ddec_spin_density
 _atom_site_hse06_10hf_ddec_sum_bond_order
 _atom_site_hse06_10hf_magmom
 _atom_site_hse06_bader_spin_density
 _atom_site_hse06_ddec_charge
 _atom_site_hse06_ddec_spin_density
 _atom_site_hse06_ddec_sum_bond_order
 _atom_site_hse06_magmom
 _atom_site_pbe_bader_spin_density
 _atom_site_pbe_cm5_charge
 _atom_site_pbe_ddec_charge
 _atom_site_pbe_ddec_spin_density
 _atom_site_pbe_ddec_sum_bond_order
 _atom_site_pbe_magmom
Na  Na0  1  0.36912993  0.68350790  0.98130527  1  0  0.917417  0  0.404152  0  0  0.885894  0  0.551024  0  0  0.893766  0  0.531649  0  0  0.759888  0.879829  0  0.56508  0
Na  Na1  1  0.13087403  0.18350561  0.01869454  1  0  0.917405  0  0.404142  0  0  0.885895  0  0.550994  0  0  0.893767  0  0.531618  0  0  0.759892  0.879832  0  0.565047  0
Na  Na2  1  0.63087667  0.31648246  0.01869463  1  0  0.91741  0  0.404146  0  0  0.885863  0  0.551051  0  0  0.893738  0  0.531674  0  0  0.759846  0.879795  0  0.565107  0
Na  Na3  1  0.86912594  0.81648712  0.98130242  1  0  0.917414  0  0.404144  0  0  0.885883  0  0.551034  0  0  0.893763  0  0.531656  0  0  0.759879  0.879815  0  0.565091  0
H  H4  1  0.97108146  0.34633587  0.24672887  1  0  0.109023  0  0.956388  0  0  0.117657  0  1.018588  0  0  0.120118  0  1.018375  0  0  0.107063  0.115873  0  1.018793  0
H  H5  1  0.52892979  0.84633227  0.75326423  1  0  0.108975  0  0.956436  0  0  0.117649  0  1.018619  0  0  0.12011  0  1.018407  0  0  0.107044  0.115864  0  1.018825  0
H  H6  1  0.02892971  0.65367229  0.75327738  1  0  0.109172  0  0.956204  0  0  0.117653  0  1.018562  0  0  0.120114  0  1.018347  0  0  0.107117  0.115869  0  1.018768  0
H  H7  1  0.47107061  0.15365096  0.24672815  1  0  0.109027  0  0.956373  0  0  0.117588  0  1.018658  0  0  0.120046  0  1.018447  0  0  0.107067  0.115804  0  1.01886  0
H  H8  1  0.15889701  0.34096738  0.37618769  1  0  0.111066  0  0.950178  0  0  0.116589  0  1.017219  0  0  0.119844  0  1.016127  0  0  0.103091  0.114284  0  1.018063  0
H  H9  1  0.34108443  0.84096431  0.62381079  1  0  0.111031  0  0.950186  0  0  0.116542  0  1.017241  0  0  0.119796  0  1.016154  0  0  0.103068  0.114222  0  1.018101  0
H  H10  1  0.84110888  0.65905978  0.62381967  1  0  0.111004  0  0.950167  0  0  0.116545  0  1.017192  0  0  0.119798  0  1.016105  0  0  0.103102  0.114239  0  1.018036  0
H  H11  1  0.65888621  0.15903911  0.37618594  1  0  0.111026  0  0.95015  0  0  0.116552  0  1.017193  0  0  0.119808  0  1.016098  0  0  0.103126  0.114243  0  1.01805  0
H  H12  1  0.69927858  0.64793247  0.29004872  1  0  0.10374  0  0.963939  0  0  0.110932  0  1.030158  0  0  0.11284  0  1.031832  0  0  0.102838  0.109566  0  1.029109  0
H  H13  1  0.80070857  0.14793784  0.70995108  1  0  0.103741  0  0.963901  0  0  0.110932  0  1.030129  0  0  0.112839  0  1.031808  0  0  0.10281  0.109568  0  1.029078  0
H  H14  1  0.30074354  0.35207570  0.70995130  1  0  0.103806  0  0.963882  0  0  0.110975  0  1.030132  0  0  0.112866  0  1.031862  0  0  0.102851  0.109611  0  1.029083  0
H  H15  1  0.19928401  0.85206914  0.29005099  1  0  0.103706  0  0.963966  0  0  0.110907  0  1.030179  0  0  0.11281  0  1.031868  0  0  0.102815  0.109541  0  1.02913  0
H  H16  1  0.51403463  0.65262134  0.16288549  1  0  0.122777  0  0.974646  0  0  0.132537  0  1.033299  0  0  0.136103  0  1.030673  0  0  0.116189  0.129905  0  1.035286  0
H  H17  1  0.98597521  0.15262181  0.83711106  1  0  0.122838  0  0.974665  0  0  0.132639  0  1.03325  0  0  0.13621  0  1.030623  0  0  0.116235  0.130004  0  1.035254  0
H  H18  1  0.48598393  0.34736783  0.83711565  1  0  0.122725  0  0.97458  0  0  0.132514  0  1.033184  0  0  0.136076  0  1.030557  0  0  0.116187  0.129877  0  1.035195  0
H  H19  1  0.01402961  0.84736260  0.16288940  1  0  0.122804  0  0.974586  0  0  0.132587  0  1.033214  0  0  0.136151  0  1.030596  0  0  0.1162  0.129956  0  1.035198  0
C  C20  1  0.23084305  0.50035067  0.19769811  1  0  -0.128192  0  3.723694  0  0  -0.101079  0  3.964359  0  0  -0.110224  0  3.986766  0  0  -0.017178  -0.095283  0  3.949479  0
C  C21  1  0.26915625  0.00035969  0.80230168  1  0  -0.128536  0  3.723859  0  0  -0.101338  0  3.964445  0  0  -0.110498  0  3.98686  0  0  -0.017281  -0.095542  0  3.94957  0
C  C22  1  0.76916845  0.49965512  0.80230470  1  0  -0.128179  0  3.724035  0  0  -0.10107  0  3.964638  0  0  -0.110214  0  3.987037  0  0  -0.017109  -0.095272  0  3.949762  0
C  C23  1  0.73083515  0.99963660  0.19769464  1  0  -0.12807  0  3.723764  0  0  -0.100991  0  3.96443  0  0  -0.110136  0  3.986836  0  0  -0.017165  -0.095197  0  3.949554  0
C  C24  1  0.12941235  0.41250418  0.25709139  1  0  -0.048663  0  3.748781  0  0  -0.072272  0  3.996413  0  0  -0.069627  0  4.016387  0  0  -0.081586  -0.073771  0  3.982867  0
C  C25  1  0.37058084  0.91250435  0.74290143  1  0  -0.048579  0  3.748785  0  0  -0.072241  0  3.996379  0  0  -0.069589  0  4.016355  0  0  -0.081558  -0.073739  0  3.982827  0
C  C26  1  0.87059726  0.58750874  0.74291313  1  0  -0.048633  0  3.748757  0  0  -0.072109  0  3.996387  0  0  -0.06946  0  4.016353  0  0  -0.08158  -0.073611  0  3.982843  0
C  C27  1  0.62939548  0.08748245  0.25709017  1  0  -0.048588  0  3.748683  0  0  -0.07212  0  3.99635  0  0  -0.069475  0  4.016325  0  0  -0.081575  -0.073618  0  3.982801  0
C  C28  1  0.23381073  0.40917053  0.32898068  1  0  -0.153478  0  3.718782  0  0  -0.175552  0  3.97636  0  0  -0.182117  0  3.996942  0  0  -0.09523  -0.17131  0  3.962495  0
C  C29  1  0.26617539  0.90916075  0.67101438  1  0  -0.153376  0  3.719028  0  0  -0.175433  0  3.976618  0  0  -0.181997  0  3.997193  0  0  -0.09512  -0.171173  0  3.962762  0
C  C30  1  0.76619344  0.59085308  0.67102666  1  0  -0.153497  0  3.718745  0  0  -0.175594  0  3.976345  0  0  -0.182152  0  3.996915  0  0  -0.095276  -0.171354  0  3.962483  0
C  C31  1  0.73379736  0.09082960  0.32897835  1  0  -0.153445  0  3.71864  0  0  -0.175534  0  3.976218  0  0  -0.182094  0  3.996798  0  0  -0.09524  -0.171296  0  3.962354  0
C  C32  1  0.43901947  0.49382231  0.34095580  1  0  0.201535  0  3.851229  0  0  0.202662  0  4.112869  0  0  0.211002  0  4.13453  0  0  0.098351  0.197113  0  4.098084  0
C  C33  1  0.06098092  0.99381504  0.65904167  1  0  0.201644  0  3.851198  0  0  0.202733  0  4.112882  0  0  0.211076  0  4.134536  0  0  0.098387  0.197184  0  4.098094  0
C  C34  1  0.56098135  0.50619061  0.65905037  1  0  0.201475  0  3.851601  0  0  0.202546  0  4.113272  0  0  0.210887  0  4.134928  0  0  0.098293  0.196999  0  4.098489  0
C  C35  1  0.93902283  0.00618363  0.34095188  1  0  0.201513  0  3.851238  0  0  0.202621  0  4.112869  0  0  0.210957  0  4.134528  0  0  0.098349  0.197073  0  4.098089  0
C  C36  1  0.53924857  0.58244423  0.28107302  1  0  -0.166576  0  3.7327  0  0  -0.184608  0  3.983734  0  0  -0.191713  0  4.005188  0  0  -0.097723  -0.180029  0  3.969332  0
C  C37  1  0.96074816  0.08244381  0.71892514  1  0  -0.166597  0  3.732603  0  0  -0.184615  0  3.983653  0  0  -0.191721  0  4.005105  0  0  -0.097686  -0.180032  0  3.969248  0
C  C38  1  0.46075641  0.41757463  0.71892571  1  0  -0.166603  0  3.733013  0  0  -0.184628  0  3.984048  0  0  -0.19174  0  4.005484  0  0  -0.097666  -0.180048  0  3.969647  0
C  C39  1  0.03924614  0.91755248  0.28107695  1  0  -0.16646  0  3.732902  0  0  -0.184512  0  3.983914  0  0  -0.191617  0  4.005369  0  0  -0.097643  -0.179934  0  3.969513  0
C  C40  1  0.43579567  0.58469489  0.20944366  1  0  -0.030867  0  3.718664  0  0  -0.054401  0  3.961863  0  0  -0.050949  0  3.979467  0  0  -0.073682  -0.056433  0  3.949952  0
C  C41  1  0.06419948  0.08469811  0.79055264  1  0  -0.030842  0  3.718735  0  0  -0.054421  0  3.961901  0  0  -0.050967  0  3.97951  0  0  -0.073708  -0.056455  0  3.949991  0
C  C42  1  0.56422651  0.41530734  0.79055579  1  0  -0.030856  0  3.718653  0  0  -0.05436  0  3.96181  0  0  -0.050911  0  3.979439  0  0  -0.07368  -0.056386  0  3.949872  0
C  C43  1  0.93578643  0.91530175  0.20944708  1  0  -0.031076  0  3.718843  0  0  -0.054605  0  3.962041  0  0  -0.051162  0  3.979661  0  0  -0.073713  -0.056624  0  3.950107  0
S  S44  1  0.11059878  0.50023592  0.10420169  1  0  1.334362  0  5.671711  0  0  1.246931  0  6.186595  0  0  1.293687  0  6.160405  0  0  0.490804  1.214631  0  6.20387  0
S  S45  1  0.38939222  0.00023576  0.89579458  1  0  1.334481  0  5.671633  0  0  1.247024  0  6.186488  0  0  1.293787  0  6.1603  0  0  0.490816  1.214721  0  6.20376  0
S  S46  1  0.88941327  0.49975444  0.89579538  1  0  1.334204  0  5.671314  0  0  1.246785  0  6.186212  0  0  1.293542  0  6.160019  0  0  0.490713  1.214481  0  6.20349  0
S  S47  1  0.61059568  0.99974985  0.10420229  1  0  1.334273  0  5.671644  0  0  1.246845  0  6.186531  0  0  1.293608  0  6.160336  0  0  0.490773  1.214543  0  6.203811  0
N  N48  1  0.53775908  0.48261444  0.41453836  1  0  -0.258275  0  3.026169  0  0  -0.251848  0  3.307365  0  0  -0.271854  0  3.324869  0  0  -0.156365  -0.238086  0  3.295141  0
N  N49  1  0.96222409  0.98260589  0.58546025  1  0  -0.25825  0  3.025994  0  0  -0.251811  0  3.307182  0  0  -0.271817  0  3.324682  0  0  -0.156337  -0.238051  0  3.294966  0
N  N50  1  0.46225549  0.51740679  0.58546850  1  0  -0.25815  0  3.026585  0  0  -0.251614  0  3.307707  0  0  -0.271616  0  3.325221  0  0  -0.156315  -0.237852  0  3.295463  0
N  N51  1  0.03775345  0.01739397  0.41453654  1  0  -0.258059  0  3.026512  0  0  -0.251541  0  3.307642  0  0  -0.271541  0  3.325151  0  0  -0.156254  -0.237777  0  3.295398  0
N  N52  1  0.70812840  0.56413136  0.42992077  1  0  0.340017  0  4.011556  0  0  0.37224  0  4.316438  0  0  0.385532  0  4.336782  0  0  0.142814  0.363072  0  4.302786  0
N  N53  1  0.79185298  0.06412981  0.57007785  1  0  0.33999  0  4.011643  0  0  0.37221  0  4.316516  0  0  0.385503  0  4.336862  0  0  0.142751  0.36304  0  4.302862  0
N  N54  1  0.29189835  0.43589343  0.57008504  1  0  0.340041  0  4.011811  0  0  0.372202  0  4.316695  0  0  0.385494  0  4.337046  0  0  0.142804  0.363035  0  4.303035  0
N  N55  1  0.20810727  0.93588311  0.42991937  1  0  0.339834  0  4.01176  0  0  0.372012  0  4.316662  0  0  0.385305  0  4.337018  0  0  0.142665  0.362844  0  4.303002  0
N  N56  1  0.86509719  0.63258476  0.45231991  1  0  -0.18867  0  2.363758  0  0  -0.201171  0  2.588425  0  0  -0.197873  0  2.594978  0  0  -0.075207  -0.203244  0  2.584238  0
N  N57  1  0.63488875  0.13258543  0.54767644  1  0  -0.188721  0  2.363849  0  0  -0.201227  0  2.588542  0  0  -0.197928  0  2.595098  0  0  -0.075204  -0.203297  0  2.584352  0
N  N58  1  0.13490397  0.36742222  0.54768282  1  0  -0.188849  0  2.363525  0  0  -0.201325  0  2.588183  0  0  -0.198032  0  2.594739  0  0  -0.075271  -0.20339  0  2.583989  0
N  N59  1  0.36510599  0.86741087  0.45232106  1  0  -0.188783  0  2.363322  0  0  -0.20129  0  2.588022  0  0  -0.198003  0  2.594586  0  0  -0.075252  -0.203353  0  2.583826  0
O  O60  1  0.05680708  0.66504752  0.08290968  1  0  -0.725176  0  1.987617  0  0  -0.684787  0  2.250354  0  0  -0.703452  0  2.233729  0  0  -0.402752  -0.671571  0  2.261396  0
O  O61  1  0.44320072  0.16504581  0.91708844  1  0  -0.725123  0  1.987508  0  0  -0.68475  0  2.250303  0  0  -0.703416  0  2.233677  0  0  -0.402714  -0.671531  0  2.261343  0
O  O62  1  0.94320281  0.33494046  0.91709197  1  0  -0.725083  0  1.987399  0  0  -0.684743  0  2.250231  0  0  -0.703411  0  2.233609  0  0  -0.402758  -0.671525  0  2.261275  0
O  O63  1  0.55680281  0.83493505  0.08290741  1  0  -0.725148  0  1.987422  0  0  -0.684738  0  2.25015  0  0  -0.703408  0  2.233525  0  0  -0.402757  -0.671525  0  2.261195  0
O  O64  1  0.91132473  0.39338797  0.10715493  1  0  -0.717951  0  1.957439  0  0  -0.676955  0  2.21229  0  0  -0.695218  0  2.196518  0  0  -0.409663  -0.66399  0  2.22258  0
O  O65  1  0.58866120  0.89338383  0.89284428  1  0  -0.718  0  1.957336  0  0  -0.677029  0  2.212245  0  0  -0.695274  0  2.196428  0  0  -0.409757  -0.664059  0  2.222526  0
O  O66  1  0.08869345  0.60660358  0.89285023  1  0  -0.717925  0  1.957211  0  0  -0.676928  0  2.212054  0  0  -0.695178  0  2.196264  0  0  -0.409668  -0.663973  0  2.22237  0
O  O67  1  0.41132843  0.10660059  0.10715261  1  0  -0.717914  0  1.95742  0  0  -0.676948  0  2.212329  0  0  -0.695173  0  2.196474  0  0  -0.409655  -0.663997  0  2.222648  0
O  O68  1  0.29500497  0.43903343  0.05255296  1  0  -0.822095  0  2.012439  0  0  -0.782754  0  2.287829  0  0  -0.799858  0  2.26798  0  0  -0.511637  -0.770544  0  2.301141  0
O  O69  1  0.20498234  0.93903324  0.94744383  1  0  -0.822062  0  2.012298  0  0  -0.78276  0  2.287767  0  0  -0.799869  0  2.267921  0  0  -0.511636  -0.770545  0  2.301072  0
O  O70  1  0.70500992  0.56096049  0.94745045  1  0  -0.822093  0  2.01243  0  0  -0.782752  0  2.28781  0  0  -0.799854  0  2.26796  0  0  -0.511613  -0.770537  0  2.30112  0
O  O71  1  0.79500879  0.06095593  0.05255536  1  0  -0.822038  0  2.012427  0  0  -0.782692  0  2.287824  0  0  -0.799801  0  2.267976  0  0  -0.511614  -0.770482  0  2.301136  0
