# generated using pymatgen
data_AgH14C8N3O5
_symmetry_space_group_name_H-M   'P 1'
_cell_length_a   5.29404060
_cell_length_b   7.78859606
_cell_length_c   15.11602701
_cell_angle_alpha   85.72031465
_cell_angle_beta   79.62342657
_cell_angle_gamma   70.16538119
_symmetry_Int_Tables_number   1
_chemical_formula_structural   AgH14C8N3O5
_chemical_formula_sum   'Ag2 H28 C16 N6 O10'
_cell_volume   576.65533531
_cell_formula_units_Z   2
loop_
 _symmetry_equiv_pos_site_id
 _symmetry_equiv_pos_as_xyz
  1  'x, y, z'
loop_
 _atom_site_type_symbol
 _atom_site_label
 _atom_site_symmetry_multiplicity
 _atom_site_fract_x
 _atom_site_fract_y
 _atom_site_fract_z
 _atom_site_occupancy
 _atom_site_hle17_bader_spin_density
 _atom_site_hle17_ddec_charge
 _atom_site_hle17_ddec_spin_density
 _atom_site_hle17_ddec_sum_bond_order
 _atom_site_hle17_magmom
 _atom_site_hse06_10hf_bader_spin_density
 _atom_site_hse06_10hf_ddec_charge
 _atom_site_hse06_10hf_ddec_spin_density
 _atom_site_hse06_10hf_ddec_sum_bond_order
 _atom_site_hse06_10hf_magmom
 _atom_site_hse06_bader_spin_density
 _atom_site_hse06_ddec_charge
 _atom_site_hse06_ddec_spin_density
 _atom_site_hse06_ddec_sum_bond_order
 _atom_site_hse06_magmom
 _atom_site_pbe_bader_spin_density
 _atom_site_pbe_cm5_charge
 _atom_site_pbe_ddec_charge
 _atom_site_pbe_ddec_spin_density
 _atom_site_pbe_ddec_sum_bond_order
 _atom_site_pbe_magmom
Ag  Ag0  1  0.67983568  0.65607976  0.24661558  1  0  0.639328  0  1.172022  0  0  0.510938  0  1.590732  0  0  0.547351  0  1.535552  0  0  0.428146  0.484384  0  1.629734  0
Ag  Ag1  1  0.32005585  0.34395207  0.75340908  1  0  0.639134  0  1.171953  0  0  0.51058  0  1.590689  0  0  0.547182  0  1.535429  0  0  0.427947  0.484183  0  1.62962  0
H  H2  1  0.94158097  0.37980342  0.95233140  1  0  0.304836  0  0.936508  0  0  0.285676  0  1.000148  0  0  0.294661  0  0.992946  0  0  0.302682  0.279313  0  1.005301  0
H  H3  1  0.67653202  0.38106863  0.54639526  1  0  0.305452  0  0.931534  0  0  0.287671  0  0.99219  0  0  0.296672  0  0.985092  0  0  0.302923  0.281264  0  0.997323  0
H  H4  1  0.05840035  0.62026820  0.04768129  1  0  0.304813  0  0.936885  0  0  0.285706  0  1.000431  0  0  0.294675  0  0.993246  0  0  0.302803  0.279344  0  1.005588  0
H  H5  1  0.32347580  0.61889674  0.45360219  1  0  0.305505  0  0.931574  0  0  0.287646  0  0.992339  0  0  0.296647  0  0.985243  0  0  0.302904  0.281233  0  0.997489  0
H  H6  1  0.38837004  0.39774623  0.15813038  1  0  0.123693  0  0.93922  0  0  0.138596  0  1.000171  0  0  0.141038  0  0.999441  0  0  0.105858  0.136827  0  1.00084  0
H  H7  1  0.20923212  0.40041931  0.33773117  1  0  0.118902  0  0.94079  0  0  0.133129  0  1.003197  0  0  0.135546  0  1.002521  0  0  0.104215  0.131381  0  1.003776  0
H  H8  1  0.61163924  0.60225278  0.84190092  1  0  0.12371  0  0.939213  0  0  0.138656  0  1.000165  0  0  0.141101  0  0.999419  0  0  0.105922  0.136889  0  1.000815  0
H  H9  1  0.79076650  0.59957191  0.66227192  1  0  0.11891  0  0.940642  0  0  0.13315  0  1.00305  0  0  0.135574  0  1.002356  0  0  0.104239  0.131408  0  1.003617  0
H  H10  1  0.65386969  0.23104684  0.20490335  1  0  0.127013  0  0.939311  0  0  0.142372  0  0.995894  0  0  0.145338  0  0.994077  0  0  0.106452  0.140221  0  0.997303  0
H  H11  1  0.10587391  0.23275694  0.29555644  1  0  0.12276  0  0.934374  0  0  0.136821  0  0.994168  0  0  0.139848  0  0.992171  0  0  0.105439  0.1346  0  0.995674  0
H  H12  1  0.34623002  0.76894172  0.79509710  1  0  0.127055  0  0.939312  0  0  0.142455  0  0.995871  0  0  0.145428  0  0.994033  0  0  0.106508  0.140315  0  0.997257  0
H  H13  1  0.89411456  0.76724825  0.70442429  1  0  0.122924  0  0.934324  0  0  0.136875  0  0.994232  0  0  0.139902  0  0.992225  0  0  0.105493  0.134667  0  0.99572  0
H  H14  1  0.70497856  0.00916348  0.09745575  1  0  0.068864  0  0.949048  0  0  0.082334  0  1.01772  0  0  0.083785  0  1.01694  0  0  0.089488  0.081125  0  1.018524  0
H  H15  1  0.28176960  0.01270330  0.40476786  1  0  0.073458  0  0.951716  0  0  0.086699  0  1.01853  0  0  0.08805  0  1.018248  0  0  0.090022  0.085644  0  1.018858  0
H  H16  1  0.29502865  0.99086049  0.90254837  1  0  0.068671  0  0.949036  0  0  0.082212  0  1.017719  0  0  0.083702  0  1.016901  0  0  0.08946  0.081014  0  1.018507  0
H  H17  1  0.71816486  0.98727187  0.59521115  1  0  0.073567  0  0.951642  0  0  0.086768  0  1.018508  0  0  0.088127  0  1.018202  0  0  0.090104  0.085722  0  1.018827  0
H  H18  1  0.36831225  0.13971821  0.08422247  1  0  0.079217  0  0.94711  0  0  0.09659  0  1.005335  0  0  0.097587  0  1.006074  0  0  0.093183  0.095821  0  1.004873  0
H  H19  1  0.48653464  0.14471077  0.41618337  1  0  0.08107  0  0.945904  0  0  0.098693  0  1.003585  0  0  0.099624  0  1.004301  0  0  0.094169  0.097946  0  1.003198  0
H  H20  1  0.63174862  0.86030159  0.91578785  1  0  0.079248  0  0.94692  0  0  0.09655  0  1.00532  0  0  0.097547  0  1.006067  0  0  0.093146  0.095784  0  1.00485  0
H  H21  1  0.51348567  0.85521949  0.58378737  1  0  0.080974  0  0.946105  0  0  0.098701  0  1.00364  0  0  0.099588  0  1.004405  0  0  0.094195  0.097923  0  1.003289  0
H  H22  1  0.81693465  0.08514656  0.94273163  1  0  0.056479  0  0.941617  0  0  0.073005  0  1.005272  0  0  0.072887  0  1.006257  0  0  0.100113  0.073001  0  1.00465  0
H  H23  1  0.09365937  0.08634988  0.55844079  1  0  0.059047  0  0.946205  0  0  0.073607  0  1.012861  0  0  0.073527  0  1.013784  0  0  0.100826  0.073533  0  1.012359  0
H  H24  1  0.18310971  0.91489097  0.05727909  1  0  0.056439  0  0.941463  0  0  0.072818  0  1.005277  0  0  0.072691  0  1.00627  0  0  0.100028  0.072808  0  1.004666  0
H  H25  1  0.90637878  0.91363617  0.44154357  1  0  0.058814  0  0.946195  0  0  0.073439  0  1.012835  0  0  0.073355  0  1.013775  0  0  0.100753  0.073359  0  1.012349  0
H  H26  1  0.51907362  0.27880467  0.94645868  1  0  0.054619  0  0.951673  0  0  0.067319  0  1.023471  0  0  0.067945  0  1.02292  0  0  0.096685  0.066731  0  1.024046  0
H  H27  1  0.20017306  0.27952431  0.55288285  1  0  0.05417  0  0.948329  0  0  0.067633  0  1.018676  0  0  0.067993  0  1.018483  0  0  0.096834  0.067221  0  1.018991  0
H  H28  1  0.48097156  0.72120418  0.05355360  1  0  0.054795  0  0.951473  0  0  0.067508  0  1.02322  0  0  0.068127  0  1.022681  0  0  0.096816  0.066916  0  1.023802  0
H  H29  1  0.79988615  0.72044683  0.44709413  1  0  0.054096  0  0.94824  0  0  0.067629  0  1.0186  0  0  0.067992  0  1.018406  0  0  0.0968  0.067212  0  1.018916  0
C  C30  1  0.78207752  0.37247440  0.08670164  1  0  0.59752  0  3.783047  0  0  0.551094  0  4.073758  0  0  0.580605  0  4.073999  0  0  0.242339  0.531096  0  4.072918  0
C  C31  1  0.84135263  0.37670595  0.41180003  1  0  0.595325  0  3.783106  0  0  0.549213  0  4.075258  0  0  0.578719  0  4.075527  0  0  0.242133  0.529193  0  4.07438  0
C  C32  1  0.21796411  0.62756441  0.91331516  1  0  0.597211  0  3.78244  0  0  0.55101  0  4.073014  0  0  0.580521  0  4.073245  0  0  0.242289  0.531004  0  4.072181  0
C  C33  1  0.15863895  0.62329222  0.58819465  1  0  0.595451  0  3.783023  0  0  0.549371  0  4.075077  0  0  0.578886  0  4.075336  0  0  0.242078  0.529353  0  4.074206  0
C  C34  1  0.58534553  0.28841414  0.14146609  1  0  -0.2734  0  3.648871  0  0  -0.312368  0  3.89536  0  0  -0.318156  0  3.903296  0  0  -0.164834  -0.308421  0  3.889964  0
C  C35  1  0.12000755  0.29168052  0.35740606  1  0  -0.267626  0  3.651112  0  0  -0.306741  0  3.898089  0  0  -0.312475  0  3.906212  0  0  -0.163201  -0.302711  0  3.892434  0
C  C36  1  0.41466870  0.71158379  0.85854510  1  0  -0.273283  0  3.648903  0  0  -0.312391  0  3.895604  0  0  -0.318135  0  3.90348  0  0  -0.164902  -0.308413  0  3.890167  0
C  C37  1  0.88004021  0.70828230  0.64257982  1  0  -0.267866  0  3.651291  0  0  -0.306992  0  3.898449  0  0  -0.312699  0  3.906511  0  0  -0.163319  -0.302954  0  3.892779  0
C  C38  1  0.57419968  0.14519827  0.07919752  1  0  -0.106285  0  3.629288  0  0  -0.145073  0  3.885184  0  0  -0.146088  0  3.898034  0  0  -0.159613  -0.144137  0  3.876285  0
C  C39  1  0.27569297  0.14890505  0.42141690  1  0  -0.109225  0  3.619936  0  0  -0.146073  0  3.873295  0  0  -0.147136  0  3.885949  0  0  -0.159771  -0.145154  0  3.864469  0
C  C40  1  0.42586023  0.85482036  0.92079967  1  0  -0.106112  0  3.628647  0  0  -0.145013  0  3.88482  0  0  -0.146077  0  3.897685  0  0  -0.15954  -0.144076  0  3.87591  0
C  C41  1  0.72430172  0.85105632  0.57857286  1  0  -0.10917  0  3.619928  0  0  -0.146028  0  3.873315  0  0  -0.14705  0  3.885958  0  0  -0.15976  -0.145087  0  3.864488  0
C  C42  1  0.68381641  0.20217863  0.98386738  1  0  0.054094  0  3.619912  0  0  -0.006827  0  3.888087  0  0  -0.00242  0  3.901144  0  0  -0.062274  -0.009627  0  3.879069  0
C  C43  1  0.11054542  0.20404218  0.51617973  1  0  0.054899  0  3.613862  0  0  -0.005554  0  3.881239  0  0  -0.001022  0  3.894141  0  0  -0.063002  -0.008409  0  3.87225  0
C  C44  1  0.31624598  0.79785762  0.01613833  1  0  0.054086  0  3.619172  0  0  -0.006617  0  3.887335  0  0  -0.002218  0  3.900387  0  0  -0.062161  -0.009422  0  3.878348  0
C  C45  1  0.88944122  0.79595053  0.48381409  1  0  0.055308  0  3.613407  0  0  -0.005337  0  3.88095  0  0  -0.00079  0  3.893813  0  0  -0.062994  -0.008207  0  3.871993  0
N  N46  1  0.08325133  0.84691984  0.25187550  1  0  0.675799  0  4.162677  0  0  0.703383  0  4.452749  0  0  0.731327  0  4.461958  0  0  0.085436  0.683691  0  4.445956  0
N  N47  1  0.91668770  0.15306471  0.74811549  1  0  0.675389  0  4.163022  0  0  0.70252  0  4.452618  0  0  0.731532  0  4.461656  0  0  0.085319  0.6839  0  4.445649  0
N  N48  1  0.83551273  0.31829141  0.00122021  1  0  -0.425601  0  3.2486  0  0  -0.361149  0  3.493433  0  0  -0.383486  0  3.502117  0  0  -0.416089  -0.346002  0  3.487288  0
N  N49  1  0.84334303  0.32146230  0.49783790  1  0  -0.425303  0  3.243287  0  0  -0.360333  0  3.486293  0  0  -0.382712  0  3.494875  0  0  -0.415276  -0.345132  0  3.480236  0
N  N50  1  0.16446804  0.68176494  0.99880956  1  0  -0.425525  0  3.247819  0  0  -0.361252  0  3.492741  0  0  -0.383555  0  3.501368  0  0  -0.416172  -0.34611  0  3.486616  0
N  N51  1  0.15667014  0.67852368  0.50214994  1  0  -0.425509  0  3.242759  0  0  -0.360449  0  3.485712  0  0  -0.382839  0  3.494308  0  0  -0.415167  -0.345241  0  3.479659  0
O  O52  1  0.88037039  0.48087325  0.11482423  1  0  -0.614435  0  2.07903  0  0  -0.549914  0  2.342061  0  0  -0.576438  0  2.33  0  0  -0.31183  -0.531327  0  2.349869  0
O  O53  1  0.63545077  0.48721408  0.38288517  1  0  -0.615675  0  2.065272  0  0  -0.552997  0  2.328119  0  0  -0.579531  0  2.315846  0  0  -0.312772  -0.53437  0  2.336051  0
O  O54  1  0.11954171  0.51921074  0.88518159  1  0  -0.614368  0  2.078822  0  0  -0.549919  0  2.341824  0  0  -0.576481  0  2.329766  0  0  -0.311845  -0.531321  0  2.34962  0
O  O55  1  0.36452056  0.51275121  0.61711644  1  0  -0.615622  0  2.064795  0  0  -0.553025  0  2.327654  0  0  -0.579564  0  2.315365  0  0  -0.312771  -0.534375  0  2.335527  0
O  O56  1  0.27457502  0.91290939  0.24809415  1  0  -0.460364  0  1.840475  0  0  -0.432646  0  2.084867  0  0  -0.452402  0  2.076432  0  0  -0.184666  -0.418298  0  2.090346  0
O  O57  1  0.83793498  0.94751205  0.26690871  1  0  -0.447236  0  1.788014  0  0  -0.42836  0  2.010786  0  0  -0.444135  0  2.004045  0  0  -0.171771  -0.416984  0  2.015315  0
O  O58  1  0.72535600  0.08709999  0.75187862  1  0  -0.460362  0  1.840701  0  0  -0.432146  0  2.084652  0  0  -0.452331  0  2.076148  0  0  -0.184511  -0.418255  0  2.090128  0
O  O59  1  0.16197583  0.05242636  0.73306234  1  0  -0.446978  0  1.787827  0  0  -0.428126  0  2.010615  0  0  -0.444348  0  2.003844  0  0  -0.17185  -0.417209  0  2.01512  0
O  O60  1  0.14391345  0.67537572  0.24044203  1  0  -0.501442  0  1.835863  0  0  -0.476744  0  2.090596  0  0  -0.496481  0  2.080477  0  0  -0.201882  -0.462384  0  2.097298  0
O  O61  1  0.85604985  0.32459167  0.75960299  1  0  -0.50126  0  1.835949  0  0  -0.476297  0  2.090463  0  0  -0.49651  0  2.080365  0  0  -0.201773  -0.4624  0  2.097174  0
