# generated using pymatgen
data_MgH12C15NO4
_symmetry_space_group_name_H-M   'P 1'
_cell_length_a   6.72560088
_cell_length_b   46.24089652
_cell_length_c   46.23472907
_cell_angle_alpha   119.75984735
_cell_angle_beta   92.75836272
_cell_angle_gamma   92.80288548
_symmetry_Int_Tables_number   1
_chemical_formula_structural   MgH12C15NO4
_chemical_formula_sum   'Mg6 H72 C90 N6 O24'
_cell_volume   12424.04992267
_cell_formula_units_Z   6
loop_
 _symmetry_equiv_pos_site_id
 _symmetry_equiv_pos_as_xyz
  1  'x, y, z'
loop_
 _atom_site_type_symbol
 _atom_site_label
 _atom_site_symmetry_multiplicity
 _atom_site_fract_x
 _atom_site_fract_y
 _atom_site_fract_z
 _atom_site_occupancy
 _atom_site_pbe_bader_charge
 _atom_site_pbe_bader_spin_density
 _atom_site_pbe_cm5_charge
 _atom_site_pbe_ddec_charge
 _atom_site_pbe_ddec_spin_density
 _atom_site_pbe_ddec_sum_bond_order
 _atom_site_pbe_magmom
Mg  Mg0  1  0.42316435  0.66964795  0.31165415  1  1.682518  0  0.911039  1.412747  0  1.331255  0
Mg  Mg1  1  0.69229469  0.33016403  0.68815363  1  1.682675  0  0.910272  1.411497  0  1.332543  0
Mg  Mg2  1  0.11127300  0.68831219  0.35784591  1  1.682401  0  0.910637  1.411408  0  1.332741  0
Mg  Mg3  1  0.00437523  0.31186455  0.64216143  1  1.68109  0  0.910224  1.411932  0  1.33203  0
Mg  Mg4  1  0.75336610  0.64212497  0.33032728  1  1.681821  0  0.910641  1.411968  0  1.332321  0
Mg  Mg5  1  0.36242588  0.35785850  0.66983425  1  1.682971  0  0.91022  1.411784  0  1.332034  0
H  H6  1  0.58462928  0.07637801  0.57572131  1  0.416443  0  0.313533  0.260748  0  0.961441  0
H  H7  1  0.19177614  0.04032093  0.54388221  1  0.091314  0  0.108089  0.083772  0  0.982112  0
H  H8  1  0.28476070  0.03883156  0.57956031  1  0.038695  0  0.099196  0.066191  0  0.962402  0
H  H9  1  0.37850420  0.98917072  0.53065211  1  0.036816  0  0.095991  0.091898  0  0.971154  0
H  H10  1  0.59755211  0.01537721  0.55158402  1  0.012378  0  0.089372  0.078311  0  0.979256  0
H  H11  1  0.57751973  0.03718570  0.51051869  1  0.043732  0  0.08888  0.080211  0  0.986332  0
H  H12  1  0.36825462  0.00845855  0.48904251  1  -0.000189  0  0.087935  0.077904  0  0.977938  0
H  H13  1  0.57772503  0.96098372  0.47872955  1  0.006486  0  0.088773  0.079179  0  0.987848  0
H  H14  1  0.78732479  0.98979015  0.49969615  1  0.013993  0  0.08829  0.07803  0  0.977715  0
H  H15  1  0.77615129  0.00810549  0.45746809  1  0.023509  0  0.095819  0.09215  0  0.971294  0
H  H16  1  0.55290538  0.98278210  0.43752258  1  0.012084  0  0.089172  0.077945  0  0.980705  0
H  H17  1  0.95514029  0.95607164  0.44366224  1  0.07912  0  0.108388  0.084871  0  0.982304  0
H  H18  1  0.85839843  0.95755417  0.40815362  1  0.020404  0  0.098888  0.066028  0  0.963243  0
H  H19  1  0.55652161  0.92153383  0.41364474  1  0.420474  0  0.313694  0.261482  0  0.961124  0
H  H20  1  0.90805716  0.84095436  0.41046354  1  0.064093  0  0.10553  0.108617  0  1.023194  0
H  H21  1  0.17624150  0.83111854  0.38074432  1  0.053118  0  0.102762  0.107443  0  1.01214  0
H  H22  1  0.36758896  0.88404444  0.40219481  1  0.065627  0  0.103104  0.100831  0  1.018548  0
H  H23  1  0.16320209  0.76859349  0.35982750  1  0.074098  0  0.104756  0.125568  0  1.005788  0
H  H24  1  0.88871851  0.78102766  0.39462539  1  0.105326  0  0.108608  0.112804  0  1.009721  0
H  H25  1  0.21979876  0.15730271  0.58322124  1  0.097787  0  0.105268  0.108983  0  1.023999  0
H  H26  1  0.95243235  0.16862154  0.61302625  1  0.060913  0  0.102583  0.106957  0  1.011515  0
H  H27  1  0.76842632  0.11460498  0.58830950  1  0.064325  0  0.103513  0.102248  0  1.018382  0
H  H28  1  0.95730523  0.23138598  0.63726666  1  0.074922  0  0.105009  0.126021  0  1.00798  0
H  H29  1  0.23130753  0.21828705  0.60256770  1  0.107799  0  0.108608  0.112776  0  1.010213  0
H  H30  1  0.00903068  0.42424398  0.50069097  1  0.450135  0  0.313445  0.260676  0  0.961265  0
H  H31  1  0.64846037  0.45630201  0.49675962  1  0.064595  0  0.108393  0.084784  0  0.982362  0
H  H32  1  0.70472703  0.42058752  0.45954138  1  0.048692  0  0.099266  0.067036  0  0.962604  0
H  H33  1  0.84789879  0.46937893  0.45863386  1  0.0286  0  0.096059  0.092258  0  0.971748  0
H  H34  1  0.04583649  0.44838606  0.46383428  1  0.027194  0  0.089309  0.078923  0  0.978955  0
H  H35  1  0.06758469  0.48952781  0.52672441  1  0.013893  0  0.08857  0.079785  0  0.986981  0
H  H36  1  0.88038427  0.51107578  0.51946549  1  -0.004393  0  0.087822  0.077141  0  0.977851  0
H  H37  1  0.10052555  0.52116765  0.48217438  1  0.013476  0  0.088638  0.079232  0  0.987163  0
H  H38  1  0.28868378  0.50017016  0.49005138  1  -0.014398  0  0.088253  0.078096  0  0.978844  0
H  H39  1  0.32011796  0.54250400  0.55055801  1  0.052077  0  0.095972  0.092029  0  0.971612  0
H  H40  1  0.11676109  0.56241652  0.54516667  1  0.022657  0  0.089006  0.077786  0  0.981198  0
H  H41  1  0.51263030  0.55630377  0.51222331  1  0.087965  0  0.108273  0.085054  0  0.982688  0
H  H42  1  0.45156464  0.59178616  0.54923894  1  0.020798  0  0.099207  0.066855  0  0.963135  0
H  H43  1  0.14371309  0.58629814  0.50784771  1  0.424908  0  0.313634  0.26109  0  0.960877  0
H  H44  1  0.49776643  0.58961784  0.43040828  1  0.114218  0  0.105752  0.109591  0  1.022464  0
H  H45  1  0.79588134  0.61938760  0.45049324  1  0.088366  0  0.10254  0.107076  0  1.012194  0
H  H46  1  0.96577519  0.59783129  0.48185389  1  0.055002  0  0.103028  0.101242  0  1.01811  0
H  H47  1  0.80338134  0.64028200  0.40884667  1  0.077701  0  0.104718  0.125951  0  1.005722  0
H  H48  1  0.49404102  0.60550238  0.38634190  1  0.103061  0  0.10863  0.112893  0  1.010153  0
H  H49  1  0.63743193  0.41673958  0.57422241  1  0.077969  0  0.105655  0.109469  0  1.023863  0
H  H50  1  0.33985234  0.38679802  0.55549473  1  0.067269  0  0.102464  0.106084  0  1.011255  0
H  H51  1  0.18051264  0.41154921  0.52624747  1  0.066619  0  0.103726  0.102275  0  1.01855  0
H  H52  1  0.32065764  0.36262126  0.59414171  1  0.060808  0  0.104852  0.125613  0  1.007072  0
H  H53  1  0.62961515  0.39742966  0.61584480  1  0.082484  0  0.108653  0.113269  0  1.009263  0
H  H54  1  0.50797431  0.49941207  0.92357419  1  0.458858  0  0.313493  0.260915  0  0.962034  0
H  H55  1  0.15173167  0.50355583  0.95974149  1  0.087962  0  0.108076  0.084057  0  0.982264  0
H  H56  1  0.24582691  0.54072553  0.96118429  1  0.03509  0  0.09944  0.066518  0  0.961831  0
H  H57  1  0.39020839  0.54152650  0.01082708  1  0.030802  0  0.095984  0.092152  0  0.971575  0
H  H58  1  0.58256034  0.53624314  0.98452884  1  0.010675  0  0.089465  0.078552  0  0.979802  0
H  H59  1  0.54104263  0.47340573  0.96276381  1  0.016204  0  0.088624  0.079518  0  0.986481  0
H  H60  1  0.36044753  0.48059939  0.99147674  1  0.006884  0  0.087928  0.077385  0  0.978333  0
H  H61  1  0.61727624  0.51777241  0.03897923  1  0.017297  0  0.089089  0.079424  0  0.988134  0
H  H62  1  0.79817784  0.50998652  0.01019424  1  -0.003439  0  0.088285  0.07796  0  0.977766  0
H  H63  1  0.76844869  0.44941161  0.99184106  1  0.027442  0  0.09601  0.092328  0  0.971139  0
H  H64  1  0.57076312  0.45480589  0.01721358  1  0.022729  0  0.088989  0.077763  0  0.980685  0
H  H65  1  0.99995064  0.48760659  0.04387149  1  0.08799  0  0.108482  0.085191  0  0.982723  0
H  H66  1  0.90142397  0.45061227  0.04235869  1  0.028224  0  0.099145  0.066359  0  0.963322  0
H  H67  1  0.63573320  0.49216399  0.07839035  1  0.417535  0  0.313684  0.26098  0  0.961503  0
H  H68  1  0.06794556  0.56944342  0.15905746  1  0.106311  0  0.105534  0.108993  0  1.023225  0
H  H69  1  0.34582871  0.54947565  0.16883605  1  0.052309  0  0.102564  0.107487  0  1.011853  0
H  H70  1  0.48439886  0.51800181  0.11593480  1  0.055674  0  0.102882  0.101013  0  1.018455  0
H  H71  1  0.39486846  0.59116005  0.23131721  1  0.091678  0  0.104738  0.125478  0  1.006321  0
H  H72  1  0.10815816  0.61362048  0.21897697  1  0.101662  0  0.108584  0.112795  0  1.010548  0
H  H73  1  0.06219502  0.42595132  0.84268580  1  0.103855  0  0.105201  0.108167  0  1.024708  0
H  H74  1  0.78372972  0.44443740  0.83143058  1  0.055391  0  0.102541  0.106641  0  1.011629  0
H  H75  1  0.65365123  0.47369639  0.88544166  1  0.064808  0  0.103626  0.10201  0  1.018338  0
H  H76  1  0.72604774  0.40587231  0.76865713  1  0.087373  0  0.104887  0.125596  0  1.007835  0
H  H77  1  0.01269977  0.38437859  0.78169189  1  0.101757  0  0.108666  0.113249  0  1.009742  0
C  C78  1  0.34258343  0.10078972  0.57336215  1  1.378942  0  0.226647  0.463907  0  4.183239  0
C  C79  1  0.32986724  0.04127739  0.55817916  1  0.313959  0  -0.059332  0.004315  0  3.951867  0
C  C80  1  0.45807921  0.01315750  0.53672217  1  -0.021343  0  -0.160838  -0.173265  0  3.971441  0
C  C81  1  0.50825897  0.01253274  0.50453911  1  -0.029188  0  -0.166294  -0.142274  0  3.967559  0
C  C82  1  0.64634463  0.98556868  0.48437319  1  -0.000425  0  -0.166986  -0.140856  0  3.966327  0
C  C83  1  0.69359534  0.98448912  0.45185915  1  -0.012461  0  -0.161419  -0.174597  0  3.973792  0
C  C84  1  0.81585230  0.95561512  0.42992376  1  0.329294  0  -0.059572  0.003605  0  3.953438  0
C  C85  1  0.79423999  0.89671198  0.41683319  1  1.413224  0  0.225727  0.463067  0  4.183962  0
C  C86  1  0.65858441  0.86585373  0.40657039  1  -0.045133  0  -0.02677  -0.051822  0  4.024285  0
C  C87  1  0.74788967  0.83836177  0.40372367  1  0.035343  0  -0.074923  -0.122461  0  3.934286  0
C  C88  1  0.63732685  0.80718994  0.39159163  1  -0.009154  0  -0.015911  0.051643  0  4.03574  0
C  C89  1  0.42718289  0.80360734  0.38198792  1  -0.003082  0  -0.000976  0.110225  0  4.017768  0
C  C90  1  0.33643941  0.83268566  0.38686462  1  -0.044385  0  -0.091962  -0.134966  0  3.968865  0
C  C91  1  0.44807302  0.86276528  0.39877723  1  -0.054914  0  -0.084995  -0.099306  0  3.992146  0
C  C92  1  0.32222987  0.77170126  0.36757740  1  -0.013067  0  -0.111393  -0.280984  0  3.933362  0
C  C93  1  0.41676507  0.74325884  0.36142641  1  0.576919  0  0.089823  0.363657  0  4.105153  0
C  C94  1  0.62775081  0.74730890  0.37198300  1  0.009851  0  -0.036819  -0.195532  0  3.972042  0
C  C95  1  0.73013836  0.77877465  0.38700667  1  -0.096698  0  -0.071644  -0.098346  0  3.956256  0
C  C96  1  0.74624561  0.71906877  0.36596054  1  1.522737  0  0.238667  0.675995  0  4.123874  0
C  C97  1  0.47384938  0.13247204  0.58532123  1  -0.03929  0  -0.026019  -0.04874  0  4.018972  0
C  C98  1  0.38012541  0.16025305  0.58999406  1  -0.024067  0  -0.075298  -0.124745  0  3.933369  0
C  C99  1  0.48641848  0.19203894  0.60392793  1  -0.010761  0  -0.016464  0.051444  0  4.033984  0
C  C100  1  0.69676568  0.19587104  0.61350403  1  0.060378  0  -0.000526  0.111309  0  4.020137  0
C  C101  1  0.79198525  0.16663867  0.60683275  1  0.079083  0  -0.092002  -0.136231  0  3.97241  0
C  C102  1  0.68458428  0.13597798  0.59314523  1  -0.190439  0  -0.084997  -0.100865  0  3.992097  0
C  C103  1  0.79817617  0.22812197  0.62955980  1  -0.038722  0  -0.111371  -0.281138  0  3.937036  0
C  C104  1  0.70043256  0.25664549  0.63718145  1  0.531254  0  0.089674  0.363343  0  4.105011  0
C  C105  1  0.48931505  0.25245817  0.62664489  1  -0.077473  0  -0.036818  -0.195025  0  3.966828  0
C  C106  1  0.39002135  0.22067832  0.61018247  1  0.024914  0  -0.071441  -0.099084  0  3.953039  0
C  C107  1  0.36864622  0.28075020  0.63369073  1  1.50926  0  0.239673  0.677349  0  4.120524  0
C  C108  1  0.76980332  0.42665564  0.52759437  1  1.387266  0  0.226386  0.462401  0  4.184634  0
C  C109  1  0.77183075  0.44193931  0.48332498  1  0.331934  0  -0.060108  0.001014  0  3.956035  0
C  C110  1  0.92154608  0.46331201  0.47653812  1  -0.042151  0  -0.160734  -0.174571  0  3.973642  0
C  C111  1  0.00454146  0.49549201  0.50803058  1  -0.000517  0  -0.166097  -0.140332  0  3.966115  0
C  C112  1  0.16321023  0.51554393  0.50114217  1  0.020331  0  -0.166563  -0.140962  0  3.965837  0
C  C113  1  0.24311573  0.54807685  0.53253232  1  -0.050523  0  -0.161445  -0.174199  0  3.974299  0
C  C114  1  0.38710453  0.57002118  0.52554569  1  0.327819  0  -0.059852  0.001491  0  3.955428  0
C  C115  1  0.37790715  0.58314968  0.47975406  1  1.392392  0  0.226879  0.463042  0  4.185018  0
C  C116  1  0.25227991  0.59346401  0.45922789  1  -0.025897  0  -0.02624  -0.050226  0  4.022302  0
C  C117  1  0.34432576  0.59635609  0.43458206  1  -0.085248  0  -0.075282  -0.124398  0  3.934686  0
C  C118  1  0.24581177  0.60850972  0.41557905  1  -0.027988  0  -0.016147  0.052409  0  4.036008  0
C  C119  1  0.04532342  0.61812052  0.42165370  1  -0.051509  0  -0.000425  0.109661  0  4.019281  0
C  C120  1  0.94988300  0.61324389  0.44588493  1  -0.086247  0  -0.091574  -0.133815  0  3.968416  0
C  C121  1  0.04963787  0.60128134  0.46399419  1  0.037346  0  -0.085723  -0.100857  0  3.992392  0
C  C122  1  0.95457700  0.63251199  0.40415445  1  -0.020325  0  -0.110785  -0.280843  0  3.933811  0
C  C123  1  0.05504371  0.63861414  0.38178918  1  0.594935  0  0.089476  0.363663  0  4.10611  0
C  C124  1  0.25548403  0.62806336  0.37525579  1  -0.052098  0  -0.037493  -0.197276  0  3.973367  0
C  C125  1  0.34304891  0.61309036  0.39172298  1  -0.002247  0  -0.07155  -0.098103  0  3.956434  0
C  C126  1  0.37993859  0.63405555  0.35299786  1  1.510841  0  0.238826  0.677012  0  4.122756  0
C  C127  1  0.88919702  0.41460671  0.54721875  1  -0.099994  0  -0.026393  -0.04835  0  4.018912  0
C  C128  1  0.79089088  0.40994657  0.57035488  1  0.065433  0  -0.075395  -0.124818  0  3.932567  0
C  C129  1  0.88326849  0.39599086  0.58817198  1  0.006102  0  -0.015308  0.053049  0  4.032639  0
C  C130  1  0.08394421  0.38637856  0.58237374  1  -0.018198  0  -0.001183  0.109713  0  4.020639  0
C  C131  1  0.18570200  0.39301799  0.55976349  1  0.009271  0  -0.091395  -0.133484  0  3.970843  0
C  C132  1  0.09195563  0.40673412  0.54282497  1  -0.089848  0  -0.085474  -0.102327  0  3.993739  0
C  C133  1  0.16920649  0.37034528  0.59859147  1  -0.031944  0  -0.110876  -0.280212  0  3.935451  0
C  C134  1  0.06379518  0.36276385  0.61953623  1  0.603429  0  0.089608  0.363157  0  4.104683  0
C  C135  1  0.86326654  0.37331612  0.62591135  1  -0.054283  0  -0.037498  -0.195779  0  3.969662  0
C  C136  1  0.78058218  0.38976367  0.61058141  1  -0.027068  0  -0.07157  -0.099753  0  3.95418  0
C  C137  1  0.73541919  0.36630441  0.64717984  1  1.513428  0  0.239235  0.676838  0  4.123219  0
C  C138  1  0.24161461  0.47252449  0.89923954  1  1.376415  0  0.226313  0.463587  0  4.185919  0
C  C139  1  0.28869434  0.51691548  0.95873710  1  0.312851  0  -0.059533  0.003496  0  3.952941  0
C  C140  1  0.44545087  0.52360567  0.98681445  1  -0.026619  0  -0.161183  -0.174209  0  3.973105  0
C  C141  1  0.49640940  0.49205243  0.98742488  1  -0.002561  0  -0.165828  -0.140431  0  3.966102  0
C  C142  1  0.66142801  0.49885646  0.01439973  1  0.005591  0  -0.167229  -0.141093  0  3.966275  0
C  C143  1  0.70971415  0.46742613  0.01546828  1  -0.030357  0  -0.160847  -0.173806  0  3.972537  0
C  C144  1  0.86098136  0.47433666  0.04432425  1  0.309989  0  -0.060522  0.001819  0  3.954893  0
C  C145  1  0.89852584  0.52005045  0.10328261  1  1.38293  0  0.22631  0.463426  0  4.183112  0
C  C146  1  0.79364283  0.54061244  0.13414224  1  -0.090781  0  -0.026513  -0.050613  0  4.021747  0
C  C147  1  0.91035061  0.56527768  0.16164085  1  -0.040398  0  -0.074619  -0.123021  0  3.933603  0
C  C148  1  0.83081798  0.58434225  0.19279593  1  -0.023952  0  -0.016756  0.051296  0  4.036468  0
C  C149  1  0.62418265  0.57830359  0.19635648  1  -0.015249  0  -0.000419  0.109803  0  4.018936  0
C  C150  1  0.50451933  0.55405061  0.16728067  1  -0.042656  0  -0.091287  -0.134233  0  3.968579  0
C  C151  1  0.58618730  0.53587754  0.13721425  1  -0.01405  0  -0.085687  -0.100822  0  3.992508  0
C  C152  1  0.55084631  0.59583777  0.22823647  1  -0.00958  0  -0.110934  -0.279921  0  3.933672  0
C  C153  1  0.67358201  0.61821536  0.25668762  1  0.583089  0  0.089592  0.363163  0  4.104773  0
C  C154  1  0.88056596  0.62473679  0.25265243  1  -0.021712  0  -0.037311  -0.196227  0  3.97092  0
C  C155  1  0.95181125  0.60824304  0.22121087  1  0.006219  0  -0.071244  -0.098195  0  3.956692  0
C  C156  1  0.02719369  0.64699120  0.28090099  1  1.492978  0  0.239007  0.677301  0  4.121504  0
C  C157  1  0.34115725  0.45285016  0.86754210  1  -0.08071  0  -0.025692  -0.04886  0  4.020204  0
C  C158  1  0.21958454  0.42978032  0.83974446  1  -0.001418  0  -0.075063  -0.122495  0  3.932903  0
C  C159  1  0.29415441  0.41194767  0.80796279  1  0.028864  0  -0.01575  0.051091  0  4.034285  0
C  C160  1  0.50076729  0.41767284  0.80414698  1  -0.036015  0  -0.001133  0.111345  0  4.01984  0
C  C161  1  0.62523359  0.44022667  0.83339547  1  -0.033587  0  -0.09134  -0.135454  0  3.971171  0
C  C162  1  0.54842282  0.45717358  0.86405381  1  -0.02744  0  -0.085793  -0.101258  0  3.993198  0
C  C163  1  0.57005959  0.40144208  0.77190802  1  -0.06545  0  -0.111395  -0.2814  0  3.937199  0
C  C164  1  0.44385359  0.38051416  0.74337553  1  0.622626  0  0.08972  0.364326  0  4.103835  0
C  C165  1  0.23678221  0.37420496  0.74755092  1  -0.049841  0  -0.037548  -0.19728  0  3.970252  0
C  C166  1  0.16913082  0.38957404  0.77931455  1  -0.049849  0  -0.07156  -0.099051  0  3.954298  0
C  C167  1  0.08789607  0.35290901  0.71925969  1  1.520282  0  0.239177  0.677906  0  4.120188  0
N  N168  1  0.43520828  0.07383737  0.56990631  1  -1.21134  0  -0.429536  -0.363428  0  3.573783  0
N  N169  1  0.70619283  0.92354925  0.41899641  1  -1.202329  0  -0.429385  -0.364313  0  3.575546  0
N  N170  1  0.86565599  0.43016149  0.50409120  1  -1.22898  0  -0.428646  -0.361105  0  3.574232  0
N  N171  1  0.28802873  0.58095865  0.50445620  1  -1.205029  0  -0.42961  -0.363062  0  3.575911  0
N  N172  1  0.36118164  0.49609458  0.92615517  1  -1.237242  0  -0.429162  -0.363039  0  3.575131  0
N  N173  1  0.78350913  0.49544547  0.07640518  1  -1.202592  0  -0.429354  -0.363388  0  3.57576  0
O  O174  1  0.92381253  0.72425168  0.37922712  1  -1.238735  0  -0.356933  -0.638117  0  2.14574  0
O  O175  1  0.66799714  0.68899658  0.34578020  1  -1.302718  0  -0.399802  -0.764686  0  2.421419  0
O  O176  1  0.31348841  0.71307909  0.34572820  1  -1.319231  0  -0.454146  -0.787774  0  2.320482  0
O  O177  1  0.19069710  0.27566452  0.62059124  1  -1.240929  0  -0.35635  -0.638452  0  2.146656  0
O  O178  1  0.44570620  0.31077709  0.65439835  1  -1.300589  0  -0.399391  -0.765509  0  2.417468  0
O  O179  1  0.80186874  0.28695913  0.65407977  1  -1.313069  0  -0.455541  -0.787826  0  2.322063  0
O  O180  1  0.15880248  0.09936655  0.56742024  1  -1.129979  0  -0.331815  -0.522899  0  2.070992  0
O  O181  1  0.97773846  0.89758441  0.42262362  1  -1.165694  0  -0.329259  -0.520998  0  2.076714  0
O  O182  1  0.54423256  0.62078727  0.34490952  1  -1.237782  0  -0.357106  -0.638718  0  2.145688  0
O  O183  1  0.32191639  0.65420888  0.34307173  1  -1.293188  0  -0.39954  -0.764339  0  2.42094  0
O  O184  1  0.96729465  0.65426177  0.36726492  1  -1.316932  0  -0.45411  -0.787819  0  2.32043  0
O  O185  1  0.57060072  0.37941418  0.65519117  1  -1.236963  0  -0.356179  -0.638137  0  2.147793  0
O  O186  1  0.79154665  0.34560706  0.65652049  1  -1.297  0  -0.398883  -0.765348  0  2.41847  0
O  O187  1  0.14826765  0.34590218  0.63298933  1  -1.309494  0  -0.455818  -0.788106  0  2.322503  0
O  O188  1  0.59207971  0.43264180  0.53220316  1  -1.15328  0  -0.33188  -0.522784  0  2.071308  0
O  O189  1  0.55556026  0.57735603  0.47475888  1  -1.147816  0  -0.330155  -0.521549  0  2.077682  0
O  O190  1  0.19963294  0.65509114  0.27573447  1  -1.2392  0  -0.356838  -0.638593  0  2.145268  0
O  O191  1  0.97891702  0.65689231  0.31097131  1  -1.295245  0  -0.400082  -0.765188  0  2.421083  0
O  O192  1  0.60032099  0.63274663  0.28685795  1  -1.307211  0  -0.454587  -0.788451  0  2.320771  0
O  O193  1  0.91497188  0.34490481  0.72435039  1  -1.241494  0  -0.356292  -0.638625  0  2.147193  0
O  O194  1  0.13505914  0.34350886  0.68922068  1  -1.296107  0  -0.39881  -0.765277  0  2.417265  0
O  O195  1  0.51509183  0.36702809  0.71306402  1  -1.315169  0  -0.455525  -0.787932  0  2.321168  0
O  O196  1  0.05937851  0.46791674  0.90070719  1  -1.137228  0  -0.331725  -0.522957  0  2.071908  0
O  O197  1  0.08124790  0.52494318  0.10244076  1  -1.13755  0  -0.329791  -0.521574  0  2.076079  0
