# generated using pymatgen
data_BiH13C17O3
_symmetry_space_group_name_H-M   'P 1'
_cell_length_a   9.55821750
_cell_length_b   10.24316060
_cell_length_c   15.67900000
_cell_angle_alpha   101.12550710
_cell_angle_beta   90.00000000
_cell_angle_gamma   90.00000000
_symmetry_Int_Tables_number   1
_chemical_formula_structural   BiH13C17O3
_chemical_formula_sum   'Bi4 H52 C68 O12'
_cell_volume   1506.22491274
_cell_formula_units_Z   4
loop_
 _symmetry_equiv_pos_site_id
 _symmetry_equiv_pos_as_xyz
  1  'x, y, z'
loop_
 _atom_site_type_symbol
 _atom_site_label
 _atom_site_symmetry_multiplicity
 _atom_site_fract_x
 _atom_site_fract_y
 _atom_site_fract_z
 _atom_site_occupancy
 _atom_site_hle17_bader_spin_density
 _atom_site_hle17_ddec_charge
 _atom_site_hle17_ddec_spin_density
 _atom_site_hle17_ddec_sum_bond_order
 _atom_site_hle17_magmom
 _atom_site_hse06_10hf_bader_spin_density
 _atom_site_hse06_10hf_ddec_charge
 _atom_site_hse06_10hf_ddec_spin_density
 _atom_site_hse06_10hf_ddec_sum_bond_order
 _atom_site_hse06_10hf_magmom
 _atom_site_hse06_bader_spin_density
 _atom_site_hse06_ddec_charge
 _atom_site_hse06_ddec_spin_density
 _atom_site_hse06_ddec_sum_bond_order
 _atom_site_hse06_magmom
 _atom_site_pbe_bader_charge
 _atom_site_pbe_bader_spin_density
 _atom_site_pbe_cm5_charge
 _atom_site_pbe_ddec_charge
 _atom_site_pbe_ddec_spin_density
 _atom_site_pbe_ddec_sum_bond_order
 _atom_site_pbe_magmom
Bi  Bi0  1  0.46940238  0.71508940  0.78895529  1  0  1.067624  0  2.214768  0  0  0.859818  0  2.656455  0  0  0.900645  0  2.636361  0  1.353626  0  0.582961  0.830812  0  2.670262  0
Bi  Bi1  1  0.96940460  0.78491069  0.71104804  1  0  1.067644  0  2.214763  0  0  0.859855  0  2.656453  0  0  0.900679  0  2.636362  0  1.353462  0  0.582969  0.830847  0  2.670263  0
Bi  Bi2  1  0.53059265  0.28491165  0.21104408  1  0  1.067617  0  2.214778  0  0  0.859807  0  2.656479  0  0  0.900633  0  2.636382  0  1.353666  0  0.582952  0.830797  0  2.670294  0
Bi  Bi3  1  0.03059880  0.21508539  0.28895261  1  0  1.067642  0  2.214775  0  0  0.859829  0  2.656459  0  0  0.900654  0  2.63637  0  1.353473  0  0.582957  0.830823  0  2.670256  0
H  H4  1  0.24592138  0.24297809  0.74232210  1  0  0.126516  0  0.952645  0  0  0.134627  0  1.01725  0  0  0.136844  0  1.016715  0  0.13368  0  0.112535  0.132953  0  1.017741  0
H  H5  1  0.74591628  0.25702294  0.75767701  1  0  0.126579  0  0.952728  0  0  0.134688  0  1.017304  0  0  0.136908  0  1.016771  0  0.133699  0  0.112572  0.133016  0  1.017794  0
H  H6  1  0.75407261  0.75701898  0.25767231  1  0  0.126495  0  0.952602  0  0  0.134614  0  1.017208  0  0  0.136829  0  1.016673  0  0.133483  0  0.112538  0.132941  0  1.017699  0
H  H7  1  0.25407562  0.74298209  0.24232094  1  0  0.126567  0  0.952612  0  0  0.134676  0  1.017207  0  0  0.136895  0  1.016673  0  0.133458  0  0.112569  0.133003  0  1.017699  0
H  H8  1  0.17529001  0.54219228  0.76998134  1  0  0.066419  0  0.998125  0  0  0.073017  0  1.074405  0  0  0.075437  0  1.074191  0  0.057133  0  0.08785  0.071345  0  1.074379  0
H  H9  1  0.67528804  0.95780780  0.73001880  1  0  0.06637  0  0.99818  0  0  0.072968  0  1.074452  0  0  0.075389  0  1.07424  0  0.057295  0  0.087824  0.071296  0  1.074427  0
H  H10  1  0.82470921  0.45780976  0.23001879  1  0  0.066425  0  0.998123  0  0  0.073022  0  1.074405  0  0  0.075443  0  1.07419  0  0.057331  0  0.087849  0.071349  0  1.074381  0
H  H11  1  0.32471640  0.04219226  0.26998172  1  0  0.066385  0  0.998166  0  0  0.072995  0  1.074444  0  0  0.075419  0  1.074232  0  0.057096  0  0.087828  0.071322  0  1.074422  0
H  H12  1  0.03244643  0.41986200  0.86113276  1  0  0.076059  0  0.970079  0  0  0.087753  0  1.031204  0  0  0.089733  0  1.031867  0  0.102942  0  0.091584  0.086428  0  1.030665  0
H  H13  1  0.53244760  0.08013504  0.63886457  1  0  0.075999  0  0.970139  0  0  0.0877  0  1.031271  0  0  0.089672  0  1.031941  0  0.103098  0  0.091585  0.086373  0  1.030733  0
H  H14  1  0.96755488  0.58013407  0.13886534  1  0  0.076028  0  0.970129  0  0  0.087717  0  1.031255  0  0  0.089689  0  1.031924  0  0.103067  0  0.091588  0.086392  0  1.030716  0
H  H15  1  0.46755684  0.91986104  0.36113353  1  0  0.076009  0  0.970127  0  0  0.087701  0  1.031264  0  0  0.08968  0  1.031928  0  0.103046  0  0.091572  0.086378  0  1.030721  0
H  H16  1  0.10920551  0.40908361  0.01109618  1  0  0.079695  0  0.969051  0  0  0.091847  0  1.029145  0  0  0.094217  0  1.028683  0  0.061001  0  0.095322  0.09038  0  1.029221  0
H  H17  1  0.60921296  0.09091045  0.48890141  1  0  0.079693  0  0.969031  0  0  0.091897  0  1.029065  0  0  0.094268  0  1.028604  0  0.061065  0  0.09534  0.090433  0  1.029137  0
H  H18  1  0.89079475  0.59091048  0.98890167  1  0  0.079672  0  0.969086  0  0  0.091837  0  1.029159  0  0  0.094207  0  1.028697  0  0.060956  0  0.095312  0.090373  0  1.029231  0
H  H19  1  0.39079253  0.90908065  0.51109543  1  0  0.079642  0  0.969086  0  0  0.091832  0  1.029139  0  0  0.094201  0  1.028678  0  0.060998  0  0.095307  0.090365  0  1.029216  0
H  H20  1  0.32736962  0.52462229  0.07136489  1  0  0.087774  0  0.979116  0  0  0.097771  0  1.042669  0  0  0.100902  0  1.041489  0  0.081585  0  0.093781  0.095585  0  1.043395  0
H  H21  1  0.82738335  0.97537680  0.42863831  1  0  0.087834  0  0.979019  0  0  0.097779  0  1.042622  0  0  0.10091  0  1.041444  0  0.081658  0  0.093793  0.095594  0  1.043348  0
H  H22  1  0.67262646  0.47537677  0.92863614  1  0  0.087774  0  0.979102  0  0  0.097766  0  1.042659  0  0  0.100899  0  1.041479  0  0.081599  0  0.093789  0.09558  0  1.043384  0
H  H23  1  0.17262528  0.02461829  0.57136286  1  0  0.087792  0  0.979091  0  0  0.097755  0  1.042683  0  0  0.100883  0  1.041503  0  0.081626  0  0.093784  0.09557  0  1.04341  0
H  H24  1  0.46954989  0.64785898  0.98113326  1  0  0.067119  0  0.977911  0  0  0.07943  0  1.043615  0  0  0.081369  0  1.04389  0  0.040379  0  0.090264  0.078143  0  1.043311  0
H  H25  1  0.96956153  0.85214409  0.51887618  1  0  0.067233  0  0.977755  0  0  0.079496  0  1.043501  0  0  0.081433  0  1.043776  0  0.040261  0  0.090291  0.078192  0  1.043213  0
H  H26  1  0.53044618  0.35214207  0.01886993  1  0  0.067146  0  0.97789  0  0  0.079439  0  1.043603  0  0  0.081376  0  1.043878  0  0.040278  0  0.090286  0.078152  0  1.043298  0
H  H27  1  0.03045024  0.14785796  0.48112969  1  0  0.067073  0  0.977868  0  0  0.079388  0  1.043582  0  0  0.081327  0  1.043856  0  0.040328  0  0.090249  0.078096  0  1.043283  0
H  H28  1  0.31523556  0.77335921  0.61373753  1  0  0.069426  0  0.98205  0  0  0.083139  0  1.043848  0  0  0.085311  0  1.043082  0  0.028114  0  0.089161  0.081592  0  1.044535  0
H  H29  1  0.81523987  0.72664486  0.88627268  1  0  0.069504  0  0.981984  0  0  0.083196  0  1.043821  0  0  0.085369  0  1.043053  0  0.027771  0  0.089201  0.08165  0  1.044508  0
H  H30  1  0.68475424  0.22663787  0.38626580  1  0  0.069477  0  0.981993  0  0  0.083177  0  1.043813  0  0  0.085349  0  1.043048  0  0.027522  0  0.089183  0.08163  0  1.0445  0
H  H31  1  0.18476458  0.27335719  0.11373191  1  0  0.069473  0  0.982045  0  0  0.083192  0  1.043837  0  0  0.085364  0  1.043071  0  0.027861  0  0.089175  0.081645  0  1.044526  0
H  H32  1  0.23351634  0.64891961  0.47222175  1  0  0.078186  0  0.970168  0  0  0.088833  0  1.03293  0  0  0.091048  0  1.03317  0  0.054039  0  0.091086  0.087131  0  1.033057  0
H  H33  1  0.73351961  0.85108943  0.02778590  1  0  0.078098  0  0.970189  0  0  0.088767  0  1.032936  0  0  0.090976  0  1.033192  0  0.053763  0  0.09104  0.087064  0  1.033063  0
H  H34  1  0.76647869  0.35108045  0.52777941  1  0  0.078157  0  0.970199  0  0  0.088822  0  1.032939  0  0  0.091031  0  1.033198  0  0.053969  0  0.09109  0.08712  0  1.033066  0
H  H35  1  0.26648379  0.14891759  0.97221805  1  0  0.078142  0  0.970164  0  0  0.088803  0  1.032911  0  0  0.091012  0  1.033168  0  0.054017  0  0.091098  0.087102  0  1.033036  0
H  H36  1  0.26223404  0.40197860  0.43445908  1  0  0.085573  0  0.98774  0  0  0.093117  0  1.056368  0  0  0.095923  0  1.055381  0  0.089215  0  0.092321  0.091128  0  1.057039  0
H  H37  1  0.76223836  0.09802839  0.06554333  1  0  0.085577  0  0.987745  0  0  0.09314  0  1.056352  0  0  0.095946  0  1.055364  0  0.089134  0  0.092329  0.091151  0  1.057019  0
H  H38  1  0.73776413  0.59802046  0.56554004  1  0  0.085504  0  0.987857  0  0  0.093088  0  1.05643  0  0  0.095894  0  1.055441  0  0.089238  0  0.092317  0.091077  0  1.057126  0
H  H39  1  0.23776714  0.90197763  0.93445475  1  0  0.085561  0  0.987754  0  0  0.093098  0  1.056396  0  0  0.095904  0  1.055408  0  0.089121  0  0.092303  0.091086  0  1.057092  0
H  H40  1  0.37393478  0.28220039  0.53985403  1  0  0.081904  0  0.958421  0  0  0.095898  0  1.01378  0  0  0.097909  0  1.014329  0  0.039026  0  0.094883  0.094233  0  1.013904  0
H  H41  1  0.87393492  0.21780461  0.96014622  1  0  0.081843  0  0.958542  0  0  0.095825  0  1.013915  0  0  0.097836  0  1.014464  0  0.038955  0  0.094859  0.094159  0  1.014037  0
H  H42  1  0.62606548  0.71779967  0.46014457  1  0  0.081846  0  0.958486  0  0  0.095853  0  1.013829  0  0  0.097861  0  1.014382  0  0.039043  0  0.094878  0.094193  0  1.013949  0
H  H43  1  0.12606639  0.78219743  0.03984945  1  0  0.081839  0  0.958494  0  0  0.09579  0  1.013894  0  0  0.0978  0  1.014446  0  0.038814  0  0.094856  0.094124  0  1.014019  0
H  H44  1  0.45690841  0.40647880  0.68233807  1  0  0.080571  0  0.980065  0  0  0.094967  0  1.04071  0  0  0.097257  0  1.040367  0  0.042959  0  0.092855  0.093483  0  1.040699  0
H  H45  1  0.95690645  0.09352023  0.81766334  1  0  0.08043  0  0.980348  0  0  0.094868  0  1.040942  0  0  0.097147  0  1.04061  0  0.042988  0  0.092805  0.093413  0  1.040901  0
H  H46  1  0.54309080  0.59351926  0.31766156  1  0  0.080504  0  0.980202  0  0  0.094932  0  1.04081  0  0  0.097213  0  1.040474  0  0.042944  0  0.092831  0.093487  0  1.040759  0
H  H47  1  0.04309590  0.90647584  0.18233413  1  0  0.080459  0  0.980299  0  0  0.094884  0  1.040902  0  0  0.097163  0  1.040572  0  0.043017  0  0.092776  0.093408  0  1.040882  0
H  H48  1  0.60868776  0.15638874  0.89004169  1  0  0.099183  0  0.970721  0  0  0.102681  0  1.037901  0  0  0.104673  0  1.037056  0  0.1472  0  0.120454  0.101086  0  1.038813  0
H  H49  1  0.10869181  0.34361128  0.60996240  1  0  0.099125  0  0.970832  0  0  0.102685  0  1.037942  0  0  0.104676  0  1.037097  0  0.147181  0  0.120462  0.10109  0  1.038854  0
H  H50  1  0.39130622  0.84361828  0.10995588  1  0  0.099133  0  0.970812  0  0  0.102634  0  1.037989  0  0  0.104625  0  1.037142  0  0.146983  0  0.12045  0.101038  0  1.038904  0
H  H51  1  0.89131368  0.65638778  0.39004373  1  0  0.099191  0  0.970728  0  0  0.102682  0  1.037917  0  0  0.104674  0  1.037072  0  0.14719  0  0.120455  0.101089  0  1.038825  0
H  H52  1  0.47801068  0.36020622  0.82678044  1  0  0.138822  0  0.97455  0  0  0.143103  0  1.039847  0  0  0.14671  0  1.03894  0  0.165935  0  0.110451  0.140528  0  1.040492  0
H  H53  1  0.97801185  0.13979381  0.67322237  1  0  0.13881  0  0.974609  0  0  0.143097  0  1.039898  0  0  0.1467  0  1.038992  0  0.165917  0  0.110447  0.140523  0  1.040538  0
H  H54  1  0.52197912  0.63979881  0.17321561  1  0  0.138827  0  0.974639  0  0  0.143104  0  1.03994  0  0  0.146711  0  1.039036  0  0.165899  0  0.110447  0.14053  0  1.040583  0
H  H55  1  0.02198632  0.86020525  0.32678057  1  0  0.138801  0  0.974599  0  0  0.143078  0  1.039895  0  0  0.146686  0  1.038992  0  0.165882  0  0.110442  0.140503  0  1.040541  0
C  C56  1  0.32575321  0.19599808  0.77524854  1  0  -0.106775  0  3.710165  0  0  -0.143254  0  3.97481  0  0  -0.139604  0  3.991414  0  -0.014368  0  -0.092834  -0.145371  0  3.963411  0
C  C57  1  0.82574915  0.30400393  0.72475261  1  0  -0.10692  0  3.710153  0  0  -0.143396  0  3.974803  0  0  -0.139751  0  3.991409  0  -0.014358  0  -0.092883  -0.145511  0  3.963402  0
C  C58  1  0.67424287  0.80400297  0.22474892  1  0  -0.106773  0  3.709981  0  0  -0.143266  0  3.974658  0  0  -0.139614  0  3.991258  0  -0.01389  0  -0.092839  -0.145377  0  3.963264  0
C  C59  1  0.17424692  0.69599911  0.27524828  1  0  -0.106804  0  3.710243  0  0  -0.143294  0  3.974886  0  0  -0.139648  0  3.991494  0  -0.014223  0  -0.092858  -0.14541  0  3.963485  0
C  C60  1  0.33253167  0.60310769  0.86897743  1  0  -0.260431  0  3.638837  0  0  -0.195608  0  3.876906  0  0  -0.205979  0  3.907339  0  -0.333651  0  -0.110283  -0.188361  0  3.856143  0
C  C61  1  0.83253389  0.89689438  0.63102870  1  0  -0.2605  0  3.638758  0  0  -0.195682  0  3.876822  0  0  -0.206054  0  3.907256  0  -0.3337  0  -0.110277  -0.188433  0  3.856054  0
C  C62  1  0.66746755  0.39689336  0.13102449  1  0  -0.260519  0  3.638824  0  0  -0.195703  0  3.876903  0  0  -0.206075  0  3.907337  0  -0.33364  0  -0.110309  -0.188453  0  3.85614  0
C  C63  1  0.16747160  0.10310866  0.36897411  1  0  -0.260456  0  3.638802  0  0  -0.195626  0  3.876867  0  0  -0.205999  0  3.907302  0  -0.333699  0  -0.110272  -0.188376  0  3.856102  0
C  C64  1  0.20859747  0.53943724  0.83620461  1  0  -0.066617  0  3.827959  0  0  -0.084863  0  4.065766  0  0  -0.085982  0  4.091098  0  0.003765  0  -0.10348  -0.083985  0  4.048467  0
C  C65  1  0.70859446  0.96056085  0.66379719  1  0  -0.066482  0  3.827991  0  0  -0.084741  0  4.065831  0  0  -0.085859  0  4.091159  0  0.003959  0  -0.103418  -0.083864  0  4.048533  0
C  C66  1  0.79140384  0.46056281  0.16379591  1  0  -0.066557  0  3.82787  0  0  -0.084821  0  4.065695  0  0  -0.085941  0  4.091023  0  0.003574  0  -0.103417  -0.083946  0  4.048396  0
C  C67  1  0.29140580  0.03943721  0.33620307  1  0  -0.066562  0  3.827944  0  0  -0.084838  0  4.065775  0  0  -0.085963  0  4.09111  0  0.003587  0  -0.10344  -0.083962  0  4.048478  0
C  C68  1  0.12832100  0.47017213  0.88735117  1  0  -0.079701  0  3.781643  0  0  -0.085038  0  4.018462  0  0  -0.087622  0  4.04051  0  -0.10731  0  -0.098419  -0.083475  0  4.003309  0
C  C69  1  0.62832636  0.02982789  0.61264973  1  0  -0.07967  0  3.781702  0  0  -0.085028  0  4.018535  0  0  -0.087605  0  4.040583  0  -0.107835  0  -0.09845  -0.083463  0  4.003382  0
C  C70  1  0.87167717  0.52982693  0.11264858  1  0  -0.079643  0  3.781617  0  0  -0.084967  0  4.018413  0  0  -0.087543  0  4.04046  0  -0.107385  0  -0.098419  -0.083403  0  4.003259  0
C  C71  1  0.37168227  0.97017216  0.38734951  1  0  -0.079684  0  3.781629  0  0  -0.085032  0  4.018476  0  0  -0.087616  0  4.040525  0  -0.107292  0  -0.098436  -0.083468  0  4.003322  0
C  C72  1  0.17157697  0.46401831  0.97168161  1  0  -0.074399  0  3.780735  0  0  -0.085871  0  4.020304  0  0  -0.087406  0  4.041848  0  -0.087597  0  -0.094699  -0.084711  0  4.005562  0
C  C73  1  0.67158442  0.03597674  0.52831930  1  0  -0.074384  0  3.780631  0  0  -0.085889  0  4.020175  0  0  -0.087423  0  4.041715  0  -0.087668  0  -0.094699  -0.084728  0  4.005433  0
C  C74  1  0.82842329  0.53597578  0.02831688  1  0  -0.074483  0  3.780703  0  0  -0.085963  0  4.020255  0  0  -0.087497  0  4.041797  0  -0.087553  0  -0.094758  -0.084803  0  4.005513  0
C  C75  1  0.32842316  0.96401635  0.47168034  1  0  -0.074384  0  3.780797  0  0  -0.085884  0  4.020358  0  0  -0.087418  0  4.041901  0  -0.08754  0  -0.0947  -0.084725  0  4.005618  0
C  C76  1  0.29380373  0.52890957  0.00541195  1  0  -0.084781  0  3.771531  0  0  -0.091956  0  4.012041  0  0  -0.094701  0  4.033567  0  -0.103005  0  -0.101102  -0.089727  0  3.997094  0
C  C77  1  0.79381224  0.97108852  0.49459367  1  0  -0.084857  0  3.771643  0  0  -0.092012  0  4.012196  0  0  -0.094757  0  4.033717  0  -0.103233  0  -0.101179  -0.089788  0  3.997251  0
C  C78  1  0.70619234  0.47108849  0.99458895  1  0  -0.084756  0  3.771468  0  0  -0.091945  0  4.012001  0  0  -0.094692  0  4.033526  0  -0.102977  0  -0.101106  -0.089718  0  3.99706  0
C  C79  1  0.20619744  0.02890855  0.50540966  1  0  -0.08474  0  3.771453  0  0  -0.091896  0  4.011995  0  0  -0.094637  0  4.033516  0  -0.103021  0  -0.101067  -0.089669  0  3.99705  0
C  C80  1  0.37354559  0.59858958  0.95409957  1  0  -0.072557  0  3.838818  0  0  -0.090203  0  4.075364  0  0  -0.091268  0  4.100576  0  -0.042174  0  -0.101912  -0.089276  0  4.057323  0
C  C81  1  0.87355095  0.90141448  0.54590681  1  0  -0.072644  0  3.838738  0  0  -0.090231  0  4.075241  0  0  -0.091296  0  4.100452  0  -0.041755  0  -0.101893  -0.089289  0  4.057205  0
C  C82  1  0.62645153  0.40141247  0.04590248  1  0  -0.072513  0  3.838718  0  0  -0.090128  0  4.075255  0  0  -0.091195  0  4.10047  0  -0.042181  0  -0.101894  -0.089199  0  4.057205  0
C  C83  1  0.12645559  0.09858657  0.45409638  1  0  -0.072475  0  3.838622  0  0  -0.090115  0  4.075154  0  0  -0.09118  0  4.100366  0  -0.042058  0  -0.101898  -0.089176  0  4.057101  0
C  C84  1  0.39060107  0.59868211  0.65901460  1  0  -0.258405  0  3.649025  0  0  -0.194035  0  3.889734  0  0  -0.204825  0  3.922313  0  -0.345276  0  -0.109426  -0.186706  0  3.867421  0
C  C85  1  0.89060225  0.90131996  0.84099216  1  0  -0.258362  0  3.649129  0  0  -0.193993  0  3.88983  0  0  -0.204784  0  3.92241  0  -0.345071  0  -0.109371  -0.186664  0  3.867524  0
C  C86  1  0.60939187  0.40131596  0.34098694  1  0  -0.258374  0  3.648992  0  0  -0.194006  0  3.889697  0  0  -0.204797  0  3.922275  0  -0.345407  0  -0.109443  -0.186678  0  3.867394  0
C  C87  1  0.10940324  0.09868109  0.15901039  1  0  -0.258404  0  3.649098  0  0  -0.194034  0  3.889812  0  0  -0.204825  0  3.922391  0  -0.344947  0  -0.109357  -0.186702  0  3.8675  0
C  C88  1  0.32811243  0.66546977  0.59884854  1  0  -0.089842  0  3.874859  0  0  -0.107445  0  4.112751  0  0  -0.10892  0  4.139047  0  -0.0618  0  -0.106789  -0.106704  0  4.095091  0
C  C89  1  0.82811779  0.83453430  0.90115911  1  0  -0.089944  0  3.8747  0  0  -0.107547  0  4.112624  0  0  -0.109021  0  4.138916  0  -0.061372  0  -0.106834  -0.106806  0  4.094965  0
C  C90  1  0.67187946  0.33452830  0.40115364  1  0  -0.089942  0  3.874743  0  0  -0.107546  0  4.11266  0  0  -0.109021  0  4.138953  0  -0.061117  0  -0.10678  -0.106805  0  4.094999  0
C  C91  1  0.17188665  0.16546775  0.09884229  1  0  -0.08991  0  3.874823  0  0  -0.10752  0  4.112713  0  0  -0.108995  0  4.139003  0  -0.06166  0  -0.106805  -0.106782  0  4.095059  0
C  C92  1  0.28107437  0.59515299  0.51854229  1  0  -0.077981  0  3.784442  0  0  -0.085628  0  4.025592  0  0  -0.088182  0  4.047792  0  5.2e-05  0  -0.098956  -0.083674  0  4.010605  0
C  C93  1  0.78107764  0.90485306  0.98146561  1  0  -0.077881  0  3.784283  0  0  -0.085543  0  4.02543  0  0  -0.088097  0  4.047623  0  0.000147  0  -0.098931  -0.08359  0  4.010443  0
C  C94  1  0.71891856  0.40484408  0.48145912  1  0  -0.077915  0  3.784484  0  0  -0.085577  0  4.025646  0  0  -0.088131  0  4.047835  0  0.000102  0  -0.098994  -0.083623  0  4.010653  0
C  C95  1  0.21892680  0.09515197  0.01853808  1  0  -0.077936  0  3.784418  0  0  -0.085599  0  4.025569  0  0  -0.088154  0  4.047767  0  -0.000119  0  -0.098998  -0.083644  0  4.010578  0
C  C96  1  0.29692775  0.45711030  0.49733670  1  0  -0.066824  0  3.756681  0  0  -0.079767  0  3.998849  0  0  -0.081197  0  4.020034  0  -0.118515  0  -0.096832  -0.078647  0  3.984225  0
C  C97  1  0.79693311  0.04289669  0.00266698  1  0  -0.066885  0  3.756781  0  0  -0.079839  0  3.998895  0  0  -0.08127  0  4.020084  0  -0.118177  0  -0.096818  -0.078714  0  3.984264  0
C  C98  1  0.70307042  0.54288876  0.50266305  1  0  -0.066776  0  3.756725  0  0  -0.079736  0  3.99885  0  0  -0.081167  0  4.020037  0  -0.118268  0  -0.096819  -0.078601  0  3.984243  0
C  C99  1  0.20307238  0.95711033  0.99733250  1  0  -0.066898  0  3.756635  0  0  -0.079826  0  3.99876  0  0  -0.081257  0  4.019947  0  -0.118201  0  -0.096823  -0.078686  0  3.984149  0
C  C100  1  0.36033811  0.38994556  0.55661142  1  0  -0.074601  0  3.771603  0  0  -0.079546  0  4.009179  0  0  -0.082085  0  4.031031  0  -0.065919  0  -0.095601  -0.077428  0  3.994036  0
C  C101  1  0.86034033  0.11005944  0.94339138  1  0  -0.074377  0  3.771653  0  0  -0.079294  0  4.0092  0  0  -0.08183  0  4.031049  0  -0.066111  0  -0.095524  -0.077177  0  3.994063  0
C  C102  1  0.63965902  0.61005251  0.44338820  1  0  -0.074535  0  3.771694  0  0  -0.079486  0  4.009281  0  0  -0.082021  0  4.031128  0  -0.065857  0  -0.095603  -0.077373  0  3.994145  0
C  C103  1  0.13966412  0.88994360  0.05660697  1  0  -0.07427  0  3.771563  0  0  -0.079149  0  4.009092  0  0  -0.081687  0  4.030941  0  -0.065614  0  -0.095447  -0.077031  0  3.993942  0
C  C104  1  0.40671391  0.46029020  0.63708574  1  0  -0.069655  0  3.818913  0  0  -0.090561  0  4.056749  0  0  -0.091713  0  4.08194  0  0.039523  0  -0.104034  -0.089478  0  4.038914  0
C  C105  1  0.90671613  0.03971182  0.86291796  1  0  -0.069697  0  3.819283  0  0  -0.090637  0  4.057123  0  0  -0.09178  0  4.082319  0  0.039483  0  -0.104104  -0.089582  0  4.039276  0
C  C106  1  0.59328217  0.53970688  0.36291441  1  0  -0.069596  0  3.819163  0  0  -0.090522  0  4.056983  0  0  -0.091664  0  4.082177  0  0.039266  0  -0.103981  -0.089472  0  4.039132  0
C  C107  1  0.09328518  0.96028923  0.13708140  1  0  -0.06973  0  3.819319  0  0  -0.090666  0  4.05717  0  0  -0.09181  0  4.082365  0  0.039266  0  -0.104111  -0.089591  0  4.03933  0
C  C108  1  0.23176079  0.95329466  0.75759006  1  0  0.595015  0  3.961708  0  0  0.539337  0  4.254471  0  0  0.575018  0  4.24606  0  1.557167  0  0.211574  0.514829  0  4.259805  0
C  C109  1  0.73175882  0.54670841  0.74241173  1  0  0.594916  0  3.961858  0  0  0.539252  0  4.254616  0  0  0.574932  0  4.246202  0  1.557244  0  0.211528  0.514744  0  4.259946  0
C  C110  1  0.76823738  0.04670539  0.24240918  1  0  0.594948  0  3.961924  0  0  0.539281  0  4.2547  0  0  0.574963  0  4.246285  0  1.557129  0  0.211581  0.514778  0  4.260035  0
C  C111  1  0.26824039  0.45329861  0.25758647  1  0  0.594988  0  3.9618  0  0  0.53933  0  4.254509  0  0  0.575009  0  4.246097  0  1.557346  0  0.211589  0.514819  0  4.259845  0
C  C112  1  0.32766570  0.06462561  0.78350233  1  0  0.037533  0  3.721388  0  0  0.033675  0  3.990619  0  0  0.031165  0  4.00611  0  0.367724  0  0.051739  0.035228  0  3.980124  0
C  C113  1  0.82766478  0.43537740  0.71649830  1  0  0.037655  0  3.721269  0  0  0.033775  0  3.99051  0  0  0.031267  0  4.005999  0  0.367675  0  0.0518  0.035329  0  3.980012  0
C  C114  1  0.67233247  0.93537544  0.21649385  1  0  0.037601  0  3.721364  0  0  0.033726  0  3.990634  0  0  0.031221  0  4.006118  0  0.367672  0  0.051728  0.035254  0  3.980163  0
C  C115  1  0.17233653  0.56462862  0.28350169  1  0  0.037486  0  3.721362  0  0  0.033642  0  3.990546  0  0  0.03113  0  4.006035  0  0.367514  0  0.051726  0.035195  0  3.980051  0
C  C116  1  0.51384058  0.15945521  0.85239649  1  0  0.105087  0  3.592973  0  0  0.070747  0  3.857715  0  0  0.080808  0  3.868579  0  0.321853  0  0.008683  0.064065  0  3.850545  0
C  C117  1  0.01384149  0.34054482  0.64760760  1  0  0.105091  0  3.593126  0  0  0.070705  0  3.857843  0  0  0.080768  0  3.868704  0  0.321762  0  0.008643  0.064024  0  3.850671  0
C  C118  1  0.48615131  0.84054982  0.14759956  1  0  0.105239  0  3.592844  0  0  0.070898  0  3.85759  0  0  0.080967  0  3.868447  0  0.322071  0  0.008725  0.064212  0  3.850418  0
C  C119  1  0.98615981  0.65945623  0.35239751  1  0  0.105047  0  3.59286  0  0  0.07071  0  3.857603  0  0  0.08077  0  3.868466  0  0.321892  0  0.008671  0.06403  0  3.85043  0
C  C120  1  0.44588858  0.25711547  0.81977746  1  0  -0.166928  0  3.751067  0  0  -0.188667  0  4.019263  0  0  -0.196058  0  4.038712  0  -0.003332  0  -0.114315  -0.183734  0  4.005983  0
C  C121  1  0.94588766  0.24288357  0.68022523  1  0  -0.166861  0  3.751045  0  0  -0.188615  0  4.019255  0  0  -0.196004  0  4.038704  0  -0.00319  0  -0.114285  -0.183682  0  4.005977  0
C  C122  1  0.55410541  0.74288359  0.18022038  1  0  -0.166972  0  3.750881  0  0  -0.188703  0  4.01907  0  0  -0.196098  0  4.038518  0  -0.003293  0  -0.114331  -0.18377  0  4.005791  0
C  C123  1  0.05411365  0.75711749  0.31977733  1  0  -0.166881  0  3.751009  0  0  -0.188617  0  4.019213  0  0  -0.196013  0  4.038667  0  -0.003314  0  -0.114286  -0.183685  0  4.005932  0
O  O124  1  0.25448887  0.84242632  0.78090454  1  0  -0.614664  0  2.110292  0  0  -0.538126  0  2.356893  0  0  -0.565238  0  2.349074  0  -1.180293  0  -0.287158  -0.51872  0  2.361448  0
O  O125  1  0.75449005  0.65757476  0.71909572  1  0  -0.614678  0  2.110335  0  0  -0.538145  0  2.356904  0  0  -0.565261  0  2.349094  0  -1.18031  0  -0.287195  -0.51874  0  2.361462  0
O  O126  1  0.74550720  0.15757474  0.21909482  1  0  -0.614659  0  2.110328  0  0  -0.538089  0  2.356811  0  0  -0.565203  0  2.348994  0  -1.180279  0  -0.287214  -0.518683  0  2.36137  0
O  O127  1  0.24551335  0.34242828  0.28090199  1  0  -0.614653  0  2.110283  0  0  -0.538132  0  2.35688  0  0  -0.565248  0  2.349065  0  -1.180144  0  -0.287146  -0.518717  0  2.361436  0
O  O128  1  0.12316209  0.97249937  0.71331480  1  0  -0.572709  0  2.02031  0  0  -0.499307  0  2.255779  0  0  -0.52745  0  2.250085  0  -1.15544  0  -0.278966  -0.480429  0  2.259674  0
O  O129  1  0.62316012  0.52749375  0.78668510  1  0  -0.572705  0  2.020459  0  0  -0.49927  0  2.255862  0  0  -0.527417  0  2.25017  0  -1.155498  0  -0.278931  -0.480391  0  2.259748  0
O  O130  1  0.87683922  0.02749372  0.28668101  1  0  -0.572738  0  2.020491  0  0  -0.499294  0  2.255851  0  0  -0.527443  0  2.250162  0  -1.155446  0  -0.278944  -0.480418  0  2.259742  0
O  O131  1  0.37683595  0.47250332  0.21331122  1  0  -0.572732  0  2.020385  0  0  -0.499336  0  2.255862  0  0  -0.527472  0  2.250159  0  -1.155591  0  -0.279002  -0.480462  0  2.259762  0
O  O132  1  0.44361828  0.04169478  0.83126093  1  0  -0.205586  0  2.467708  0  0  -0.129863  0  2.694094  0  0  -0.146701  0  2.702956  0  -1.068227  0  -0.122685  -0.1185  0  2.687707  0
O  O133  1  0.94362155  0.45830724  0.66874150  1  0  -0.205595  0  2.467691  0  0  -0.129865  0  2.694101  0  0  -0.146703  0  2.702959  0  -1.06823  0  -0.122706  -0.118507  0  2.687714  0
O  O134  1  0.55637570  0.95830826  0.16873869  1  0  -0.205669  0  2.467769  0  0  -0.129942  0  2.694164  0  0  -0.146786  0  2.703023  0  -1.06848  0  -0.122692  -0.118564  0  2.687773  0
O  O135  1  0.05638604  0.54169679  0.33126080  1  0  -0.205563  0  2.467557  0  0  -0.129835  0  2.69393  0  0  -0.14667  0  2.702785  0  -1.06814  0  -0.122713  -0.118478  0  2.687546  0
