# generated using pymatgen
data_FeNiH12(C7N4)2
_symmetry_space_group_name_H-M   'P 1'
_cell_length_a   6.85709793
_cell_length_b   7.01848759
_cell_length_c   8.37017010
_cell_angle_alpha   96.15966402
_cell_angle_beta   114.17830043
_cell_angle_gamma   90.00031419
_symmetry_Int_Tables_number   1
_chemical_formula_structural   FeNiH12(C7N4)2
_chemical_formula_sum   'Fe1 Ni1 H12 C14 N8'
_cell_volume   364.93793187
_cell_formula_units_Z   1
loop_
 _symmetry_equiv_pos_site_id
 _symmetry_equiv_pos_as_xyz
  1  'x, y, z'
loop_
 _atom_site_type_symbol
 _atom_site_label
 _atom_site_symmetry_multiplicity
 _atom_site_fract_x
 _atom_site_fract_y
 _atom_site_fract_z
 _atom_site_occupancy
 _atom_site_hle17_bader_spin_density
 _atom_site_hle17_ddec_charge
 _atom_site_hle17_ddec_spin_density
 _atom_site_hle17_ddec_sum_bond_order
 _atom_site_hle17_magmom
 _atom_site_hse06_10hf_bader_spin_density
 _atom_site_hse06_10hf_ddec_charge
 _atom_site_hse06_10hf_ddec_spin_density
 _atom_site_hse06_10hf_ddec_sum_bond_order
 _atom_site_hse06_10hf_magmom
 _atom_site_hse06_bader_spin_density
 _atom_site_hse06_ddec_charge
 _atom_site_hse06_ddec_spin_density
 _atom_site_hse06_ddec_sum_bond_order
 _atom_site_hse06_magmom
 _atom_site_pbe_bader_spin_density
 _atom_site_pbe_cm5_charge
 _atom_site_pbe_ddec_charge
 _atom_site_pbe_ddec_spin_density
 _atom_site_pbe_ddec_sum_bond_order
 _atom_site_pbe_magmom
Fe  Fe0  1  0.00000337  0.49999849  0.00000194  1  0  0.581258  0  3.469763  0  0  0.569937  0  3.938282  0  0  0.595731  0  3.896138  0  0  0.88872  0.559488  0  3.95841  0
Ni  Ni1  1  0.50000606  0.00000906  0.00000387  1  0  0.148005  0  3.351212  0  0  0.141086  0  3.848997  0  0  0.159257  0  3.780119  0  0  0.383506  0.136999  0  3.891766  0
H  H2  1  0.38525595  0.05856289  0.53195133  1  0  0.260635  0  0.944203  0  0  0.260346  0  0.999685  0  0  0.264538  0  0.996156  0  0  0.281982  0.257338  0  1.002252  0
H  H3  1  0.85475383  0.94304416  0.47331219  1  0  0.260485  0  0.946103  0  0  0.260529  0  1.000818  0  0  0.264716  0  0.997378  0  0  0.281943  0.257521  0  1.003333  0
H  H4  1  0.61473785  0.94143482  0.46803715  1  0  0.260663  0  0.944207  0  0  0.260339  0  0.999747  0  0  0.264529  0  0.996221  0  0  0.281954  0.257333  0  1.002314  0
H  H5  1  0.14524172  0.05695623  0.52669744  1  0  0.260462  0  0.94607  0  0  0.260521  0  1.000788  0  0  0.264703  0  0.997362  0  0  0.281932  0.257513  0  1.003297  0
H  H6  1  0.11633749  0.20131544  0.23279525  1  0  0.098977  0  0.947022  0  0  0.10771  0  1.008245  0  0  0.108894  0  1.007145  0  0  0.125232  0.106766  0  1.009302  0
H  H7  1  0.88366757  0.79868363  0.76720072  1  0  0.098942  0  0.947018  0  0  0.107716  0  1.00819  0  0  0.108901  0  1.00709  0  0  0.125227  0.106769  0  1.009244  0
H  H8  1  0.38253220  0.48034400  0.76571082  1  0  0.132718  0  0.916932  0  0  0.143969  0  0.97178  0  0  0.145496  0  0.972156  0  0  0.121204  0.142764  0  0.971673  0
H  H9  1  0.61746319  0.51965365  0.23428416  1  0  0.132708  0  0.91692  0  0  0.143969  0  0.971756  0  0  0.1455  0  0.972129  0  0  0.121166  0.142752  0  0.971677  0
H  H10  1  0.32042994  0.79503658  0.64114709  1  0  0.094223  0  0.98346  0  0  0.099982  0  1.057956  0  0  0.103128  0  1.054725  0  0  0.103185  0.09734  0  1.060858  0
H  H11  1  0.67956225  0.20496103  0.35885279  1  0  0.094219  0  0.983456  0  0  0.099966  0  1.057954  0  0  0.103114  0  1.05472  0  0  0.103193  0.097325  0  1.060854  0
H  H12  1  0.15417240  0.79429689  0.30852955  1  0  0.079489  0  0.953367  0  0  0.086379  0  1.020692  0  0  0.087899  0  1.019226  0  0  0.11813  0.085232  0  1.021898  0
H  H13  1  0.84582787  0.20570214  0.69147197  1  0  0.07955  0  0.953303  0  0  0.086423  0  1.020648  0  0  0.087942  0  1.019183  0  0  0.118138  0.085277  0  1.021853  0
C  C14  1  0.31863229  0.81367215  0.01192831  1  0  0.043376  0  3.436227  0  0  0.021299  0  3.781923  0  0  0.029115  0  3.778757  0  0  0.015757  0.013574  0  3.78454  0
C  C15  1  0.30609619  0.18578151  0.98803081  1  0  0.0425  0  3.43391  0  0  0.019794  0  3.780699  0  0  0.02787  0  3.77719  0  0  0.015109  0.012032  0  3.783377  0
C  C16  1  0.68138404  0.18632829  0.98807635  1  0  0.043345  0  3.436463  0  0  0.021275  0  3.782146  0  0  0.029094  0  3.778979  0  0  0.01577  0.013549  0  3.784762  0
C  C17  1  0.69390989  0.81420745  0.01197290  1  0  0.042691  0  3.434342  0  0  0.020014  0  3.781063  0  0  0.028055  0  3.777592  0  0  0.015287  0.012263  0  3.783732  0
C  C18  1  0.16329603  0.33059775  0.32676894  1  0  0.016748  0  3.652152  0  0  -0.0201  0  3.901514  0  0  -0.011951  0  3.917274  0  0  0.044573  -0.025847  0  3.891272  0
C  C19  1  0.83670424  0.66940131  0.67322901  1  0  0.016813  0  3.652256  0  0  -0.020095  0  3.901621  0  0  -0.011951  0  3.917389  0  0  0.044582  -0.025835  0  3.891371  0
C  C20  1  0.25364904  0.31839339  0.50779062  1  0  0.208168  0  3.819675  0  0  0.219514  0  4.067387  0  0  0.217724  0  4.091016  0  0  0.081774  0.220405  0  4.051452  0
C  C21  1  0.74635459  0.68160850  0.49221231  1  0  0.208231  0  3.819844  0  0  0.219638  0  4.067466  0  0  0.217849  0  4.091094  0  0  0.081834  0.22053  0  4.051527  0
C  C22  1  0.31189614  0.48690594  0.62399302  1  0  -0.05607  0  3.623896  0  0  -0.084541  0  3.869054  0  0  -0.080046  0  3.887847  0  0  -0.060861  -0.08752  0  3.856299  0
C  C23  1  0.68809446  0.51309168  0.37600512  1  0  -0.056123  0  3.623945  0  0  -0.084619  0  3.869089  0  0  -0.08013  0  3.887888  0  0  -0.060849  -0.087601  0  3.85633  0
C  C24  1  0.27638513  0.66109807  0.55278612  1  0  -0.130823  0  3.774051  0  0  -0.141561  0  4.030092  0  0  -0.150562  0  4.054528  0  0  -0.089962  -0.135495  0  4.013731  0
C  C25  1  0.72360899  0.33890526  0.44721615  1  0  -0.130784  0  3.774364  0  0  -0.141506  0  4.030398  0  0  -0.150514  0  4.054846  0  0  -0.089976  -0.135438  0  4.014032  0
C  C26  1  0.18546300  0.66246491  0.37080050  1  0  0.099479  0  3.675037  0  0  0.065665  0  3.932049  0  0  0.074079  0  3.949628  0  0  0.039393  0.059721  0  3.920637  0
C  C27  1  0.81453096  0.33753561  0.62919428  1  0  0.099362  0  3.675343  0  0  0.065555  0  3.932344  0  0  0.073981  0  3.949899  0  0  0.039369  0.059609  0  3.920934  0
N  N28  1  0.20309607  0.69266087  0.01597814  1  0  -0.338715  0  3.317799  0  0  -0.308952  0  3.627752  0  0  -0.324265  0  3.641825  0  0  -0.388633  -0.299003  0  3.61708  0
N  N29  1  0.18657690  0.30688915  0.98402589  1  0  -0.338252  0  3.314887  0  0  -0.308319  0  3.625121  0  0  -0.323748  0  3.639267  0  0  -0.388524  -0.298368  0  3.61447  0
N  N30  1  0.79691236  0.30734105  0.98402043  1  0  -0.338654  0  3.31807  0  0  -0.308886  0  3.628013  0  0  -0.324201  0  3.642087  0  0  -0.388645  -0.298939  0  3.617342  0
N  N31  1  0.81341645  0.69312855  0.01597511  1  0  -0.338372  0  3.315248  0  0  -0.30846  0  3.625471  0  0  -0.323884  0  3.639622  0  0  -0.388614  -0.298506  0  3.614815  0
N  N32  1  0.12907222  0.49874348  0.25821131  1  0  -0.191819  0  3.384777  0  0  -0.13845  0  3.649774  0  0  -0.159812  0  3.670754  0  0  -0.32758  -0.124646  0  3.634612  0
N  N33  1  0.87093133  0.50125702  0.74178548  1  0  -0.191811  0  3.384806  0  0  -0.138432  0  3.64977  0  0  -0.159797  0  3.670757  0  0  -0.327562  -0.12463  0  3.634612  0
N  N34  1  0.28651009  0.13601578  0.57497017  1  0  -0.645783  0  3.046868  0  0  -0.638834  0  3.282709  0  0  -0.65061  0  3.282678  0  0  -0.608883  -0.630114  0  3.282708  0
N  N35  1  0.71349153  0.86397895  0.42503020  1  0  -0.64584  0  3.047052  0  0  -0.63887  0  3.282895  0  0  -0.650641  0  3.28286  0  0  -0.608869  -0.630155  0  3.282895  0
