# generated using pymatgen
data_CuH11C9SNO4
_symmetry_space_group_name_H-M   'P 1'
_cell_length_a   8.63222456
_cell_length_b   10.67824573
_cell_length_c   11.87793099
_cell_angle_alpha   106.66138085
_cell_angle_beta   89.99839740
_cell_angle_gamma   90.00191227
_symmetry_Int_Tables_number   1
_chemical_formula_structural   CuH11C9SNO4
_chemical_formula_sum   'Cu4 H44 C36 S4 N4 O16'
_cell_volume   1048.90507149
_cell_formula_units_Z   4
loop_
 _symmetry_equiv_pos_site_id
 _symmetry_equiv_pos_as_xyz
  1  'x, y, z'
loop_
 _atom_site_type_symbol
 _atom_site_label
 _atom_site_symmetry_multiplicity
 _atom_site_fract_x
 _atom_site_fract_y
 _atom_site_fract_z
 _atom_site_occupancy
 _atom_site_hle17_bader_spin_density
 _atom_site_hle17_ddec_charge
 _atom_site_hle17_ddec_spin_density
 _atom_site_hle17_ddec_sum_bond_order
 _atom_site_hle17_magmom
 _atom_site_hse06_10hf_bader_spin_density
 _atom_site_hse06_10hf_ddec_charge
 _atom_site_hse06_10hf_ddec_spin_density
 _atom_site_hse06_10hf_ddec_sum_bond_order
 _atom_site_hse06_10hf_magmom
 _atom_site_hse06_bader_spin_density
 _atom_site_hse06_ddec_charge
 _atom_site_hse06_ddec_spin_density
 _atom_site_hse06_ddec_sum_bond_order
 _atom_site_hse06_magmom
 _atom_site_pbe_bader_spin_density
 _atom_site_pbe_cm5_charge
 _atom_site_pbe_ddec_charge
 _atom_site_pbe_ddec_spin_density
 _atom_site_pbe_ddec_sum_bond_order
 _atom_site_pbe_magmom
Cu  Cu0  1  0.52497218  0.36417404  0.40622720  1  0  0.868456  0  1.705321  0  0  0.82674  0  2.09852  0  0  0.857674  0  2.044974  0  0  0.697289  0.806109  0  2.135515  0
Cu  Cu1  1  0.02496792  0.13582923  0.09376514  1  0  0.868469  0  1.705543  0  0  0.826728  0  2.098775  0  0  0.857696  0  2.045234  0  0  0.697231  0.80602  0  2.135815  0
Cu  Cu2  1  0.47503226  0.63583018  0.59377305  1  0  0.868457  0  1.705312  0  0  0.826684  0  2.098492  0  0  0.857736  0  2.045029  0  0  0.69732  0.806172  0  2.135434  0
Cu  Cu3  1  0.97503536  0.86416811  0.90623577  1  0  0.868301  0  1.705517  0  0  0.826348  0  2.098896  0  0  0.857626  0  2.045146  0  0  0.69719  0.805912  0  2.135845  0
H  H4  1  0.51019133  0.54908728  0.79719061  1  0  0.118273  0  0.978222  0  0  0.121559  0  1.051798  0  0  0.125509  0  1.049019  0  0  0.09987  0.118916  0  1.053297  0
H  H5  1  0.01017040  0.95091461  0.70280944  1  0  0.118347  0  0.978105  0  0  0.121629  0  1.051695  0  0  0.125578  0  1.048918  0  0  0.099896  0.118983  0  1.053197  0
H  H6  1  0.48981427  0.45091396  0.20281220  1  0  0.118293  0  0.978206  0  0  0.121572  0  1.051798  0  0  0.12552  0  1.049023  0  0  0.099891  0.118931  0  1.053293  0
H  H7  1  0.98982708  0.04908742  0.29720537  1  0  0.118272  0  0.978103  0  0  0.121587  0  1.051648  0  0  0.125535  0  1.048876  0  0  0.099914  0.118947  0  1.053141  0
H  H8  1  0.59097648  0.43584508  0.94407898  1  0  0.084121  0  0.963478  0  0  0.094156  0  1.028279  0  0  0.096797  0  1.026103  0  0  0.097256  0.092155  0  1.029905  0
H  H9  1  0.09095797  0.06415584  0.55591367  1  0  0.084025  0  0.963515  0  0  0.094005  0  1.028409  0  0  0.096664  0  1.02621  0  0  0.097144  0.092001  0  1.030043  0
H  H10  1  0.40903375  0.56414644  0.05591701  1  0  0.084093  0  0.963515  0  0  0.094082  0  1.028372  0  0  0.096743  0  1.02617  0  0  0.097163  0.092076  0  1.030001  0
H  H11  1  0.90903604  0.93584231  0.44409841  1  0  0.083939  0  0.963677  0  0  0.093991  0  1.028507  0  0  0.096634  0  1.026335  0  0  0.097166  0.092052  0  1.030063  0
H  H12  1  0.74772216  0.23339918  0.88386365  1  0  0.110422  0  0.947888  0  0  0.118367  0  1.01203  0  0  0.122266  0  1.009428  0  0  0.09993  0.115473  0  1.014127  0
H  H13  1  0.24771781  0.26660242  0.61611836  1  0  0.110464  0  0.947846  0  0  0.118437  0  1.01196  0  0  0.122338  0  1.009354  0  0  0.099978  0.115541  0  1.01406  0
H  H14  1  0.25228228  0.76659250  0.11612228  1  0  0.110537  0  0.94774  0  0  0.118455  0  1.011924  0  0  0.122357  0  1.009319  0  0  0.099989  0.115557  0  1.014026  0
H  H15  1  0.75227389  0.73339871  0.38389116  1  0  0.110412  0  0.947898  0  0  0.118394  0  1.012024  0  0  0.122299  0  1.009413  0  0  0.099963  0.115499  0  1.014122  0
H  H16  1  0.83845771  0.15113392  0.67631893  1  0  0.089457  0  0.98857  0  0  0.099045  0  1.052899  0  0  0.100935  0  1.053028  0  0  0.096165  0.097807  0  1.052545  0
H  H17  1  0.33847893  0.34886105  0.82365099  1  0  0.089377  0  0.988503  0  0  0.098952  0  1.05286  0  0  0.100841  0  1.05299  0  0  0.096141  0.097713  0  1.052506  0
H  H18  1  0.16153283  0.84885876  0.32366642  1  0  0.089427  0  0.988599  0  0  0.099  0  1.052942  0  0  0.100884  0  1.053082  0  0  0.096152  0.097762  0  1.052588  0
H  H19  1  0.66151509  0.65114600  0.17635675  1  0  0.089367  0  0.988447  0  0  0.098947  0  1.052797  0  0  0.100834  0  1.052931  0  0  0.096141  0.097708  0  1.052445  0
H  H20  1  0.85051673  0.33340994  0.47182600  1  0  0.10098  0  0.900594  0  0  0.116819  0  0.954707  0  0  0.118376  0  0.953362  0  0  0.117089  0.115486  0  0.956016  0
H  H21  1  0.35051625  0.16659674  0.02815715  1  0  0.100917  0  0.900684  0  0  0.116945  0  0.954619  0  0  0.118502  0  0.95326  0  0  0.1171  0.115615  0  0.955928  0
H  H22  1  0.14948655  0.66659240  0.52816869  1  0  0.100931  0  0.900632  0  0  0.116816  0  0.954713  0  0  0.118374  0  0.95336  0  0  0.117094  0.115483  0  0.95602  0
H  H23  1  0.64949050  0.83340636  0.97185206  1  0  0.100986  0  0.90065  0  0  0.117027  0  0.954636  0  0  0.118575  0  0.953278  0  0  0.117157  0.115705  0  0.955944  0
H  H24  1  0.86745430  0.17359302  0.48831959  1  0  0.073662  0  0.927923  0  0  0.093407  0  0.98878  0  0  0.092906  0  0.989757  0  0  0.108655  0.093473  0  0.988457  0
H  H25  1  0.36746799  0.32641892  0.01166546  1  0  0.073789  0  0.927616  0  0  0.093465  0  0.98865  0  0  0.092951  0  0.989618  0  0  0.108686  0.093532  0  0.988325  0
H  H26  1  0.13254551  0.82641026  0.51167787  1  0  0.073615  0  0.927872  0  0  0.093353  0  0.988769  0  0  0.09285  0  0.989743  0  0  0.108635  0.093416  0  0.988451  0
H  H27  1  0.63253414  0.67358417  0.98834458  1  0  0.073842  0  0.927643  0  0  0.093619  0  0.988606  0  0  0.093106  0  0.989562  0  0  0.108748  0.093691  0  0.988295  0
H  H28  1  0.71452028  0.18861598  0.32764115  1  0  0.267717  0  0.908188  0  0  0.259952  0  0.964432  0  0  0.265452  0  0.96145  0  0  0.298033  0.256342  0  0.965874  0
H  H29  1  0.21451562  0.31139460  0.17233997  1  0  0.267725  0  0.908221  0  0  0.259913  0  0.964445  0  0  0.265412  0  0.96147  0  0  0.297968  0.256302  0  0.965884  0
H  H30  1  0.28548185  0.81138146  0.67235306  1  0  0.267663  0  0.908325  0  0  0.259844  0  0.964536  0  0  0.265346  0  0.96155  0  0  0.29803  0.256237  0  0.965988  0
H  H31  1  0.78547724  0.68860558  0.82766761  1  0  0.267694  0  0.908296  0  0  0.259871  0  0.964537  0  0  0.265367  0  0.961567  0  0  0.297956  0.25627  0  0.965991  0
H  H32  1  0.49557232  0.13468270  0.49909258  1  0  0.070389  0  0.932045  0  0  0.085481  0  1.000624  0  0  0.085696  0  1.001043  0  0  0.107897  0.085092  0  1.000561  0
H  H33  1  0.99558634  0.36531355  0.00088392  1  0  0.070463  0  0.931999  0  0  0.085521  0  1.000566  0  0  0.085723  0  1.000978  0  0  0.107933  0.085133  0  1.000495  0
H  H34  1  0.50442980  0.86531861  0.50090520  1  0  0.070442  0  0.93207  0  0  0.08551  0  1.00066  0  0  0.08572  0  1.001079  0  0  0.107889  0.085123  0  1.000598  0
H  H35  1  0.00441925  0.63467894  0.99911317  1  0  0.070338  0  0.931964  0  0  0.085431  0  1.000536  0  0  0.08563  0  1.000953  0  0  0.107912  0.085054  0  1.000464  0
H  H36  1  0.65191336  0.02779087  0.43844370  1  0  0.068903  0  0.953098  0  0  0.089597  0  1.01251  0  0  0.089237  0  1.014495  0  0  0.105367  0.089902  0  1.010737  0
H  H37  1  0.15193464  0.47220680  0.06152093  1  0  0.068778  0  0.953236  0  0  0.089347  0  1.012756  0  0  0.088982  0  1.014739  0  0  0.105223  0.08965  0  1.010981  0
H  H38  1  0.34808528  0.97220661  0.56154800  1  0  0.068942  0  0.953053  0  0  0.089613  0  1.012482  0  0  0.089248  0  1.014466  0  0  0.10534  0.089922  0  1.01071  0
H  H39  1  0.84806749  0.52778668  0.93847558  1  0  0.068797  0  0.953212  0  0  0.089359  0  1.012784  0  0  0.088995  0  1.014768  0  0  0.10525  0.089672  0  1.011016  0
H  H40  1  0.42870939  0.94408181  0.31672264  1  0  0.13104  0  0.948189  0  0  0.146506  0  1.005633  0  0  0.14808  0  1.007106  0  0  0.111868  0.145388  0  1.00477  0
H  H41  1  0.92873496  0.55591989  0.18324534  1  0  0.130995  0  0.94842  0  0  0.146472  0  1.005826  0  0  0.148045  0  1.007299  0  0  0.111825  0.14535  0  1.004963  0
H  H42  1  0.57128230  0.05592347  0.68327284  1  0  0.131006  0  0.948314  0  0  0.146475  0  1.005762  0  0  0.148049  0  1.007236  0  0  0.111835  0.14536  0  1.004895  0
H  H43  1  0.07125326  0.44407282  0.81673749  1  0  0.130971  0  0.948464  0  0  0.146496  0  1.005839  0  0  0.148069  0  1.007314  0  0  0.111859  0.145385  0  1.004971  0
H  H44  1  0.54918344  0.01725244  0.23216639  1  0  0.139714  0  0.908295  0  0  0.155128  0  0.957014  0  0  0.157366  0  0.957321  0  0  0.116199  0.153511  0  0.956917  0
H  H45  1  0.04920304  0.48276539  0.26780748  1  0  0.139725  0  0.908533  0  0  0.155151  0  0.957183  0  0  0.157389  0  0.957488  0  0  0.116128  0.153531  0  0.957085  0
H  H46  1  0.45080479  0.98275773  0.76782957  1  0  0.139655  0  0.908476  0  0  0.155115  0  0.957121  0  0  0.157353  0  0.957425  0  0  0.116173  0.153501  0  0.95702  0
H  H47  1  0.95079213  0.51724674  0.73218900  1  0  0.13969  0  0.908485  0  0  0.155131  0  0.957155  0  0  0.157371  0  0.957457  0  0  0.116154  0.15352  0  0.957052  0
C  C48  1  0.63141615  0.41462561  0.65306835  1  0  0.295434  0  3.813446  0  0  0.282704  0  4.07968  0  0  0.292851  0  4.09798  0  0  0.071126  0.275212  0  4.066977  0
C  C49  1  0.13141750  0.08537726  0.84691977  1  0  0.295657  0  3.813419  0  0  0.282797  0  4.079816  0  0  0.292941  0  4.098132  0  0  0.071161  0.275305  0  4.067109  0
C  C50  1  0.36859177  0.58537866  0.34692854  1  0  0.295484  0  3.81347  0  0  0.282725  0  4.079783  0  0  0.292868  0  4.098087  0  0  0.071124  0.275232  0  4.067081  0
C  C51  1  0.86858810  0.91462482  0.15309169  1  0  0.295183  0  3.813877  0  0  0.282367  0  4.080299  0  0  0.292504  0  4.098626  0  0  0.070946  0.274873  0  4.067596  0
C  C52  1  0.58416867  0.46307266  0.77105414  1  0  -0.191999  0  3.716875  0  0  -0.222276  0  3.984722  0  0  -0.227894  0  4.004594  0  0  -0.115097  -0.21777  0  3.969655  0
C  C53  1  0.08416327  0.03692810  0.72893944  1  0  -0.192134  0  3.717056  0  0  -0.222371  0  3.984949  0  0  -0.227996  0  4.004834  0  0  -0.115059  -0.217863  0  3.969878  0
C  C54  1  0.41583577  0.53692765  0.22894505  1  0  -0.192089  0  3.717121  0  0  -0.222327  0  3.984919  0  0  -0.227946  0  4.004802  0  0  -0.115109  -0.217816  0  3.96984  0
C  C55  1  0.91583770  0.96307008  0.27107012  1  0  -0.191925  0  3.71688  0  0  -0.222206  0  3.98486  0  0  -0.227815  0  4.004709  0  0  -0.114994  -0.217699  0  3.969807  0
C  C56  1  0.62840003  0.39859834  0.85281076  1  0  -0.059498  0  3.807869  0  0  -0.071102  0  4.070458  0  0  -0.070033  0  4.089871  0  0  -0.098174  -0.071505  0  4.056902  0
C  C57  1  0.12838651  0.10140833  0.64718098  1  0  -0.059332  0  3.8078  0  0  -0.070905  0  4.070391  0  0  -0.069846  0  4.089803  0  0  -0.098074  -0.071304  0  4.056824  0
C  C58  1  0.37160905  0.60139909  0.14718429  1  0  -0.059406  0  3.807872  0  0  -0.070978  0  4.070422  0  0  -0.069923  0  4.089835  0  0  -0.098056  -0.071372  0  4.056858  0
C  C59  1  0.87161214  0.89859276  0.35283106  1  0  -0.059207  0  3.807542  0  0  -0.070842  0  4.070209  0  0  -0.069776  0  4.089636  0  0  -0.098091  -0.071283  0  4.056627  0
C  C60  1  0.71799746  0.28496631  0.81987942  1  0  -0.084256  0  3.753404  0  0  -0.1164  0  4.025724  0  0  -0.119613  0  4.046083  0  0  -0.108764  -0.113985  0  4.012082  0
C  C61  1  0.21800359  0.21503852  0.68010575  1  0  -0.084366  0  3.753327  0  0  -0.11654  0  4.025673  0  0  -0.119752  0  4.046032  0  0  -0.108799  -0.114126  0  4.012035  0
C  C62  1  0.28199771  0.71502918  0.18011426  1  0  -0.084334  0  3.753157  0  0  -0.116461  0  4.025471  0  0  -0.119674  0  4.045835  0  0  -0.108775  -0.114045  0  4.011831  0
C  C63  1  0.78199274  0.78496063  0.31990492  1  0  -0.084318  0  3.753294  0  0  -0.116494  0  4.025633  0  0  -0.119709  0  4.045989  0  0  -0.108769  -0.114082  0  4.012013  0
C  C64  1  0.76698148  0.23865465  0.70331380  1  0  -0.108081  0  3.787954  0  0  -0.122816  0  4.038925  0  0  -0.123323  0  4.061313  0  0  -0.098496  -0.122679  0  4.023996  0
C  C65  1  0.26699317  0.26134538  0.79667075  1  0  -0.107954  0  3.787741  0  0  -0.122699  0  4.038724  0  0  -0.123209  0  4.061114  0  0  -0.098488  -0.122564  0  4.023795  0
C  C66  1  0.23301833  0.76134085  0.29667905  1  0  -0.10796  0  3.787642  0  0  -0.122668  0  4.03861  0  0  -0.123176  0  4.061001  0  0  -0.098448  -0.122533  0  4.02368  0
C  C67  1  0.73301011  0.73865667  0.20334238  1  0  -0.108163  0  3.787434  0  0  -0.122876  0  4.038403  0  0  -0.12339  0  4.060795  0  0  -0.098609  -0.122737  0  4.023474  0
C  C68  1  0.72850069  0.30294437  0.62004493  1  0  -0.052954  0  3.748104  0  0  -0.041726  0  3.993583  0  0  -0.046862  0  4.019133  0  0  -0.03405  -0.038176  0  3.976507  0
C  C69  1  0.22851465  0.19704993  0.87993804  1  0  -0.053065  0  3.74838  0  0  -0.041721  0  3.993876  0  0  -0.046867  0  4.019422  0  0  -0.034152  -0.038164  0  3.976797  0
C  C70  1  0.27149680  0.69705504  0.37994897  1  0  -0.053159  0  3.748  0  0  -0.041932  0  3.993582  0  0  -0.04707  0  4.019126  0  0  -0.034185  -0.038384  0  3.976505  0
C  C71  1  0.77149095  0.80294728  0.12007127  1  0  -0.052627  0  3.747767  0  0  -0.04127  0  3.993344  0  0  -0.046413  0  4.018872  0  0  -0.034014  -0.037713  0  3.976275  0
C  C72  1  0.78744170  0.25596979  0.49673168  1  0  0.006184  0  3.646842  0  0  -0.056326  0  3.90481  0  0  -0.050997  0  3.915846  0  0  -0.067616  -0.059918  0  3.897789  0
C  C73  1  0.28745347  0.24403650  0.00325014  1  0  0.006146  0  3.646994  0  0  -0.056651  0  3.905139  0  0  -0.051286  0  3.916136  0  0  -0.067684  -0.060256  0  3.898115  0
C  C74  1  0.21255811  0.74403159  0.50326191  1  0  0.006408  0  3.646701  0  0  -0.056249  0  3.904696  0  0  -0.050908  0  3.915705  0  0  -0.067567  -0.059823  0  3.897665  0
C  C75  1  0.71254749  0.75596365  0.99675911  1  0  0.005985  0  3.646732  0  0  -0.057042  0  3.905165  0  0  -0.051652  0  3.916128  0  0  -0.067843  -0.060643  0  3.898182  0
C  C76  1  0.57187093  0.10097909  0.42224511  1  0  0.043762  0  3.663954  0  0  -0.019994  0  3.931811  0  0  -0.015369  0  3.944727  0  0  -0.075777  -0.022864  0  3.922763  0
C  C77  1  0.07188508  0.39901962  0.07772820  1  0  0.043949  0  3.664328  0  0  -0.019704  0  3.931969  0  0  -0.015027  0  3.944797  0  0  -0.075644  -0.022579  0  3.922921  0
C  C78  1  0.42812772  0.89902225  0.57775099  1  0  0.043646  0  3.664186  0  0  -0.020142  0  3.931905  0  0  -0.015494  0  3.944785  0  0  -0.075769  -0.023015  0  3.922876  0
C  C79  1  0.92811588  0.60097190  0.92226779  1  0  0.044169  0  3.664084  0  0  -0.019553  0  3.931837  0  0  -0.014893  0  3.94471  0  0  -0.075633  -0.022429  0  3.922832  0
C  C80  1  0.47863155  0.03717232  0.31239852  1  0  -0.329305  0  3.622905  0  0  -0.360226  0  3.869437  0  0  -0.366941  0  3.878684  0  0  -0.153754  -0.356057  0  3.863393  0
C  C81  1  0.97864940  0.46283532  0.18757887  1  0  -0.329467  0  3.623492  0  0  -0.360323  0  3.869676  0  0  -0.367039  0  3.878893  0  0  -0.153678  -0.356144  0  3.863623  0
C  C82  1  0.52136014  0.96283485  0.68760084  1  0  -0.329198  0  3.623222  0  0  -0.360168  0  3.869731  0  0  -0.366887  0  3.878959  0  0  -0.153665  -0.355989  0  3.863674  0
C  C83  1  0.02134577  0.53716312  0.81241477  1  0  -0.32944  0  3.623536  0  0  -0.360341  0  3.869792  0  0  -0.367056  0  3.879015  0  0  -0.153742  -0.356165  0  3.863738  0
S  S84  1  0.31692357  0.13450525  0.29383035  1  0  1.310655  0  5.569723  0  0  1.222699  0  6.096118  0  0  1.269252  0  6.073786  0  0  0.498631  1.190859  0  6.110392  0
S  S85  1  0.81692627  0.36551061  0.20614586  1  0  1.311075  0  5.56955  0  0  1.223068  0  6.095973  0  0  1.269637  0  6.073627  0  0  0.49873  1.191217  0  6.110242  0
S  S86  1  0.68307044  0.86551049  0.70618647  1  0  1.310757  0  5.569823  0  0  1.222799  0  6.09621  0  0  1.269369  0  6.073876  0  0  0.498638  1.190962  0  6.110499  0
S  S87  1  0.18307701  0.63448304  0.79383975  1  0  1.311012  0  5.569635  0  0  1.222962  0  6.096115  0  0  1.269533  0  6.073776  0  0  0.498638  1.191125  0  6.110421  0
N  N88  1  0.66080888  0.21398727  0.40864011  1  0  -0.404688  0  3.281908  0  0  -0.344053  0  3.558657  0  0  -0.36182  0  3.566131  0  0  -0.500279  -0.333062  0  3.55376  0
N  N89  1  0.16081090  0.28601628  0.09133771  1  0  -0.404749  0  3.282332  0  0  -0.343872  0  3.558816  0  0  -0.361667  0  3.566293  0  0  -0.500063  -0.332878  0  3.553916  0
N  N90  1  0.33919325  0.78601215  0.59135295  1  0  -0.404803  0  3.28232  0  0  -0.343803  0  3.558689  0  0  -0.361531  0  3.56615  0  0  -0.500216  -0.332806  0  3.553798  0
N  N91  1  0.83918774  0.71398004  0.90866547  1  0  -0.404902  0  3.282168  0  0  -0.343884  0  3.558663  0  0  -0.361674  0  3.566124  0  0  -0.499976  -0.332894  0  3.553819  0
O  O92  1  0.58499284  0.46981194  0.56978475  1  0  -0.556951  0  2.211992  0  0  -0.513308  0  2.525997  0  0  -0.531237  0  2.507026  0  0  -0.344017  -0.500407  0  2.538794  0
O  O93  1  0.08498873  0.03019469  0.93021124  1  0  -0.556966  0  2.211684  0  0  -0.513329  0  2.525831  0  0  -0.531305  0  2.506853  0  0  -0.344092  -0.500428  0  2.53864  0
O  O94  1  0.41501508  0.53019429  0.43021266  1  0  -0.556947  0  2.211797  0  0  -0.513372  0  2.525909  0  0  -0.531295  0  2.506938  0  0  -0.344066  -0.500467  0  2.538707  0
O  O95  1  0.91502498  0.96980054  0.06979922  1  0  -0.556809  0  2.211808  0  0  -0.513154  0  2.525922  0  0  -0.531126  0  2.506954  0  0  -0.343944  -0.500248  0  2.538731  0
O  O96  1  0.38655276  0.25889863  0.27763661  1  0  -0.691472  0  2.037663  0  0  -0.637929  0  2.328446  0  0  -0.66034  0  2.307506  0  0  -0.35963  -0.622219  0  2.341664  0
O  O97  1  0.88653234  0.24110810  0.22233150  1  0  -0.69173  0  2.038244  0  0  -0.638185  0  2.329089  0  0  -0.660646  0  2.308183  0  0  -0.359602  -0.622458  0  2.342301  0
O  O98  1  0.61344125  0.74110566  0.72235945  1  0  -0.691534  0  2.037844  0  0  -0.637978  0  2.328639  0  0  -0.660389  0  2.307731  0  0  -0.359643  -0.622265  0  2.341865  0
O  O99  1  0.11347558  0.75889022  0.77766885  1  0  -0.691757  0  2.038265  0  0  -0.63819  0  2.329156  0  0  -0.660654  0  2.308232  0  0  -0.359606  -0.62248  0  2.342403  0
O  O100  1  0.22305865  0.15934483  0.39975040  1  0  -0.64448  0  1.914897  0  0  -0.595486  0  2.159645  0  0  -0.61611  0  2.145858  0  0  -0.334813  -0.581491  0  2.169005  0
O  O101  1  0.72306206  0.34069438  0.10023235  1  0  -0.644449  0  1.914638  0  0  -0.59541  0  2.15937  0  0  -0.616023  0  2.145565  0  0  -0.334795  -0.581416  0  2.168728  0
O  O102  1  0.77694347  0.84066923  0.60024828  1  0  -0.644558  0  1.914304  0  0  -0.595606  0  2.159066  0  0  -0.616237  0  2.145276  0  0  -0.334839  -0.581606  0  2.168428  0
O  O103  1  0.27694585  0.65929322  0.89976342  1  0  -0.644488  0  1.914284  0  0  -0.595443  0  2.159041  0  0  -0.616072  0  2.145249  0  0  -0.334839  -0.581437  0  2.168398  0
O  O104  1  0.24075260  0.06162315  0.18439311  1  0  -0.655426  0  1.983043  0  0  -0.610417  0  2.247274  0  0  -0.63186  0  2.230661  0  0  -0.334922  -0.59558  0  2.258076  0
O  O105  1  0.74076686  0.43838890  0.31559376  1  0  -0.65555  0  1.982663  0  0  -0.610617  0  2.247008  0  0  -0.632072  0  2.230412  0  0  -0.335071  -0.595795  0  2.257814  0
O  O106  1  0.75923678  0.93837803  0.81561305  1  0  -0.655406  0  1.983576  0  0  -0.610334  0  2.247766  0  0  -0.631787  0  2.231139  0  0  -0.334902  -0.595514  0  2.25858  0
O  O107  1  0.25922947  0.56161343  0.68440177  1  0  -0.655484  0  1.983151  0  0  -0.610465  0  2.24743  0  0  -0.631907  0  2.23084  0  0  -0.334898  -0.595631  0  2.258239  0
