# generated using pymatgen
data_EuH35C39N6O7
_symmetry_space_group_name_H-M   'P 1'
_cell_length_a   9.89127637
_cell_length_b   9.89141207
_cell_length_c   22.57430857
_cell_angle_alpha   94.65320027
_cell_angle_beta   100.38480470
_cell_angle_gamma   113.79880675
_symmetry_Int_Tables_number   1
_chemical_formula_structural   EuH35C39N6O7
_chemical_formula_sum   'Eu2 H70 C78 N12 O14'
_cell_volume   1958.46860524
_cell_formula_units_Z   2
loop_
 _symmetry_equiv_pos_site_id
 _symmetry_equiv_pos_as_xyz
  1  'x, y, z'
loop_
 _atom_site_type_symbol
 _atom_site_label
 _atom_site_symmetry_multiplicity
 _atom_site_fract_x
 _atom_site_fract_y
 _atom_site_fract_z
 _atom_site_occupancy
 _atom_site_pbe_bader_charge
 _atom_site_pbe_bader_spin_density
 _atom_site_pbe_cm5_charge
 _atom_site_pbe_ddec_charge
 _atom_site_pbe_ddec_spin_density
 _atom_site_pbe_ddec_sum_bond_order
 _atom_site_pbe_magmom
Eu  Eu0  1  0.15408317  0.39478407  0.79891768  1  2.188756  0  1.487358  2.008483  0  2.256141  0
Eu  Eu1  1  0.90413061  0.64481281  0.29891783  1  2.189437  0  1.487297  2.007577  0  2.256836  0
H  H2  1  0.69099193  0.80046811  0.83026342  1  0.048549  0  0.096932  0.147499  0  0.999724  0
H  H3  1  0.52980896  0.13923119  0.33025303  1  0.054516  0  0.097204  0.148113  0  0.999646  0
H  H4  1  0.65411873  0.95370076  0.85641244  1  0.042414  0  0.089763  0.134805  0  1.019293  0
H  H5  1  0.40272902  0.20224659  0.35640976  1  0.049423  0  0.089898  0.13493  0  1.019787  0
H  H6  1  0.57176482  0.85447328  0.77931492  1  0.06165  0  0.09853  0.146901  0  1.004558  0
H  H7  1  0.42483514  0.20749909  0.27931087  1  0.060834  0  0.098504  0.147384  0  1.003814  0
H  H8  1  0.49523714  0.88511561  0.92338892  1  0.052091  0  0.087463  0.112095  0  1.067205  0
H  H9  1  0.53828303  0.42810173  0.42338363  1  0.011973  0  0.087556  0.112154  0  1.068433  0
H  H10  1  0.39946413  0.95486426  0.99022415  1  0.076516  0  0.102688  0.100339  0  1.011155  0
H  H11  1  0.53534440  0.59074851  0.49021103  1  0.056305  0  0.102691  0.100908  0  1.01056  0
H  H12  1  0.34748388  0.01098773  0.08847401  1  0.124689  0  0.102472  0.110862  0  1.07889  0
H  H13  1  0.57747080  0.74099346  0.58845872  1  0.129873  0  0.102374  0.110775  0  1.078959  0
H  H14  1  0.12358621  0.53566560  0.09268385  1  0.06522  0  0.107898  0.113162  0  1.004582  0
H  H15  1  0.05701776  0.96906665  0.59268794  1  0.058888  0  0.107586  0.112638  0  1.003451  0
H  H16  1  0.16986041  0.48223066  0.99117231  1  0.096352  0  0.110112  0.114667  0  1.012549  0
H  H17  1  0.00894600  0.82127896  0.49117848  1  0.094422  0  0.11019  0.115041  0  1.012297  0
H  H18  1  0.30799745  0.05415913  0.17211134  1  0.125093  0  0.123326  0.125282  0  1.033789  0
H  H19  1  0.61793669  0.86408075  0.67210758  1  0.132932  0  0.122982  0.12503  0  1.033749  0
H  H20  1  0.16149855  0.00927199  0.26838999  1  0.145425  0  0.125968  0.121576  0  1.008603  0
H  H21  1  0.75908561  0.10686275  0.76838473  1  0.14415  0  0.12621  0.122308  0  1.007966  0
H  H22  1  0.04713531  0.58828874  0.16742785  1  0.144135  0  0.14408  0.110022  0  0.991264  0
H  H23  1  0.07910731  0.12032226  0.66741737  1  0.160715  0  0.144224  0.110435  0  0.991583  0
H  H24  1  0.36218646  0.00822510  0.74361878  1  0.044139  0  0.095305  0.140188  0  0.991256  0
H  H25  1  0.23526022  0.38137761  0.24357684  1  0.060065  0  0.095304  0.139986  0  0.991754  0
H  H26  1  0.47397909  0.04494184  0.81885599  1  0.025047  0  0.089749  0.137137  0  1.027011  0
H  H27  1  0.27404113  0.34496174  0.31882311  1  0.024064  0  0.089572  0.136659  0  1.027077  0
H  H28  1  0.51333359  0.18941486  0.77247123  1  0.045492  0  0.096094  0.148305  0  0.997985  0
H  H29  1  0.08309361  0.25909999  0.27251262  1  0.068962  0  0.095955  0.148018  0  0.998844  0
H  H30  1  0.25022074  0.96677502  0.85928827  1  0.030962  0  0.089254  0.120123  0  1.059626  0
H  H31  1  0.39251965  0.60906856  0.35928453  1  0.039611  0  0.089204  0.119879  0  1.059443  0
H  H32  1  0.08686080  0.81313101  0.89475192  1  0.089962  0  0.103655  0.10399  0  1.02349  0
H  H33  1  0.58162608  0.80790710  0.39474449  1  0.092341  0  0.103854  0.103935  0  1.02313  0
H  H34  1  0.93557884  0.66855932  0.96183124  1  0.079241  0  0.10438  0.110702  0  1.027568  0
H  H35  1  0.79328274  0.02627401  0.46182354  1  0.085664  0  0.104304  0.110791  0  1.028294  0
H  H36  1  0.82614525  0.03498207  0.01321168  1  0.046842  0  0.101448  0.105173  0  1.011832  0
H  H37  1  0.47822522  0.18703993  0.51322510  1  0.058337  0  0.10161  0.105258  0  1.011166  0
H  H38  1  0.97716451  0.17906464  0.94286077  1  0.089522  0  0.106163  0.107  0  1.031852  0
H  H39  1  0.26378791  0.96565737  0.44288047  1  0.097255  0  0.106257  0.107609  0  1.030614  0
H  H40  1  0.60344786  0.82837201  0.02368747  1  0.11658  0  0.113389  0.10764  0  1.069536  0
H  H41  1  0.69528763  0.42022166  0.52372213  1  0.125064  0  0.113193  0.107244  0  1.06968  0
H  H42  1  0.53122616  0.64818153  0.11206583  1  0.085061  0  0.117101  0.111951  0  1.012042  0
H  H43  1  0.96391285  0.58084075  0.61207804  1  0.109275  0  0.117142  0.112144  0  1.014283  0
H  H44  1  0.92250418  0.64604182  0.06411394  1  0.11937  0  0.124505  0.079754  0  1.062693  0
H  H45  1  0.91812517  0.14163278  0.56409001  1  0.105107  0  0.124585  0.079863  0  1.062521  0
H  H46  1  0.10335374  0.82427537  0.72646518  1  0.066324  0  0.092222  0.139747  0  1.010215  0
H  H47  1  0.40219660  0.62310812  0.22646638  1  0.062876  0  0.092155  0.139832  0  1.009955  0
H  H48  1  0.94597072  0.82936678  0.75396342  1  0.046817  0  0.08991  0.1379  0  1.015781  0
H  H49  1  0.42461244  0.80799147  0.25396523  1  0.048058  0  0.090077  0.138391  0  1.016762  0
H  H50  1  0.91358165  0.70937839  0.68488885  1  0.039855  0  0.090028  0.131133  0  1.022203  0
H  H51  1  0.47551886  0.77129569  0.18489065  1  0.013764  0  0.089814  0.131078  0  1.023758  0
H  H52  1  0.80827690  0.63751476  0.80527122  1  0.04186  0  0.089666  0.117791  0  1.066935  0
H  H53  1  0.66777342  0.99698896  0.30527011  1  0.049552  0  0.089746  0.11825  0  1.066095  0
H  H54  1  0.61865947  0.53606267  0.84232470  1  0.076785  0  0.109125  0.109863  0  1.02162  0
H  H55  1  0.80627009  0.22365379  0.34233101  1  0.08716  0  0.108917  0.109789  0  1.020521  0
H  H56  1  0.47479908  0.48280399  0.92151602  1  0.101454  0  0.112707  0.115384  0  1.030287  0
H  H57  1  0.93872117  0.44670902  0.42152178  1  0.088816  0  0.112592  0.114976  0  1.031346  0
H  H58  1  0.70265213  0.21585775  0.99012415  1  0.031149  0  0.098004  0.098731  0  1.028418  0
H  H59  1  0.27432761  0.28751266  0.49011738  1  0.031878  0  0.098251  0.099378  0  1.027791  0
H  H60  1  0.85534507  0.27978164  0.91089346  1  0.102459  0  0.105589  0.107626  0  1.042574  0
H  H61  1  0.13116724  0.05558038  0.41088895  1  0.111118  0  0.105605  0.10767  0  1.042529  0
H  H62  1  0.29457892  0.33984191  0.96483780  1  0.159119  0  0.126463  0.130646  0  1.038822  0
H  H63  1  0.12501433  0.67025794  0.46484093  1  0.155928  0  0.126402  0.131094  0  1.038933  0
H  H64  1  0.21799551  0.26895409  0.07434243  1  0.079297  0  0.108816  0.100075  0  1.003501  0
H  H65  1  0.30540723  0.85635428  0.57435100  1  0.080018  0  0.108943  0.100375  0  1.002372  0
H  H66  1  0.64721248  0.27607722  0.07851724  1  0.107503  0  0.130192  0.093539  0  0.996714  0
H  H67  1  0.30247738  0.43132139  0.57851975  1  0.107509  0  0.130137  0.093895  0  0.995896  0
H  H68  1  0.12961412  0.40517545  0.66059339  1  0.634345  0  0.279201  0.338699  0  1.03353  0
H  H69  1  0.75543872  0.53101312  0.16059389  1  0.635347  0  0.278946  0.337787  0  1.034759  0
H  H70  1  0.29564110  0.50879983  0.70187643  1  0.627026  0  0.316304  0.401981  0  0.898766  0
H  H71  1  0.69307091  0.40624261  0.20185986  1  0.627258  0  0.315739  0.401365  0  0.89978  0
C  C72  1  0.60357903  0.84331232  0.82718414  1  -0.09141  0  -0.24409  -0.488236  0  3.911699  0
C  C73  1  0.48387941  0.22355960  0.32717757  1  -0.107002  0  -0.244331  -0.489975  0  3.911754  0
C  C74  1  0.46572013  0.73151182  0.84431292  1  0.765345  0  0.131251  0.519088  0  4.016267  0
C  C75  1  0.61280452  0.37855487  0.34430689  1  0.76465  0  0.131169  0.520583  0  4.013334  0
C  C76  1  0.42618770  0.77190352  0.89810434  1  -0.081953  0  -0.157095  -0.469123  0  3.971549  0
C  C77  1  0.62620846  0.47187687  0.39810037  1  -0.022943  0  -0.156967  -0.46954  0  3.972823  0
C  C78  1  0.31441248  0.66938736  0.92311759  1  0.765186  0  0.122237  0.395681  0  4.106263  0
C  C79  1  0.75373024  0.60867259  0.42311535  1  0.730722  0  0.122734  0.395929  0  4.103765  0
C  C80  1  0.29045682  0.71313125  0.98389282  1  -0.030933  0  -0.015778  -0.006698  0  3.953174  0
C  C81  1  0.77075734  0.69341092  0.48388922  1  0.003169  0  -0.016053  -0.005273  0  3.953511  0
C  C82  1  0.34074582  0.86167432  0.01256489  1  -0.039838  0  -0.080592  -0.083803  0  3.976934  0
C  C83  1  0.65087723  0.67180510  0.51255574  1  -0.036414  0  -0.080975  -0.086307  0  3.976383  0
C  C84  1  0.31076366  0.89424199  0.06856305  1  0.00135  0  -0.095575  -0.17049  0  3.958306  0
C  C85  1  0.67430933  0.75779463  0.56855205  1  0.000239  0  -0.095007  -0.169634  0  3.957121  0
C  C86  1  0.23068538  0.77768776  0.09756448  1  0.240446  0  0.09936  0.172216  0  4.029076  0
C  C87  1  0.81986463  0.86687134  0.59755877  1  0.275189  0  0.099773  0.174003  0  4.026621  0
C  C88  1  0.18265152  0.62826628  0.07023322  1  -0.039929  0  -0.096801  -0.19471  0  4.026672  0
C  C89  1  0.94196165  0.88756081  0.57023348  1  -0.088765  0  -0.097046  -0.194266  0  4.025633  0
C  C90  1  0.21038436  0.59753968  0.01371936  1  -0.009649  0  -0.077673  -0.076171  0  3.966207  0
C  C91  1  0.91617626  0.80330758  0.51371999  1  -0.003191  0  -0.077882  -0.078227  0  3.968845  0
C  C92  1  0.23302171  0.95245581  0.18530605  1  0.298153  0  -0.00043  -0.112707  0  3.894681  0
C  C93  1  0.73282990  0.95226179  0.68530066  1  0.256128  0  -0.000105  -0.111553  0  3.894718  0
C  C94  1  0.16060903  0.92914961  0.23244655  1  0.370123  0  0.012381  0.001118  0  3.991942  0
C  C95  1  0.80326676  0.07181790  0.73244065  1  0.422325  0  0.012864  0.000952  0  3.990857  0
C  C96  1  0.09876567  0.70867404  0.18192814  1  0.987679  0  0.151644  0.115122  0  3.924171  0
C  C97  1  0.97322386  0.08317213  0.68191955  1  0.95567  0  0.152157  0.115629  0  3.92484  0
C  C98  1  0.42381008  0.09477643  0.78483693  1  -0.063708  0  -0.245252  -0.479377  0  3.898072  0
C  C99  1  0.19007350  0.36102420  0.28482889  1  -0.10281  0  -0.245234  -0.478708  0  3.899404  0
C  C100  1  0.31510826  0.14627460  0.80793853  1  0.772252  0  0.128039  0.515766  0  4.027323  0
C  C101  1  0.16166825  0.49281865  0.30793503  1  0.766642  0  0.128052  0.51571  0  4.028451  0
C  C102  1  0.23165796  0.06367158  0.84782541  1  -0.015059  0  -0.15769  -0.463217  0  3.963129  0
C  C103  1  0.28415415  0.61615878  0.34782320  1  -0.019491  0  -0.15745  -0.462762  0  3.964078  0
C  C104  1  0.13005253  0.10209316  0.87357318  1  0.736437  0  0.119773  0.392823  0  4.111898  0
C  C105  1  0.27148057  0.74350529  0.37357605  1  0.738366  0  0.119674  0.392417  0  4.110424  0
C  C106  1  0.04291272  0.00785355  0.91443187  1  -0.005132  0  -0.014569  -0.000822  0  3.949771  0
C  C107  1  0.40657611  0.87150703  0.41443719  1  -0.019921  0  -0.014758  -0.001742  0  3.950196  0
C  C108  1  0.03174878  0.86415394  0.92070675  1  -0.031599  0  -0.079123  -0.083372  0  3.96704  0
C  C109  1  0.55655754  0.88896434  0.42070459  1  -0.003111  0  -0.079369  -0.08282  0  3.967043  0
C  C110  1  0.94616294  0.78150989  0.95871023  1  -0.005807  0  -0.091459  -0.168838  0  3.983237  0
C  C111  1  0.67720811  0.01255616  0.45870775  1  -0.025946  0  -0.09115  -0.168401  0  3.983473  0
C  C112  1  0.87145149  0.84288090  0.99165826  1  0.303599  0  0.096431  0.174985  0  4.014747  0
C  C113  1  0.64878082  0.12020233  0.49166118  1  0.321158  0  0.096874  0.175829  0  4.013641  0
C  C114  1  0.88176079  0.98650898  0.98624721  1  -0.046368  0  -0.097443  -0.178693  0  4.012973  0
C  C115  1  0.49973398  0.10446605  0.48625736  1  -0.055169  0  -0.097592  -0.17845  0  4.010528  0
C  C116  1  0.96629320  0.06685429  0.94773918  1  -0.040965  0  -0.081975  -0.08458  0  3.984024  0
C  C117  1  0.38087847  0.98142118  0.44775095  1  -0.063943  0  -0.082493  -0.085507  0  3.98289  0
C  C118  1  0.65968121  0.76681089  0.04656428  1  0.289819  0  -0.007165  -0.120588  0  3.937576  0
C  C119  1  0.77975464  0.38687459  0.54658155  1  0.277367  0  -0.006637  -0.117629  0  3.935618  0
C  C120  1  0.62513156  0.67637074  0.08984404  1  0.435249  0  0.002193  -0.01757  0  3.988902  0
C  C121  1  0.91349292  0.46471173  0.58985180  1  0.407341  0  0.001903  -0.019028  0  3.992258  0
C  C122  1  0.82521208  0.66887829  0.06652318  1  0.955365  0  0.135616  0.088173  0  3.932724  0
C  C123  1  0.89768048  0.24132305  0.56651170  1  0.977366  0  0.136024  0.08916  0  3.934463  0
C  C124  1  0.98766777  0.75713675  0.73106517  1  -0.113857  0  -0.249689  -0.481778  0  3.913893  0
C  C125  1  0.47393698  0.74339005  0.23106617  1  -0.083117  0  -0.24959  -0.482837  0  3.915892  0
C  C126  1  0.98529657  0.63021456  0.76451776  1  0.796585  0  0.127568  0.52151  0  4.020554  0
C  C127  1  0.63431287  0.77921274  0.26452047  1  0.751264  0  0.127071  0.522004  0  4.01872  0
C  C128  1  0.87582463  0.57584340  0.79957998  1  -0.071724  0  -0.158509  -0.465934  0  3.97162  0
C  C129  1  0.72375401  0.92374938  0.29958354  1  -0.045802  0  -0.157854  -0.466692  0  3.972923  0
C  C130  1  0.85394105  0.45084875  0.82879527  1  0.754156  0  0.123068  0.400039  0  4.090356  0
C  C131  1  0.87796837  0.97484905  0.32880295  1  0.78384  0  0.123362  0.401289  0  4.091907  0
C  C132  1  0.75221785  0.41512249  0.87256339  1  -0.056534  0  -0.014991  -0.003048  0  3.941955  0
C  C133  1  0.95746752  0.12035094  0.37256670  1  -0.018319  0  -0.015998  -0.004633  0  3.944486  0
C  C134  1  0.64283487  0.47020490  0.87558249  1  0.051741  0  -0.071666  -0.072656  0  3.938252  0
C  C135  1  0.90539422  0.23274341  0.37558638  1  -0.04784  0  -0.071402  -0.072232  0  3.937871  0
C  C136  1  0.55861098  0.43818411  0.91998222  1  -0.056947  0  -0.084202  -0.158555  0  3.944651  0
C  C137  1  0.98181833  0.36137111  0.41998499  1  -0.0393  0  -0.083987  -0.158565  0  3.945911  0
C  C138  1  0.58073637  0.34800375  0.96195011  1  0.283837  0  0.097945  0.173943  0  4.027753  0
C  C139  1  0.11397941  0.38122505  0.46195059  1  0.317705  0  0.09733  0.174294  0  4.026127  0
C  C140  1  0.68747598  0.28954001  0.95873237  1  -0.012486  0  -0.103367  -0.192143  0  4.030762  0
C  C141  1  0.16923985  0.27128009  0.45872904  1  -0.035716  0  -0.103152  -0.192887  0  4.030093  0
C  C142  1  0.77193243  0.32371441  0.91462419  1  -0.019626  0  -0.085649  -0.090544  0  3.977161  0
C  C143  1  0.09095239  0.14271264  0.41462226  1  -2.3e-05  0  -0.08539  -0.09026  0  3.9775  0
C  C144  1  0.35570717  0.31781199  0.00498711  1  0.251619  0  -0.002236  -0.107569  0  3.912906  0
C  C145  1  0.18720001  0.64928662  0.50499091  1  0.254035  0  -0.002246  -0.108999  0  3.915498  0
C  C146  1  0.32043435  0.28211340  0.05954761  1  0.420398  0  -0.013963  -0.040451  0  4.056076  0
C  C147  1  0.27745277  0.73912076  0.55955442  1  0.414379  0  -0.013895  -0.039979  0  4.055472  0
C  C148  1  0.53826018  0.27904197  0.06319513  1  0.947019  0  0.128969  0.087944  0  3.972893  0
C  C149  1  0.28418266  0.52494642  0.56319928  1  0.932588  0  0.129234  0.087418  0  3.972474  0
N  N150  1  0.07672803  0.77700944  0.22955901  1  -1.210361  0  -0.403234  -0.382272  0  3.480892  0
N  N151  1  0.95251709  0.15283492  0.72955064  1  -1.222581  0  -0.403925  -0.382785  0  3.480667  0
N  N152  1  0.19270612  0.81053121  0.15283523  1  -1.276059  0  -0.22665  0.000695  0  3.794739  0
N  N153  1  0.84228326  0.96012224  0.65282805  1  -1.266279  0  -0.227658  -0.00246  0  3.796791  0
N  N154  1  0.72997811  0.61724037  0.10225333  1  -1.191453  0  -0.321574  -0.273513  0  3.40231  0
N  N155  1  0.98505466  0.37228515  0.60224359  1  -1.191649  0  -0.321449  -0.273708  0  3.403744  0
N  N156  1  0.78785709  0.76136774  0.03183944  1  -1.254673  0  -0.228091  0.010184  0  3.806789  0
N  N157  1  0.77047778  0.24397954  0.53184317  1  -1.267243  0  -0.228954  0.006865  0  3.807422  0
N  N158  1  0.43519629  0.25875496  0.09581727  1  -1.180543  0  -0.355161  -0.328106  0  3.311616  0
N  N159  1  0.33708078  0.66062895  0.59582310  1  -1.1587  0  -0.355695  -0.329233  0  3.313383  0
N  N160  1  0.49552190  0.31476977  0.00728844  1  -1.25908  0  -0.230207  -0.002415  0  3.798904  0
N  N161  1  0.19255002  0.51177890  0.50729100  1  -1.264611  0  -0.229584  -0.000321  0  3.797511  0
O  O162  1  0.39560214  0.60438706  0.80911214  1  -1.16683  0  -0.373985  -0.587792  0  2.239785  0
O  O163  1  0.70472134  0.41347730  0.30910370  1  -1.155593  0  -0.374339  -0.588264  0  2.237692  0
O  O164  1  0.23182595  0.53252874  0.89791336  1  -1.16662  0  -0.392086  -0.590955  0  2.34845  0
O  O165  1  0.86538803  0.66605535  0.39791293  1  -1.162903  0  -0.391946  -0.59078  0  2.345577  0
O  O166  1  0.30421634  0.26008894  0.78894385  1  -1.170598  0  -0.383535  -0.597098  0  2.263602  0
O  O167  1  0.02884947  0.48470137  0.28894134  1  -1.168035  0  -0.38349  -0.596581  0  2.263219  0
O  O168  1  0.10714262  0.21864280  0.86579808  1  -1.166209  0  -0.392621  -0.59838  0  2.364077  0
O  O169  1  0.14714484  0.75862787  0.36580246  1  -1.161611  0  -0.392447  -0.597806  0  2.362153  0
O  O170  1  0.08321358  0.57989647  0.75871806  1  -1.168592  0  -0.385743  -0.603867  0  2.234879  0
O  O171  1  0.67882931  0.67549227  0.25872015  1  -1.172377  0  -0.385729  -0.603602  0  2.233592  0
O  O172  1  0.92137143  0.36574913  0.82261832  1  -1.168245  0  -0.387298  -0.59323  0  2.344079  0
O  O173  1  0.95688263  0.90123204  0.32263129  1  -1.176119  0  -0.387444  -0.593682  0  2.34362  0
O  O174  1  0.21183051  0.40958599  0.69618419  1  -1.270799  0  -0.634955  -0.840208  0  2.125838  0
O  O175  1  0.78660551  0.48436214  0.19617715  1  -1.271984  0  -0.634231  -0.839052  0  2.126299  0
