# generated using pymatgen
data_ZnH30C34I4NO14
_symmetry_space_group_name_H-M   'P 1'
_cell_length_a   16.13936775
_cell_length_b   18.47134566
_cell_length_c   19.43824670
_cell_angle_alpha   90.26344443
_cell_angle_beta   88.45398619
_cell_angle_gamma   89.80542806
_symmetry_Int_Tables_number   1
_chemical_formula_structural   ZnH30C34I4NO14
_chemical_formula_sum   'Zn2 H60 C68 I8 N2 O28'
_cell_volume   5792.64266354
_cell_formula_units_Z   2
loop_
 _symmetry_equiv_pos_site_id
 _symmetry_equiv_pos_as_xyz
  1  'x, y, z'
loop_
 _atom_site_type_symbol
 _atom_site_label
 _atom_site_symmetry_multiplicity
 _atom_site_fract_x
 _atom_site_fract_y
 _atom_site_fract_z
 _atom_site_occupancy
 _atom_site_pbe_bader_charge
 _atom_site_pbe_bader_spin_density
 _atom_site_pbe_cm5_charge
 _atom_site_pbe_ddec_charge
 _atom_site_pbe_ddec_spin_density
 _atom_site_pbe_ddec_sum_bond_order
 _atom_site_pbe_magmom
Zn  Zn0  1  0.50505091  0.57764049  0.50624536  1  1.323215  0  0.687737  0.874871  0  2.313387  0
Zn  Zn1  1  0.50289413  0.41735845  0.50025405  1  1.301338  0  0.68408  0.873363  0  2.312612  0
H  H2  1  0.62717836  0.34300125  0.73181731  1  0.027348  0  0.092359  0.088152  0  0.989834  0
H  H3  1  0.60285733  0.37807050  0.64810029  1  0.076617  0  0.095096  0.105495  0  1.019213  0
H  H4  1  0.57569510  0.28732106  0.67041374  1  0.020958  0  0.094193  0.094961  0  1.003798  0
H  H5  1  0.28964981  0.51152374  0.33999600  1  0.063496  0  0.091431  0.094541  0  0.992503  0
H  H6  1  0.25083864  0.42129638  0.34900396  1  0.063618  0  0.088382  0.093918  0  1.028334  0
H  H7  1  0.25594137  0.46273079  0.26516310  1  0.071713  0  0.091784  0.09114  0  1.008113  0
H  H8  1  0.70317456  0.51658038  0.23501196  1  0.030986  0  0.094021  0.092772  0  0.998765  0
H  H9  1  0.66815102  0.48090227  0.31706832  1  0.062456  0  0.095113  0.101061  0  0.997758  0
H  H10  1  0.72972698  0.56132213  0.31384521  1  0.061668  0  0.099872  0.102125  0  0.99767  0
H  H11  1  0.63327107  0.61547570  0.67977944  1  0.069475  0  0.092678  0.098485  0  1.011823  0
H  H12  1  0.62489609  0.65541563  0.76499536  1  0.028965  0  0.088375  0.080041  0  1.007525  0
H  H13  1  0.59526311  0.70618234  0.69086044  1  0.053578  0  0.09675  0.102043  0  0.987613  0
H  H14  1  0.38608939  0.31598913  0.78667902  1  0.068582  0  0.09223  0.089814  0  1.026212  0
H  H15  1  0.33881461  0.36491807  0.85788779  1  0.021992  0  0.087363  0.078903  0  1.019143  0
H  H16  1  0.39192325  0.28111379  0.87271377  1  0.052919  0  0.101449  0.105384  0  0.978149  0
H  H17  1  0.32300456  0.32261208  0.13652908  1  0.040082  0  0.102243  0.105545  0  0.978596  0
H  H18  1  0.38567123  0.32733767  0.21154830  1  0.079231  0  0.09318  0.091015  0  1.011062  0
H  H19  1  0.43183325  0.34109694  0.12713232  1  0.032828  0  0.089281  0.084067  0  1.009605  0
H  H20  1  0.60468200  0.67458258  0.20639928  1  0.068538  0  0.091831  0.088347  0  1.035654  0
H  H21  1  0.52810823  0.68143485  0.14098719  1  0.039602  0  0.087734  0.079615  0  1.011592  0
H  H22  1  0.63629772  0.68142614  0.11717334  1  0.047706  0  0.103003  0.107825  0  0.976521  0
H  H23  1  0.35975250  0.64969218  0.86040996  1  0.054331  0  0.089944  0.088832  0  1.032151  0
H  H24  1  0.42030745  0.69199828  0.79203357  1  0.057797  0  0.092511  0.092012  0  1.032984  0
H  H25  1  0.43053790  0.72136891  0.87964012  1  0.042335  0  0.099189  0.103319  0  0.980364  0
H  H26  1  0.23474253  0.50640196  0.00107551  1  0.071014  0  0.097739  0.100402  0  1.015568  0
H  H27  1  0.26251897  0.44830382  0.92955316  1  0.060282  0  0.089819  0.083153  0  1.016123  0
H  H28  1  0.20685422  0.53083638  0.91515419  1  0.064144  0  0.102682  0.106097  0  0.979333  0
H  H29  1  0.66779168  0.37360758  0.01059656  1  0.074201  0  0.095313  0.095157  0  1.020655  0
H  H30  1  0.58088343  0.33859366  0.05881827  1  0.037508  0  0.092781  0.087322  0  1.00194  0
H  H31  1  0.67353544  0.36270594  0.10242388  1  0.057336  0  0.100976  0.102994  0  0.981194  0
H  H32  1  0.31850629  0.64893895  0.01932469  1  0.055989  0  0.093763  0.090426  0  1.016017  0
H  H33  1  0.38065231  0.65887849  0.09427128  1  0.019503  0  0.089871  0.083591  0  1.009972  0
H  H34  1  0.27050545  0.64778395  0.10393974  1  0.019805  0  0.103609  0.107541  0  0.976441  0
H  H35  1  0.69099776  0.51888387  0.97576669  1  0.021163  0  0.095544  0.095631  0  0.999723  0
H  H36  1  0.64384625  0.55355378  0.89978476  1  0.063433  0  0.095142  0.09765  0  1.002474  0
H  H37  1  0.71913897  0.48181922  0.89244205  1  0.028056  0  0.10291  0.10607  0  0.979575  0
H  H38  1  0.32876514  0.63943369  0.65573095  1  0.066666  0  0.114843  0.129506  0  0.96089  0
H  H39  1  0.29851438  0.69747835  0.58759715  1  0.03516  0  0.088715  0.087898  0  1.024167  0
H  H40  1  0.33760589  0.73602647  0.66603687  1  0.054134  0  0.096917  0.095384  0  1.014652  0
H  H41  1  0.70138420  0.24194201  0.40526886  1  0.053115  0  0.092276  0.093713  0  1.018821  0
H  H42  1  0.70161804  0.32287339  0.45862192  1  0.086802  0  0.08993  0.102916  0  1.036304  0
H  H43  1  0.70809958  0.33037806  0.36691700  1  0.062684  0  0.106328  0.117646  0  0.978516  0
H  H44  1  0.69739156  0.67385060  0.35988377  1  0.09491  0  0.107177  0.116992  0  0.997391  0
H  H45  1  0.69742133  0.66856125  0.45178170  1  0.10605  0  0.08859  0.099993  0  1.039809  0
H  H46  1  0.68781983  0.75576205  0.41003773  1  0.0369  0  0.091117  0.089394  0  1.019547  0
H  H47  1  0.29514227  0.24938027  0.58861630  1  0.089856  0  0.092435  0.09137  0  1.024893  0
H  H48  1  0.29634613  0.33053785  0.53643480  1  0.102462  0  0.087951  0.098208  0  1.050587  0
H  H49  1  0.29397699  0.33773177  0.62826927  1  0.069912  0  0.112216  0.126192  0  0.961264  0
H  H50  1  0.35880234  0.93287147  0.58097342  1  0.072621  0  0.091157  0.098391  0  1.015807  0
H  H51  1  0.29557656  0.85371648  0.57167374  1  0.066128  0  0.089423  0.086136  0  1.01771  0
H  H52  1  0.31729131  0.88828592  0.65580013  1  0.045808  0  0.110012  0.118451  0  0.965511  0
H  H53  1  0.57791707  0.22368336  0.31312499  1  0.060169  0  0.103208  0.108937  0  1.007637  0
H  H54  1  0.50633930  0.14921230  0.31484875  1  0.066431  0  0.085729  0.085055  0  1.031013  0
H  H55  1  0.61429169  0.13309203  0.29520274  1  0.061613  0  0.109662  0.119004  0  0.965985  0
H  H56  1  0.48204211  0.81245807  0.31580748  1  0.040555  0  0.088651  0.089316  0  1.019998  0
H  H57  1  0.57477403  0.85972262  0.29004015  1  0.052  0  0.107381  0.116883  0  0.968562  0
H  H58  1  0.57921375  0.76497309  0.31139520  1  0.08062  0  0.101391  0.106678  0  1.023031  0
H  H59  1  0.37684495  0.13728531  0.69418294  1  0.062571  0  0.108443  0.118164  0  0.966503  0
H  H60  1  0.41695635  0.22641528  0.67676924  1  0.082152  0  0.103814  0.110106  0  1.026252  0
H  H61  1  0.48516641  0.14918786  0.67411512  1  0.069203  0  0.086462  0.086289  0  1.029357  0
C  C62  1  0.49251869  0.50395008  0.37408936  1  1.619746  0  0.22026  0.636892  0  4.162157  0
C  C63  1  0.51247227  0.49786816  0.63326975  1  1.586333  0  0.213264  0.612314  0  4.161196  0
C  C64  1  0.50613021  0.49634376  0.71070343  1  -0.001679  0  -0.033366  -0.221983  0  3.933486  0
C  C65  1  0.48530237  0.50504071  0.29709504  1  0.013898  0  -0.024835  -0.190317  0  3.989645  0
C  C66  1  0.39691821  0.52080129  0.96946055  1  0.578862  0  0.066481  0.094692  0  4.049423  0
C  C67  1  0.53694075  0.47257053  0.03900950  1  0.444535  0  0.071192  0.100824  0  4.062255  0
C  C68  1  0.39943012  0.52616735  0.04161592  1  0.440583  0  0.06873  0.103372  0  4.046578  0
C  C69  1  0.53639704  0.47207839  0.96692605  1  0.563645  0  0.067533  0.101566  0  4.044028  0
C  C70  1  0.46883922  0.50159006  0.07686795  1  0.11853  0  -0.020699  -0.079411  0  4.04456  0
C  C71  1  0.46623890  0.49507368  0.93178895  1  0.029862  0  -0.018756  -0.073635  0  4.049328  0
C  C72  1  0.45460543  0.72546730  0.55227988  1  1.084461  0  0.21204  0.30809  0  4.07483  0
C  C73  1  0.54657533  0.26656089  0.44963671  1  1.0763  0  0.207997  0.305639  0  4.058578  0
C  C74  1  0.53849526  0.72670062  0.45205312  1  1.153878  0  0.20624  0.307362  0  4.075029  0
C  C75  1  0.45008824  0.26809005  0.54154088  1  1.154855  0  0.20812  0.301446  0  4.067357  0
C  C76  1  0.44738038  0.80163330  0.55224624  1  0.650014  0  0.063718  0.043879  0  4.082433  0
C  C77  1  0.54269172  0.19060068  0.44478017  1  0.583695  0  0.067034  0.049454  0  4.085717  0
C  C78  1  0.52810580  0.80173929  0.44487631  1  0.521125  0  0.064105  0.046059  0  4.089858  0
C  C79  1  0.44972034  0.19198948  0.54475244  1  0.531247  0  0.066841  0.048773  0  4.089052  0
C  C80  1  0.48452248  0.83969717  0.49734494  1  -0.065628  0  -0.029454  -0.089153  0  4.102177  0
C  C81  1  0.49514084  0.15310753  0.49433771  1  0.000194  0  -0.025615  -0.081307  0  4.098206  0
C  C82  1  0.54803863  0.95697913  0.53206660  1  -0.137111  0  -0.047399  -0.005192  0  3.839447  0
C  C83  1  0.43158620  0.03585398  0.45757230  1  -0.186412  0  -0.050374  -0.012122  0  3.857668  0
C  C84  1  0.42894747  0.95991653  0.45794897  1  -0.226075  0  -0.050656  -0.018103  0  3.874268  0
C  C85  1  0.55148912  0.03291938  0.53064523  1  -0.176923  0  -0.04777  -0.006146  0  3.84523  0
C  C86  1  0.49291053  0.07273495  0.49395141  1  0.114768  0  -0.009307  0.06154  0  3.977869  0
C  C87  1  0.48629811  0.92010260  0.49599679  1  0.100365  0  -0.01007  0.057258  0  3.977489  0
C  C88  1  0.66447814  0.49223353  0.49449514  1  1.719031  0  0.219421  0.651724  0  4.255016  0
C  C89  1  0.34400138  0.49804046  0.50851433  1  1.709289  0  0.218708  0.650759  0  4.2548  0
C  C90  1  0.04561008  0.56981760  0.50073200  1  -0.178001  0  -0.049801  -0.011491  0  3.858409  0
C  C91  1  0.96437135  0.43658726  0.48084635  1  -0.131875  0  -0.049929  -0.015233  0  3.861739  0
C  C92  1  0.95913844  0.56808747  0.49872936  1  -0.117517  0  -0.05002  -0.01448  0  3.85877  0
C  C93  1  0.05084050  0.43846185  0.48192274  1  -0.236287  0  -0.049562  -0.01546  0  3.85853  0
C  C94  1  0.09281369  0.50490187  0.49356077  1  0.141142  0  -0.008563  0.092045  0  4.079142  0
C  C95  1  0.91701289  0.50124988  0.48982460  1  0.150756  0  -0.008932  0.091583  0  4.076211  0
C  C96  1  0.17960553  0.50552855  0.49888694  1  -0.243058  0  -0.062986  -0.081916  0  4.181505  0
C  C97  1  0.82977439  0.49869946  0.49030719  1  -0.594356  0  -0.062577  -0.078692  0  4.179415  0
C  C98  1  0.75438210  0.49463337  0.49186963  1  0.254479  0  -0.027835  -0.137171  0  3.910363  0
C  C99  1  0.25453816  0.50255680  0.50453139  1  -0.006523  0  -0.024487  -0.131893  0  3.911118  0
C  C100  1  0.49571264  0.43031173  0.74709085  1  0.5052  0  0.077356  0.143185  0  4.022127  0
C  C101  1  0.42134831  0.46676820  0.26616825  1  0.581077  0  0.069162  0.122986  0  4.069934  0
C  C102  1  0.54322465  0.54261833  0.25617712  1  0.463944  0  0.066811  0.120367  0  4.055497  0
C  C103  1  0.50222874  0.56167076  0.74935629  1  0.510138  0  0.076507  0.139907  0  4.033465  0
C  C104  1  0.47739856  0.43072553  0.81821244  1  0.519878  0  0.067929  0.096719  0  4.054439  0
C  C105  1  0.41589774  0.46596249  0.19417631  1  0.449972  0  0.069543  0.101957  0  4.052466  0
C  C106  1  0.53519018  0.54503669  0.18447877  1  0.548523  0  0.069317  0.099923  0  4.054436  0
C  C107  1  0.48423809  0.56117207  0.82054218  1  0.503309  0  0.067171  0.091433  0  4.060684  0
C  C108  1  0.47202668  0.49573919  0.85553600  1  0.036877  0  -0.01399  -0.064294  0  4.042615  0
C  C109  1  0.47207069  0.50553458  0.15278725  1  0.069816  0  -0.021932  -0.082158  0  4.04628  0
C  C110  1  0.58193450  0.34266266  0.69032812  1  0.423539  0  -0.141524  -0.160816  0  3.905957  0
C  C111  1  0.28600503  0.45796217  0.31511981  1  0.335151  0  -0.145176  -0.165496  0  3.907254  0
C  C112  1  0.68175021  0.53053770  0.28772533  1  0.378734  0  -0.139959  -0.169167  0  3.904151  0
C  C113  1  0.59713522  0.65208879  0.71385743  1  0.392094  0  -0.142201  -0.159852  0  3.914393  0
C  C114  1  0.39171110  0.33035643  0.84140901  1  0.386129  0  -0.142402  -0.167956  0  3.945125  0
C  C115  1  0.37575949  0.34958969  0.15993703  1  0.380785  0  -0.140451  -0.167445  0  3.933881  0
C  C116  1  0.58959542  0.65956003  0.15335500  1  0.40244  0  -0.141985  -0.169373  0  3.939539  0
C  C117  1  0.41952693  0.67468232  0.84608639  1  0.386971  0  -0.147037  -0.174852  0  3.923126  0
C  C118  1  0.25401899  0.50495235  0.94641061  1  0.338929  0  -0.140797  -0.173402  0  3.928221  0
C  C119  1  0.63317223  0.37668947  0.05994867  1  0.370725  0  -0.141292  -0.170591  0  3.933806  0
C  C120  1  0.32574120  0.63229059  0.07315567  1  0.453597  0  -0.139389  -0.167528  0  3.929771  0
C  C121  1  0.66846356  0.50468980  0.92444416  1  0.439619  0  -0.139408  -0.173118  0  3.912012  0
C  C122  1  0.34207805  0.69061040  0.62961712  1  0.422756  0  -0.132667  -0.160464  0  3.879713  0
C  C123  1  0.68207969  0.29895241  0.40989382  1  0.380252  0  -0.144443  -0.181765  0  3.877812  0
C  C124  1  0.67267423  0.69781118  0.40775916  1  0.327816  0  -0.141577  -0.176422  0  3.868762  0
C  C125  1  0.31677427  0.30556174  0.58423516  1  0.319136  0  -0.140376  -0.176879  0  3.867998  0
C  C126  1  0.34227025  0.88017095  0.60333828  1  0.357252  0  -0.139962  -0.168941  0  3.898395  0
C  C127  1  0.57004906  0.16610929  0.32547358  1  0.350842  0  -0.139879  -0.172118  0  3.877471  0
C  C128  1  0.54912993  0.81710042  0.32320855  1  0.373064  0  -0.140655  -0.174289  0  3.883189  0
C  C129  1  0.42217928  0.16857958  0.66389829  1  0.335388  0  -0.140152  -0.175681  0  3.870613  0
I  I130  1  0.88669107  0.66208101  0.51006006  1  0.156471  0  0.091205  0.003366  0  1.518919  0
I  I131  1  0.12307866  0.34481057  0.46680318  1  0.155676  0  0.10865  0.011278  0  1.578864  0
I  I132  1  0.11112742  0.66669486  0.51334781  1  0.149262  0  0.079708  -0.012245  0  1.505451  0
I  I133  1  0.90013515  0.33930928  0.46717385  1  0.159468  0  0.092628  -0.003044  0  1.552347  0
I  I134  1  0.63484302  0.89565013  0.58604575  1  0.157566  0  0.09297  0.007946  0  1.507731  0
I  I135  1  0.34454090  0.09767177  0.40426031  1  0.151898  0  0.095846  0.007251  0  1.516201  0
I  I136  1  0.33877213  0.90246894  0.40395098  1  0.142518  0  0.101514  -0.000984  0  1.548226  0
I  I137  1  0.64355528  0.09039677  0.58250543  1  0.150552  0  0.09857  0.005607  0  1.522213  0
N  N138  1  0.50054981  0.69049469  0.50366984  1  -1.233076  0  -0.322979  -0.360212  0  3.497507  0
N  N139  1  0.49966199  0.30349447  0.49620613  1  -1.206753  0  -0.315603  -0.352107  0  3.473216  0
O  O140  1  0.47096992  0.56104315  0.40639838  1  -1.147828  0  -0.311726  -0.540515  0  2.315565  0
O  O141  1  0.48678149  0.44203918  0.60185090  1  -1.155107  0  -0.312974  -0.550972  0  2.425303  0
O  O142  1  0.53994650  0.55472171  0.60388785  1  -1.141305  0  -0.309287  -0.538265  0  2.37871  0
O  O143  1  0.51955589  0.44562738  0.39962927  1  -1.156549  0  -0.311728  -0.548798  0  2.360806  0
O  O144  1  0.62858446  0.55087349  0.47892553  1  -1.141944  0  -0.295376  -0.521812  0  2.295695  0
O  O145  1  0.37595182  0.43807736  0.48927151  1  -1.129592  0  -0.297283  -0.517333  0  2.267062  0
O  O146  1  0.37997750  0.55431170  0.53026371  1  -1.144048  0  -0.302995  -0.533702  0  2.287993  0
O  O147  1  0.63191857  0.43220301  0.51190556  1  -1.144118  0  -0.304968  -0.537257  0  2.260875  0
O  O148  1  0.50142246  0.36280651  0.71724772  1  -1.074385  0  -0.203438  -0.174358  0  2.606491  0
O  O149  1  0.36746375  0.42659566  0.30675166  1  -1.067427  0  -0.210553  -0.177775  0  2.535904  0
O  O150  1  0.60957333  0.57653718  0.28648505  1  -1.070304  0  -0.206486  -0.178573  0  2.54475  0
O  O151  1  0.51258935  0.62876434  0.72016484  1  -1.071325  0  -0.202891  -0.170536  0  2.612519  0
O  O152  1  0.46864413  0.36628549  0.85342251  1  -1.060044  0  -0.209923  -0.178237  0  2.553945  0
O  O153  1  0.35504449  0.42519648  0.16376815  1  -1.069095  0  -0.207938  -0.179489  0  2.559225  0
O  O154  1  0.59165954  0.58250221  0.14378680  1  -1.088919  0  -0.203896  -0.1739  0  2.578858  0
O  O155  1  0.48618447  0.62459856  0.85832217  1  -1.066868  0  -0.212588  -0.187043  0  2.55097  0
O  O156  1  0.32901901  0.54529916  0.93416543  1  -1.072351  0  -0.204957  -0.18004  0  2.581275  0
O  O157  1  0.60420738  0.44886624  0.07468694  1  -1.068769  0  -0.199031  -0.167457  0  2.600229  0
O  O158  1  0.33281858  0.55504702  0.07879360  1  -1.082331  0  -0.205827  -0.177773  0  2.570028  0
O  O159  1  0.60578591  0.44954601  0.92919381  1  -1.082536  0  -0.207739  -0.180688  0  2.5521  0
O  O160  1  0.42515627  0.68229523  0.60222586  1  -1.068812  0  -0.162993  -0.139916  0  2.648542  0
O  O161  1  0.59310851  0.30637471  0.40515706  1  -1.092348  0  -0.182787  -0.167472  0  2.57173  0
O  O162  1  0.58395613  0.68695034  0.40630649  1  -1.064837  0  -0.181681  -0.170813  0  2.590088  0
O  O163  1  0.40611129  0.30960500  0.58658381  1  -1.091871  0  -0.176915  -0.159491  0  2.6069  0
O  O164  1  0.41386286  0.83429973  0.61016114  1  -1.0666  0  -0.202151  -0.164455  0  2.587778  0
O  O165  1  0.58811501  0.15173114  0.39668717  1  -1.061322  0  -0.205126  -0.171294  0  2.567176  0
O  O166  1  0.56469189  0.84087838  0.39269007  1  -1.070139  0  -0.203576  -0.166774  0  2.574391  0
O  O167  1  0.40307746  0.15467662  0.59263521  1  -1.069237  0  -0.206713  -0.173858  0  2.56991  0
