# generated using pymatgen
data_ZnH9C4SN7O
_symmetry_space_group_name_H-M   'P 1'
_cell_length_a   10.01573983
_cell_length_b   10.24782150
_cell_length_c   10.28074451
_cell_angle_alpha   89.99988935
_cell_angle_beta   102.42997982
_cell_angle_gamma   90.00009005
_symmetry_Int_Tables_number   1
_chemical_formula_structural   ZnH9C4SN7O
_chemical_formula_sum   'Zn4 H36 C16 S4 N28 O4'
_cell_volume   1030.47625568
_cell_formula_units_Z   4
loop_
 _symmetry_equiv_pos_site_id
 _symmetry_equiv_pos_as_xyz
  1  'x, y, z'
loop_
 _atom_site_type_symbol
 _atom_site_label
 _atom_site_symmetry_multiplicity
 _atom_site_fract_x
 _atom_site_fract_y
 _atom_site_fract_z
 _atom_site_occupancy
 _atom_site_hle17_bader_spin_density
 _atom_site_hle17_ddec_charge
 _atom_site_hle17_ddec_spin_density
 _atom_site_hle17_ddec_sum_bond_order
 _atom_site_hle17_magmom
 _atom_site_hse06_10hf_bader_spin_density
 _atom_site_hse06_10hf_ddec_charge
 _atom_site_hse06_10hf_ddec_spin_density
 _atom_site_hse06_10hf_ddec_sum_bond_order
 _atom_site_hse06_10hf_magmom
 _atom_site_hse06_bader_spin_density
 _atom_site_hse06_ddec_charge
 _atom_site_hse06_ddec_spin_density
 _atom_site_hse06_ddec_sum_bond_order
 _atom_site_hse06_magmom
 _atom_site_pbe_bader_spin_density
 _atom_site_pbe_cm5_charge
 _atom_site_pbe_ddec_charge
 _atom_site_pbe_ddec_spin_density
 _atom_site_pbe_ddec_sum_bond_order
 _atom_site_pbe_magmom
Zn  Zn0  1  0.64550865  0.41064869  0.05219832  1  0  0.960939  0  1.975611  0  0  0.778697  0  2.451447  0  0  0.816892  0  2.407337  0  0  0.726656  0.752226  0  2.481696  0
Zn  Zn1  1  0.35449246  0.91064802  0.44780179  1  0  0.960957  0  1.975592  0  0  0.778717  0  2.451422  0  0  0.816918  0  2.407319  0  0  0.726667  0.752249  0  2.481672  0
Zn  Zn2  1  0.35449245  0.58935095  0.94780178  1  0  0.960961  0  1.975525  0  0  0.778725  0  2.451353  0  0  0.816924  0  2.40725  0  0  0.72667  0.752248  0  2.481602  0
Zn  Zn3  1  0.64550864  0.08935065  0.55219831  1  0  0.960968  0  1.975493  0  0  0.778741  0  2.451314  0  0  0.816921  0  2.407195  0  0  0.726681  0.752266  0  2.481562  0
H  H4  1  0.54844183  0.03165861  0.24984761  1  0  0.136072  0  0.944415  0  0  0.15501  0  1.005862  0  0  0.157013  0  1.005284  0  0  0.101227  0.153568  0  1.00637  0
H  H5  1  0.45155780  0.53165846  0.25015097  1  0  0.136053  0  0.944435  0  0  0.155009  0  1.005872  0  0  0.15701  0  1.005296  0  0  0.101229  0.153563  0  1.006379  0
H  H6  1  0.45155518  0.96834201  0.75015259  1  0  0.136085  0  0.94441  0  0  0.15504  0  1.005842  0  0  0.157042  0  1.005265  0  0  0.101247  0.153601  0  1.006352  0
H  H7  1  0.54844331  0.46834216  0.74984718  1  0  0.136093  0  0.944382  0  0  0.155044  0  1.005827  0  0  0.157045  0  1.005251  0  0  0.101251  0.153601  0  1.006335  0
H  H8  1  0.55857444  0.11842257  0.10222093  1  0  0.137886  0  0.950162  0  0  0.15411  0  1.013947  0  0  0.156057  0  1.013315  0  0  0.101919  0.152821  0  1.014174  0
H  H9  1  0.44142529  0.61842114  0.39777750  1  0  0.137892  0  0.950166  0  0  0.154113  0  1.013953  0  0  0.156061  0  1.013321  0  0  0.10192  0.152823  0  1.014181  0
H  H10  1  0.44142052  0.88157805  0.89777786  1  0  0.137887  0  0.950164  0  0  0.154106  0  1.013969  0  0  0.156053  0  1.013338  0  0  0.1019  0.152817  0  1.014196  0
H  H11  1  0.55857581  0.38157948  0.60222162  1  0  0.137865  0  0.950178  0  0  0.154091  0  1.01397  0  0  0.156037  0  1.013339  0  0  0.101903  0.152802  0  1.014196  0
H  H12  1  0.42091354  0.14808235  0.18242896  1  0  0.137382  0  0.940412  0  0  0.151745  0  1.008272  0  0  0.153169  0  1.008215  0  0  0.101615  0.15085  0  1.008144  0
H  H13  1  0.57908521  0.64808129  0.31757018  1  0  0.137377  0  0.940456  0  0  0.151739  0  1.008311  0  0  0.153164  0  1.008254  0  0  0.101618  0.150843  0  1.008185  0
H  H14  1  0.57908039  0.85191925  0.81757253  1  0  0.137354  0  0.940554  0  0  0.15177  0  1.008337  0  0  0.153193  0  1.008281  0  0  0.101626  0.150876  0  1.00821  0
H  H15  1  0.42091590  0.35191933  0.68242895  1  0  0.13736  0  0.940474  0  0  0.151755  0  1.008294  0  0  0.153178  0  1.008235  0  0  0.101624  0.15086  0  1.008164  0
H  H16  1  0.01032343  0.22391001  0.03061344  1  0  0.143908  0  0.944771  0  0  0.158243  0  1.009721  0  0  0.160252  0  1.009095  0  0  0.100396  0.156738  0  1.010245  0
H  H17  1  0.98967642  0.72390928  0.46938773  1  0  0.143913  0  0.944747  0  0  0.158247  0  1.00971  0  0  0.160255  0  1.009083  0  0  0.100387  0.15674  0  1.01023  0
H  H18  1  0.98967766  0.77608964  0.96938860  1  0  0.14395  0  0.944763  0  0  0.158271  0  1.009719  0  0  0.160277  0  1.009095  0  0  0.10039  0.156772  0  1.010231  0
H  H19  1  0.01032468  0.27608939  0.53061140  1  0  0.143866  0  0.944695  0  0  0.158192  0  1.009682  0  0  0.160201  0  1.009057  0  0  0.100344  0.156684  0  1.010201  0
H  H20  1  0.16294749  0.25845881  0.15554458  1  0  0.150385  0  0.953787  0  0  0.165052  0  1.017589  0  0  0.166972  0  1.017014  0  0  0.101898  0.163575  0  1.018077  0
H  H21  1  0.83705139  0.75845809  0.34445437  1  0  0.150358  0  0.953676  0  0  0.165016  0  1.017513  0  0  0.166937  0  1.016936  0  0  0.101857  0.16354  0  1.017998  0
H  H22  1  0.83705259  0.74154181  0.84445627  1  0  0.15037  0  0.953711  0  0  0.165026  0  1.017539  0  0  0.166947  0  1.016962  0  0  0.10186  0.163551  0  1.018031  0
H  H23  1  0.16294664  0.24153960  0.65554507  1  0  0.150361  0  0.953696  0  0  0.165017  0  1.017534  0  0  0.166939  0  1.016957  0  0  0.101865  0.163545  0  1.018018  0
H  H24  1  0.10532971  0.37241970  0.01967789  1  0  0.164034  0  0.971022  0  0  0.177901  0  1.03059  0  0  0.180728  0  1.03029  0  0  0.102108  0.175878  0  1.030797  0
H  H25  1  0.89467033  0.87241978  0.48032401  1  0  0.164091  0  0.970954  0  0  0.177962  0  1.030504  0  0  0.180789  0  1.030206  0  0  0.102157  0.175941  0  1.030717  0
H  H26  1  0.89467036  0.62757994  0.98032394  1  0  0.164089  0  0.970971  0  0  0.177962  0  1.030519  0  0  0.180788  0  1.030219  0  0  0.10215  0.175939  0  1.030723  0
H  H27  1  0.10533180  0.12757986  0.51967533  1  0  0.164043  0  0.970967  0  0  0.177928  0  1.030502  0  0  0.180754  0  1.030204  0  0  0.102165  0.175919  0  1.030693  0
H  H28  1  0.11436975  0.56409445  0.16947472  1  0  0.158762  0  0.933528  0  0  0.175847  0  0.990343  0  0  0.178204  0  0.990295  0  0  0.104854  0.17407  0  0.990729  0
H  H29  1  0.88563194  0.06409495  0.33052715  1  0  0.15878  0  0.933527  0  0  0.175871  0  0.990336  0  0  0.178228  0  0.99029  0  0  0.104877  0.174096  0  0.990725  0
H  H30  1  0.88563134  0.43590617  0.83052635  1  0  0.158776  0  0.933541  0  0  0.175867  0  0.990342  0  0  0.178224  0  0.990296  0  0  0.104873  0.174092  0  0.990731  0
H  H31  1  0.11437119  0.93590567  0.66947532  1  0  0.158772  0  0.933534  0  0  0.175856  0  0.990345  0  0  0.178212  0  0.9903  0  0  0.104863  0.174082  0  0.990733  0
H  H32  1  0.17448636  0.46896779  0.31983581  1  0  0.161038  0  0.963754  0  0  0.175475  0  1.027262  0  0  0.177716  0  1.025859  0  0  0.106604  0.173794  0  1.028323  0
H  H33  1  0.82551278  0.96896737  0.18016376  1  0  0.161042  0  0.963742  0  0  0.175494  0  1.027238  0  0  0.177734  0  1.025837  0  0  0.106614  0.173819  0  1.028297  0
H  H34  1  0.82551474  0.53103283  0.68016428  1  0  0.161051  0  0.963737  0  0  0.175503  0  1.027224  0  0  0.177744  0  1.025822  0  0  0.106626  0.173828  0  1.028284  0
H  H35  1  0.17448321  0.03103618  0.81983524  1  0  0.161049  0  0.963747  0  0  0.175503  0  1.027235  0  0  0.177745  0  1.025831  0  0  0.106623  0.173831  0  1.028291  0
H  H36  1  0.02900729  0.57394122  0.30746587  1  0  0.141995  0  0.953709  0  0  0.159653  0  1.015258  0  0  0.161077  0  1.015315  0  0  0.10111  0.158475  0  1.015528  0
H  H37  1  0.97099442  0.07394212  0.19253501  1  0  0.142006  0  0.953687  0  0  0.159675  0  1.015225  0  0  0.161098  0  1.015284  0  0  0.101122  0.158497  0  1.015496  0
H  H38  1  0.97099278  0.42605842  0.69253595  1  0  0.142004  0  0.953678  0  0  0.159666  0  1.015221  0  0  0.161089  0  1.01528  0  0  0.101115  0.15849  0  1.01549  0
H  H39  1  0.02900872  0.92605850  0.80746552  1  0  0.14199  0  0.953699  0  0  0.159645  0  1.015254  0  0  0.161068  0  1.015314  0  0  0.101109  0.15847  0  1.015524  0
C  C40  1  0.61261342  0.22915134  0.28142783  1  0  0.408887  0  3.731644  0  0  0.389074  0  3.994968  0  0  0.402741  0  4.01163  0  0  0.2307  0.380015  0  3.9835  0
C  C41  1  0.38738338  0.72915310  0.21857074  1  0  0.409142  0  3.731407  0  0  0.389139  0  3.994982  0  0  0.402807  0  4.011643  0  0  0.230738  0.380083  0  3.983506  0
C  C42  1  0.38738358  0.77084929  0.71857334  1  0  0.409075  0  3.731435  0  0  0.389191  0  3.99485  0  0  0.402862  0  4.011508  0  0  0.230732  0.380133  0  3.983389  0
C  C43  1  0.61261568  0.27084947  0.78142698  1  0  0.408978  0  3.731536  0  0  0.389055  0  3.995011  0  0  0.402723  0  4.011671  0  0  0.230721  0.379999  0  3.983546  0
C  C44  1  0.53075254  0.12630901  0.19937229  1  0  -0.39416  0  3.685142  0  0  -0.472807  0  3.920276  0  0  -0.476611  0  3.926953  0  0  -0.234651  -0.47008  0  3.915469  0
C  C45  1  0.46924822  0.62630879  0.30062829  1  0  -0.394209  0  3.685034  0  0  -0.472811  0  3.920207  0  0  -0.476613  0  3.926883  0  0  -0.234656  -0.47009  0  3.915403  0
C  C46  1  0.46924549  0.87369064  0.80062910  1  0  -0.394223  0  3.68522  0  0  -0.472912  0  3.920333  0  0  -0.476717  0  3.927009  0  0  -0.23466  -0.470185  0  3.91553  0
C  C47  1  0.53075391  0.37369281  0.69937105  1  0  -0.394203  0  3.685106  0  0  -0.472861  0  3.920261  0  0  -0.476662  0  3.926937  0  0  -0.234689  -0.470134  0  3.915453  0
C  C48  1  0.07426434  0.30072242  0.08676163  1  0  -0.445015  0  3.571599  0  0  -0.51409  0  3.818229  0  0  -0.518308  0  3.823189  0  0  -0.240294  -0.510943  0  3.814987  0
C  C49  1  0.92573663  0.80072268  0.41323866  1  0  -0.445057  0  3.571441  0  0  -0.514131  0  3.818082  0  0  -0.51835  0  3.82304  0  0  -0.240286  -0.51098  0  3.814835  0
C  C50  1  0.92573778  0.69927722  0.91323868  1  0  -0.445133  0  3.571533  0  0  -0.514186  0  3.818184  0  0  -0.518401  0  3.823141  0  0  -0.240295  -0.511045  0  3.814938  0
C  C51  1  0.07426345  0.19927501  0.58676025  1  0  -0.444953  0  3.571359  0  0  -0.514  0  3.817948  0  0  -0.518219  0  3.82291  0  0  -0.240252  -0.510864  0  3.814701  0
C  C52  1  0.08548218  0.51116212  0.25198526  1  0  -0.430206  0  3.557793  0  0  -0.501488  0  3.803223  0  0  -0.505002  0  3.808043  0  0  -0.234347  -0.498972  0  3.800425  0
C  C53  1  0.91452047  0.01116088  0.24801692  1  0  -0.430307  0  3.557934  0  0  -0.501601  0  3.80332  0  0  -0.505116  0  3.808138  0  0  -0.234392  -0.499091  0  3.800549  0
C  C54  1  0.91451993  0.48883850  0.74801603  1  0  -0.430307  0  3.557912  0  0  -0.5016  0  3.803316  0  0  -0.505111  0  3.808133  0  0  -0.234409  -0.499087  0  3.800543  0
C  C55  1  0.08548063  0.98883779  0.75198415  1  0  -0.430251  0  3.557786  0  0  -0.501537  0  3.80321  0  0  -0.505053  0  3.808031  0  0  -0.234371  -0.499019  0  3.800419  0
S  S56  1  0.97118802  0.38168168  0.18479151  1  0  0.7059  0  3.549857  0  0  0.675721  0  3.992121  0  0  0.691364  0  3.989633  0  0  0.28732  0.664671  0  3.994237  0
S  S57  1  0.02881101  0.88168369  0.31520918  1  0  0.705969  0  3.549929  0  0  0.675786  0  3.992223  0  0  0.691428  0  3.989736  0  0  0.287317  0.664728  0  3.994328  0
S  S58  1  0.02881307  0.61831699  0.81521150  1  0  0.705996  0  3.550062  0  0  0.675806  0  3.992342  0  0  0.691447  0  3.989854  0  0  0.287361  0.664743  0  3.994456  0
S  S59  1  0.97118602  0.11831595  0.68478519  1  0  0.705905  0  3.550028  0  0  0.675718  0  3.992306  0  0  0.691359  0  3.989819  0  0  0.287334  0.66466  0  3.994418  0
N  N60  1  0.40388065  0.40379248  0.99982135  1  0  -0.614379  0  2.793472  0  0  -0.567937  0  3.120058  0  0  -0.591884  0  3.122683  0  0  -0.325336  -0.551651  0  3.118321  0
N  N61  1  0.59611980  0.90379011  0.50017994  1  0  -0.614588  0  2.793433  0  0  -0.568113  0  3.120049  0  0  -0.592058  0  3.122666  0  0  -0.325414  -0.551831  0  3.118312  0
N  N62  1  0.59611739  0.59620327  0.00017518  1  0  -0.614574  0  2.792975  0  0  -0.568093  0  3.119583  0  0  -0.592046  0  3.122206  0  0  -0.325376  -0.551809  0  3.117848  0
N  N63  1  0.40388231  0.09620564  0.49982329  1  0  -0.614606  0  2.793101  0  0  -0.568146  0  3.119731  0  0  -0.5921  0  3.122353  0  0  -0.325396  -0.551863  0  3.118001  0
N  N64  1  0.34560217  0.31122159  0.94027096  1  0  0.411802  0  4.219684  0  0  0.444684  0  4.498497  0  0  0.459772  0  4.528025  0  0  0.092506  0.434629  0  4.478288  0
N  N65  1  0.65439817  0.81121920  0.55972951  1  0  0.41192  0  4.219819  0  0  0.444746  0  4.498687  0  0  0.45983  0  4.528216  0  0  0.092496  0.434695  0  4.478475  0
N  N66  1  0.65439995  0.68878293  0.05973033  1  0  0.411954  0  4.219569  0  0  0.444795  0  4.498427  0  0  0.459883  0  4.527949  0  0  0.092538  0.43474  0  4.478221  0
N  N67  1  0.34559987  0.18878337  0.44026896  1  0  0.412042  0  4.219788  0  0  0.444893  0  4.498622  0  0  0.459979  0  4.528142  0  0  0.092594  0.434836  0  4.47842  0
N  N68  1  0.29369357  0.21901177  0.88597558  1  0  -0.365627  0  2.4055  0  0  -0.361297  0  2.622512  0  0  -0.367472  0  2.633005  0  0  -0.173062  -0.356793  0  2.615331  0
N  N69  1  0.70630666  0.71901325  0.61402407  1  0  -0.365538  0  2.405646  0  0  -0.361179  0  2.622667  0  0  -0.36735  0  2.633161  0  0  -0.172971  -0.35667  0  2.615482  0
N  N70  1  0.70630549  0.78098398  0.11402311  1  0  -0.365558  0  2.405971  0  0  -0.361222  0  2.62301  0  0  -0.367389  0  2.633501  0  0  -0.17301  -0.356725  0  2.615831  0
N  N71  1  0.29369546  0.28098347  0.38597721  1  0  -0.36563  0  2.40605  0  0  -0.361306  0  2.623091  0  0  -0.367471  0  2.633578  0  0  -0.173054  -0.356801  0  2.61591  0
N  N72  1  0.65693957  0.34099372  0.23705494  1  0  -0.371906  0  3.23708  0  0  -0.300962  0  3.539405  0  0  -0.320287  0  3.55144  0  0  -0.248657  -0.287915  0  3.531322  0
N  N73  1  0.34306146  0.84099045  0.26294431  1  0  -0.371965  0  3.237079  0  0  -0.30096  0  3.539462  0  0  -0.320286  0  3.551503  0  0  -0.248669  -0.287918  0  3.531387  0
N  N74  1  0.34305847  0.65900690  0.76294353  1  0  -0.371966  0  3.237038  0  0  -0.301027  0  3.539426  0  0  -0.32036  0  3.551473  0  0  -0.248704  -0.287991  0  3.531362  0
N  N75  1  0.65694168  0.15900821  0.73705525  1  0  -0.371872  0  3.236995  0  0  -0.300896  0  3.539356  0  0  -0.320219  0  3.55139  0  0  -0.248635  -0.287851  0  3.53128  0
N  N76  1  0.72807412  0.40669153  0.34490818  1  0  -0.083672  0  2.972568  0  0  -0.083363  0  3.272565  0  0  -0.081893  0  3.283633  0  0  -0.097392  -0.084244  0  3.265041  0
N  N77  1  0.27192597  0.90669130  0.15509074  1  0  -0.083814  0  2.972604  0  0  -0.083519  0  3.272599  0  0  -0.082052  0  3.283668  0  0  -0.097455  -0.084404  0  3.265088  0
N  N78  1  0.27192698  0.59330713  0.65509094  1  0  -0.08366  0  2.972672  0  0  -0.083352  0  3.272662  0  0  -0.08188  0  3.283731  0  0  -0.097345  -0.084233  0  3.265142  0
N  N79  1  0.72807514  0.09330932  0.84490741  1  0  -0.083744  0  2.972514  0  0  -0.08344  0  3.272515  0  0  -0.081971  0  3.283581  0  0  -0.097433  -0.084321  0  3.264997  0
N  N80  1  0.72732071  0.33799000  0.45111898  1  0  -0.08108  0  2.963855  0  0  -0.073614  0  3.260632  0  0  -0.073016  0  3.272101  0  0  -0.094422  -0.073943  0  3.25294  0
N  N81  1  0.27268032  0.83798899  0.04888028  1  0  -0.080987  0  2.963831  0  0  -0.073492  0  3.260548  0  0  -0.072891  0  3.272019  0  0  -0.09438  -0.073823  0  3.252861  0
N  N82  1  0.27268039  0.66200769  0.54888112  1  0  -0.081112  0  2.963945  0  0  -0.073636  0  3.260684  0  0  -0.073036  0  3.272153  0  0  -0.094435  -0.073962  0  3.252986  0
N  N83  1  0.72731976  0.16201065  0.95111863  1  0  -0.081088  0  2.963907  0  0  -0.07362  0  3.260666  0  0  -0.073017  0  3.272132  0  0  -0.094423  -0.073944  0  3.252971  0
N  N84  1  0.65581499  0.22621013  0.41437359  1  0  -0.368058  0  3.224444  0  0  -0.298133  0  3.523929  0  0  -0.317107  0  3.535837  0  0  -0.252494  -0.2851  0  3.515448  0
N  N85  1  0.34418486  0.72621013  0.08562758  1  0  -0.368179  0  3.224494  0  0  -0.298195  0  3.524027  0  0  -0.317179  0  3.53595  0  0  -0.252523  -0.285161  0  3.515541  0
N  N86  1  0.34418303  0.77378952  0.58562682  1  0  -0.368115  0  3.224417  0  0  -0.298145  0  3.52389  0  0  -0.317126  0  3.535808  0  0  -0.252513  -0.285114  0  3.515412  0
N  N87  1  0.65581624  0.27379049  0.91437155  1  0  -0.368048  0  3.224538  0  0  -0.298088  0  3.524054  0  0  -0.317069  0  3.535973  0  0  -0.252473  -0.285053  0  3.51557  0
O  O88  1  0.85832204  0.45038898  0.08246253  1  0  -0.66488  0  2.010244  0  0  -0.587515  0  2.29302  0  0  -0.61038  0  2.282615  0  0  -0.358304  -0.571682  0  2.299996  0
O  O89  1  0.14167913  0.95038901  0.41753654  1  0  -0.664883  0  2.010189  0  0  -0.587537  0  2.293003  0  0  -0.610382  0  2.282559  0  0  -0.358286  -0.571678  0  2.299967  0
O  O90  1  0.14167804  0.54961066  0.91753735  1  0  -0.664898  0  2.010296  0  0  -0.587541  0  2.2931  0  0  -0.61039  0  2.282662  0  0  -0.358311  -0.571676  0  2.300056  0
O  O91  1  0.85832198  0.04960868  0.58245967  1  0  -0.664885  0  2.01039  0  0  -0.587537  0  2.293194  0  0  -0.610381  0  2.282752  0  0  -0.358302  -0.571666  0  2.300153  0
