# generated using pymatgen
data_KH7(C2O3)2
_symmetry_space_group_name_H-M   'P 1'
_cell_length_a   6.49922871
_cell_length_b   8.39456911
_cell_length_c   13.68881167
_cell_angle_alpha   89.99977006
_cell_angle_beta   89.99993461
_cell_angle_gamma   104.45754381
_symmetry_Int_Tables_number   1
_chemical_formula_structural   KH7(C2O3)2
_chemical_formula_sum   'K4 H28 C16 O24'
_cell_volume   723.18709543
_cell_formula_units_Z   4
loop_
 _symmetry_equiv_pos_site_id
 _symmetry_equiv_pos_as_xyz
  1  'x, y, z'
loop_
 _atom_site_type_symbol
 _atom_site_label
 _atom_site_symmetry_multiplicity
 _atom_site_fract_x
 _atom_site_fract_y
 _atom_site_fract_z
 _atom_site_occupancy
 _atom_site_hle17_bader_spin_density
 _atom_site_hle17_ddec_charge
 _atom_site_hle17_ddec_spin_density
 _atom_site_hle17_ddec_sum_bond_order
 _atom_site_hle17_magmom
 _atom_site_hse06_10hf_bader_spin_density
 _atom_site_hse06_10hf_ddec_charge
 _atom_site_hse06_10hf_ddec_spin_density
 _atom_site_hse06_10hf_ddec_sum_bond_order
 _atom_site_hse06_10hf_magmom
 _atom_site_hse06_bader_spin_density
 _atom_site_hse06_ddec_charge
 _atom_site_hse06_ddec_spin_density
 _atom_site_hse06_ddec_sum_bond_order
 _atom_site_hse06_magmom
 _atom_site_pbe_bader_spin_density
 _atom_site_pbe_cm5_charge
 _atom_site_pbe_ddec_charge
 _atom_site_pbe_ddec_spin_density
 _atom_site_pbe_ddec_sum_bond_order
 _atom_site_pbe_magmom
K  K0  1  0.11253546  0.96323302  0.64843929  1  0  0.919718  0  0.4429  0  0  0.879132  0  0.615965  0  0  0.892224  0  0.592934  0  0  0.726717  0.868756  0  0.633091  0
K  K1  1  0.38746208  0.03676429  0.14844006  1  0  0.919706  0  0.442895  0  0  0.879127  0  0.615948  0  0  0.892212  0  0.592923  0  0  0.726712  0.868746  0  0.633075  0
K  K2  1  0.88746575  0.03676422  0.35156201  1  0  0.919703  0  0.442926  0  0  0.879122  0  0.61598  0  0  0.8922  0  0.592963  0  0  0.726719  0.868741  0  0.633105  0
K  K3  1  0.61253457  0.96323787  0.85156197  1  0  0.9197  0  0.442913  0  0  0.879119  0  0.615963  0  0  0.892209  0  0.592936  0  0  0.726718  0.868746  0  0.633089  0
H  H4  1  0.95891228  0.58580112  0.72970078  1  0  0.397197  0  0.901307  0  0  0.361905  0  0.987066  0  0  0.375998  0  0.972447  0  0  0.301367  0.352075  0  0.997179  0
H  H5  1  0.54109206  0.41419819  0.22970226  1  0  0.397244  0  0.901206  0  0  0.361945  0  0.986987  0  0  0.376042  0  0.972363  0  0  0.301355  0.352113  0  0.997108  0
H  H6  1  0.04108898  0.41420104  0.27029832  1  0  0.397149  0  0.901242  0  0  0.361848  0  0.987039  0  0  0.375937  0  0.972428  0  0  0.301352  0.352017  0  0.997154  0
H  H7  1  0.45891069  0.58579905  0.77029757  1  0  0.397167  0  0.901236  0  0  0.361867  0  0.987029  0  0  0.375963  0  0.97241  0  0  0.301362  0.352035  0  0.997146  0
H  H8  1  0.06793363  0.24862338  0.80725967  1  0  0.413796  0  0.890625  0  0  0.385665  0  0.951126  0  0  0.394925  0  0.937439  0  0  0.290854  0.379103  0  0.960846  0
H  H9  1  0.43206472  0.75137767  0.30725864  1  0  0.41377  0  0.890669  0  0  0.385635  0  0.951178  0  0  0.394894  0  0.937493  0  0  0.290833  0.37907  0  0.960903  0
H  H10  1  0.93206535  0.75138124  0.19274090  1  0  0.413807  0  0.890612  0  0  0.385657  0  0.951146  0  0  0.394918  0  0.937455  0  0  0.290849  0.379092  0  0.960872  0
H  H11  1  0.56793614  0.24862327  0.69274119  1  0  0.413805  0  0.890619  0  0  0.385674  0  0.95112  0  0  0.394933  0  0.937435  0  0  0.290842  0.379106  0  0.960849  0
H  H12  1  0.91511223  0.26047964  0.72148354  1  0  0.416514  0  0.888112  0  0  0.385167  0  0.953875  0  0  0.396199  0  0.937272  0  0  0.28815  0.37733  0  0.965669  0
H  H13  1  0.58488678  0.73952220  0.22148273  1  0  0.416565  0  0.888041  0  0  0.385215  0  0.953807  0  0  0.396249  0  0.937201  0  0  0.288164  0.377378  0  0.965603  0
H  H14  1  0.08488977  0.73952007  0.27851484  1  0  0.416531  0  0.888087  0  0  0.385185  0  0.95385  0  0  0.396216  0  0.937249  0  0  0.288149  0.377347  0  0.965647  0
H  H15  1  0.41511100  0.26047874  0.77851638  1  0  0.416538  0  0.888076  0  0  0.385191  0  0.953839  0  0  0.396224  0  0.937234  0  0  0.288155  0.377356  0  0.965633  0
H  H16  1  0.34555519  0.03141504  0.41928462  1  0  0.411132  0  0.896955  0  0  0.38441  0  0.955591  0  0  0.394566  0  0.940584  0  0  0.290179  0.377205  0  0.966236  0
H  H17  1  0.15444490  0.96858271  0.91928382  1  0  0.411095  0  0.897001  0  0  0.384376  0  0.955634  0  0  0.394532  0  0.940629  0  0  0.290175  0.377168  0  0.966287  0
H  H18  1  0.65443555  0.96857359  0.58071887  1  0  0.411155  0  0.896939  0  0  0.384393  0  0.955655  0  0  0.394555  0  0.940637  0  0  0.290158  0.377187  0  0.966305  0
H  H19  1  0.84555293  0.03142314  0.08071675  1  0  0.411077  0  0.89704  0  0  0.384357  0  0.955675  0  0  0.394514  0  0.940668  0  0  0.290153  0.377149  0  0.966327  0
H  H20  1  0.22842303  0.84651052  0.43846792  1  0  0.418175  0  0.886135  0  0  0.38999  0  0.945728  0  0  0.400047  0  0.930972  0  0  0.291095  0.382881  0  0.956154  0
H  H21  1  0.27157082  0.15348709  0.93847054  1  0  0.418163  0  0.886156  0  0  0.389965  0  0.945777  0  0  0.400026  0  0.931014  0  0  0.291064  0.382854  0  0.956205  0
H  H22  1  0.77156657  0.15347934  0.56153264  1  0  0.418273  0  0.88599  0  0  0.390053  0  0.945654  0  0  0.400114  0  0.93089  0  0  0.291099  0.382941  0  0.956085  0
H  H23  1  0.72842816  0.84651753  0.06153149  1  0  0.418245  0  0.886036  0  0  0.390019  0  0.94571  0  0  0.400083  0  0.93094  0  0  0.291077  0.382907  0  0.956139  0
H  H24  1  0.02442083  0.73425989  0.01650527  1  0  0.097621  0  0.93858  0  0  0.105775  0  0.998372  0  0  0.10908  0  0.996292  0  0  0.117381  0.10338  0  1.000062  0
H  H25  1  0.47557814  0.26574086  0.51650895  1  0  0.097651  0  0.938585  0  0  0.1058  0  0.998382  0  0  0.109105  0  0.996302  0  0  0.117392  0.103412  0  1.000075  0
H  H26  1  0.97557626  0.26574843  0.98349238  1  0  0.097657  0  0.938497  0  0  0.105819  0  0.998284  0  0  0.109124  0  0.996204  0  0  0.117388  0.103445  0  0.999986  0
H  H27  1  0.52442381  0.73425392  0.48349088  1  0  0.09767  0  0.938514  0  0  0.105827  0  0.99831  0  0  0.109133  0  0.99623  0  0  0.117382  0.103444  0  1.000009  0
H  H28  1  0.27759894  0.58150339  0.05401485  1  0  0.111746  0  0.910771  0  0  0.120755  0  0.9676  0  0  0.123968  0  0.965933  0  0  0.120731  0.11845  0  0.968925  0
H  H29  1  0.22239678  0.41849709  0.55401391  1  0  0.111737  0  0.910766  0  0  0.120762  0  0.96758  0  0  0.123972  0  0.965912  0  0  0.120729  0.118458  0  0.968908  0
H  H30  1  0.72239701  0.41850616  0.94598571  1  0  0.11167  0  0.910816  0  0  0.120709  0  0.967654  0  0  0.123916  0  0.96599  0  0  0.120751  0.118405  0  0.968979  0
H  H31  1  0.77760285  0.58149523  0.44598446  1  0  0.11172  0  0.910741  0  0  0.120773  0  0.967551  0  0  0.123981  0  0.965885  0  0  0.120752  0.118466  0  0.968881  0
C  C32  1  0.99105925  0.67345881  0.86516312  1  0  0.702427  0  3.764498  0  0  0.64698  0  4.074416  0  0  0.680847  0  4.064568  0  0  0.2432  0.623876  0  4.08068  0
C  C33  1  0.50894522  0.32654195  0.36516483  1  0  0.702414  0  3.764497  0  0  0.647013  0  4.074349  0  0  0.680887  0  4.064494  0  0  0.243175  0.623907  0  4.080628  0
C  C34  1  0.00893903  0.32655320  0.13483526  1  0  0.702363  0  3.764431  0  0  0.647066  0  4.074146  0  0  0.680931  0  4.0643  0  0  0.243237  0.62398  0  4.080425  0
C  C35  1  0.49105783  0.67344668  0.63483354  1  0  0.702315  0  3.764603  0  0  0.646959  0  4.0744  0  0  0.680835  0  4.064548  0  0  0.243176  0.62388  0  4.080661  0
C  C36  1  0.00684634  0.62535775  0.97035592  1  0  -0.146638  0  3.537711  0  0  -0.158612  0  3.77311  0  0  -0.163714  0  3.783256  0  0  -0.075234  -0.155193  0  3.766447  0
C  C37  1  0.49315544  0.37464086  0.47035798  1  0  -0.146655  0  3.537738  0  0  -0.158655  0  3.773135  0  0  -0.163758  0  3.78327  0  0  -0.075262  -0.155268  0  3.766529  0
C  C38  1  0.99315149  0.37464810  0.02964319  1  0  -0.146612  0  3.53757  0  0  -0.158639  0  3.772946  0  0  -0.163742  0  3.783088  0  0  -0.075251  -0.155331  0  3.766443  0
C  C39  1  0.50684920  0.62535270  0.52964185  1  0  -0.14664  0  3.53764  0  0  -0.158653  0  3.772991  0  0  -0.163761  0  3.783134  0  0  -0.075281  -0.155311  0  3.766444  0
C  C40  1  0.17234436  0.52308004  0.99442821  1  0  -0.128156  0  3.51366  0  0  -0.139245  0  3.756252  0  0  -0.143401  0  3.766246  0  0  -0.069967  -0.136327  0  3.749469  0
C  C41  1  0.32765463  0.47691962  0.49442719  1  0  -0.128114  0  3.513583  0  0  -0.139221  0  3.756227  0  0  -0.143357  0  3.766188  0  0  -0.069951  -0.136301  0  3.749447  0
C  C42  1  0.82765234  0.47692705  0.00557162  1  0  -0.127816  0  3.513404  0  0  -0.139048  0  3.756219  0  0  -0.143178  0  3.766175  0  0  -0.069964  -0.136127  0  3.749431  0
C  C43  1  0.67234887  0.52307516  0.50557191  1  0  -0.127934  0  3.513393  0  0  -0.139139  0  3.75614  0  0  -0.143271  0  3.766094  0  0  -0.069947  -0.136215  0  3.74936  0
C  C44  1  0.31034596  0.49450843  0.91017035  1  0  0.699922  0  3.830475  0  0  0.637619  0  4.152041  0  0  0.670804  0  4.14472  0  0  0.22428  0.615082  0  4.156305  0
C  C45  1  0.18965571  0.50548939  0.41016933  1  0  0.699819  0  3.830489  0  0  0.637497  0  4.152087  0  0  0.670676  0  4.144771  0  0  0.224233  0.614954  0  4.156362  0
C  C46  1  0.68965341  0.50549742  0.08982876  1  0  0.699759  0  3.830456  0  0  0.637441  0  4.15209  0  0  0.67062  0  4.144771  0  0  0.224218  0.614908  0  4.156349  0
C  C47  1  0.81034932  0.49450539  0.58983050  1  0  0.699755  0  3.830709  0  0  0.637484  0  4.15225  0  0  0.670664  0  4.144928  0  0  0.224189  0.61494  0  4.156522  0
O  O48  1  0.99991395  0.81741679  0.83899047  1  0  -0.642251  0  1.963399  0  0  -0.595889  0  2.191446  0  0  -0.617592  0  2.180451  0  0  -0.345087  -0.580709  0  2.198708  0
O  O49  1  0.50009254  0.18258048  0.33899254  1  0  -0.642295  0  1.963346  0  0  -0.595943  0  2.191366  0  0  -0.617645  0  2.180366  0  0  -0.345103  -0.580757  0  2.198624  0
O  O50  1  0.00007808  0.18258538  0.16101083  1  0  -0.642305  0  1.963158  0  0  -0.596001  0  2.191173  0  0  -0.617693  0  2.18015  0  0  -0.345177  -0.580813  0  2.198424  0
O  O51  1  0.49991061  0.81741799  0.66100802  1  0  -0.64234  0  1.963168  0  0  -0.595976  0  2.191177  0  0  -0.617686  0  2.180177  0  0  -0.345124  -0.580797  0  2.198428  0
O  O52  1  0.96537470  0.54939815  0.80413680  1  0  -0.551076  0  2.116055  0  0  -0.48999  0  2.336902  0  0  -0.514019  0  2.323152  0  0  -0.313051  -0.473425  0  2.346047  0
O  O53  1  0.53463081  0.45060061  0.30413819  1  0  -0.5511  0  2.116018  0  0  -0.49002  0  2.336829  0  0  -0.514066  0  2.323086  0  0  -0.313005  -0.473447  0  2.345973  0
O  O54  1  0.03462546  0.45061017  0.19586231  1  0  -0.550924  0  2.115965  0  0  -0.489933  0  2.336835  0  0  -0.513949  0  2.323082  0  0  -0.312992  -0.473362  0  2.345968  0
O  O55  1  0.46537422  0.54939417  0.69586091  1  0  -0.550888  0  2.116139  0  0  -0.489844  0  2.336964  0  0  -0.513884  0  2.323221  0  0  -0.312963  -0.473284  0  2.346099  0
O  O56  1  0.42784475  0.62380891  0.87110249  1  0  -0.652449  0  1.97887  0  0  -0.603995  0  2.218866  0  0  -0.629599  0  2.209412  0  0  -0.367026  -0.585972  0  2.224811  0
O  O57  1  0.07215478  0.37618675  0.37110258  1  0  -0.652352  0  1.978899  0  0  -0.60387  0  2.218875  0  0  -0.629475  0  2.209432  0  0  -0.366965  -0.585845  0  2.224827  0
O  O58  1  0.57215036  0.37619326  0.12889735  1  0  -0.652443  0  1.978721  0  0  -0.603969  0  2.218713  0  0  -0.629574  0  2.209262  0  0  -0.367024  -0.585945  0  2.224656  0
O  O59  1  0.92784643  0.62381050  0.62889652  1  0  -0.652461  0  1.978879  0  0  -0.604017  0  2.218855  0  0  -0.629624  0  2.209407  0  0  -0.367042  -0.585987  0  2.224794  0
O  O60  1  0.30299061  0.34911135  0.88194456  1  0  -0.659711  0  2.037235  0  0  -0.584553  0  2.254243  0  0  -0.610695  0  2.243881  0  0  -0.297192  -0.566349  0  2.261101  0
O  O61  1  0.19700927  0.65088546  0.38194099  1  0  -0.659684  0  2.03713  0  0  -0.584532  0  2.254172  0  0  -0.610667  0  2.243805  0  0  -0.297215  -0.56633  0  2.261032  0
O  O62  1  0.69700375  0.65089328  0.11805747  1  0  -0.659687  0  2.037388  0  0  -0.584477  0  2.254387  0  0  -0.610622  0  2.244026  0  0  -0.297122  -0.566278  0  2.261247  0
O  O63  1  0.80299502  0.34911179  0.61805958  1  0  -0.659613  0  2.03741  0  0  -0.584451  0  2.254415  0  0  -0.610589  0  2.244047  0  0  -0.297112  -0.566249  0  2.261279  0
O  O64  1  0.95512517  0.18120360  0.76633266  1  0  -0.900632  0  1.785416  0  0  -0.859557  0  1.953404  0  0  -0.876466  0  1.922009  0  0  -0.713199  -0.847317  0  1.975473  0
O  O65  1  0.54487477  0.81879667  0.26633314  1  0  -0.900644  0  1.785375  0  0  -0.859565  0  1.953363  0  0  -0.876472  0  1.921969  0  0  -0.713193  -0.847315  0  1.975418  0
O  O66  1  0.04487570  0.81879733  0.23366864  1  0  -0.900666  0  1.78539  0  0  -0.859583  0  1.953397  0  0  -0.876493  0  1.922004  0  0  -0.713196  -0.847332  0  1.975457  0
O  O67  1  0.45512877  0.18120304  0.73366889  1  0  -0.90066  0  1.785401  0  0  -0.859588  0  1.95339  0  0  -0.876499  0  1.921994  0  0  -0.71318  -0.84734  0  1.975457  0
O  O68  1  0.23034511  0.95997408  0.45810133  1  0  -0.907406  0  1.76103  0  0  -0.865575  0  1.919482  0  0  -0.883195  0  1.889358  0  0  -0.713194  -0.852834  0  1.940621  0
O  O69  1  0.26964938  0.04002092  0.95810131  1  0  -0.907365  0  1.76108  0  0  -0.865523  0  1.919497  0  0  -0.883147  0  1.889369  0  0  -0.713158  -0.852777  0  1.94065  0
O  O70  1  0.76964369  0.04001332  0.54190215  1  0  -0.907528  0  1.760886  0  0  -0.865663  0  1.919352  0  0  -0.883289  0  1.889218  0  0  -0.713173  -0.852923  0  1.940503  0
O  O71  1  0.73035113  0.95998370  0.04189853  1  0  -0.907428  0  1.761009  0  0  -0.865571  0  1.91945  0  0  -0.883197  0  1.889316  0  0  -0.71316  -0.852827  0  1.940601  0
