# generated using pymatgen
data_ZnH8C10(NO2)3
_symmetry_space_group_name_H-M   'P 1'
_cell_length_a   7.06048792
_cell_length_b   8.40669208
_cell_length_c   19.14700000
_cell_angle_alpha   90.00000000
_cell_angle_beta   99.52338735
_cell_angle_gamma   90.00000000
_symmetry_Int_Tables_number   1
_chemical_formula_structural   ZnH8C10(NO2)3
_chemical_formula_sum   'Zn4 H32 C40 N12 O24'
_cell_volume   1120.81409164
_cell_formula_units_Z   4
loop_
 _symmetry_equiv_pos_site_id
 _symmetry_equiv_pos_as_xyz
  1  'x, y, z'
loop_
 _atom_site_type_symbol
 _atom_site_label
 _atom_site_symmetry_multiplicity
 _atom_site_fract_x
 _atom_site_fract_y
 _atom_site_fract_z
 _atom_site_occupancy
 _atom_site_hle17_bader_spin_density
 _atom_site_hle17_ddec_charge
 _atom_site_hle17_ddec_spin_density
 _atom_site_hle17_ddec_sum_bond_order
 _atom_site_hle17_magmom
 _atom_site_hse06_10hf_bader_spin_density
 _atom_site_hse06_10hf_ddec_charge
 _atom_site_hse06_10hf_ddec_spin_density
 _atom_site_hse06_10hf_ddec_sum_bond_order
 _atom_site_hse06_10hf_magmom
 _atom_site_hse06_bader_spin_density
 _atom_site_hse06_ddec_charge
 _atom_site_hse06_ddec_spin_density
 _atom_site_hse06_ddec_sum_bond_order
 _atom_site_hse06_magmom
 _atom_site_pbe_bader_charge
 _atom_site_pbe_bader_spin_density
 _atom_site_pbe_cm5_charge
 _atom_site_pbe_ddec_charge
 _atom_site_pbe_ddec_spin_density
 _atom_site_pbe_ddec_sum_bond_order
 _atom_site_pbe_magmom
Zn  Zn0  1  0.39260503  0.60589230  0.14131901  1  0  1.123837  0  1.82538  0  0  0.964623  0  2.282719  0  0  1.008838  0  2.226446  0  1.37039  0  0.682024  0.933656  0  2.32135  0
Zn  Zn1  1  0.60739335  0.10589421  0.35868188  1  0  1.123812  0  1.825406  0  0  0.964571  0  2.282799  0  0  1.008787  0  2.226524  0  1.370317  0  0.682014  0.933604  0  2.321432  0
Zn  Zn2  1  0.60739478  0.39410745  0.85868197  1  0  1.123833  0  1.8255  0  0  0.9646  0  2.282909  0  0  1.008813  0  2.226633  0  1.370306  0  0.682007  0.933635  0  2.321545  0
Zn  Zn3  1  0.39260503  0.89410911  0.64131901  1  0  1.123808  0  1.825245  0  0  0.964546  0  2.28262  0  0  1.008763  0  2.226346  0  1.370424  0  0.68202  0.933574  0  2.321251  0
H  H4  1  0.92950473  0.69423739  0.18137929  1  0  0.102476  0  0.938085  0  0  0.109707  0  1.002471  0  0  0.112442  0  0.999429  0  0.175447  0  0.138338  0.107603  0  1.004855  0
H  H5  1  0.07049508  0.19424168  0.31862273  1  0  0.102505  0  0.938112  0  0  0.109746  0  1.002488  0  0  0.11248  0  0.999449  0  0.175392  0  0.138358  0.107644  0  1.004872  0
H  H6  1  0.07048646  0.30576712  0.81862168  1  0  0.102417  0  0.938122  0  0  0.109651  0  1.002524  0  0  0.112384  0  0.999487  0  0.175435  0  0.138323  0.107567  0  1.004858  0
H  H7  1  0.92950330  0.80576045  0.68137921  1  0  0.102456  0  0.938081  0  0  0.109687  0  1.002467  0  0  0.112423  0  0.999425  0  0.175415  0  0.138325  0.107586  0  1.00485  0
H  H8  1  0.66901460  0.00536715  0.15322794  1  0  0.112571  0  0.933126  0  0  0.120847  0  0.995362  0  0  0.123739  0  0.993431  0  0.13993  0  0.127369  0.118686  0  0.99688  0
H  H9  1  0.33098090  0.50536762  0.34677434  1  0  0.112632  0  0.933145  0  0  0.120854  0  0.995427  0  0  0.123733  0  0.993532  0  0.139926  0  0.127371  0.118693  0  0.996945  0
H  H10  1  0.33098664  0.99462784  0.84677678  1  0  0.112599  0  0.933197  0  0  0.120828  0  0.995477  0  0  0.123719  0  0.993541  0  0.139942  0  0.127365  0.118667  0  0.996996  0
H  H11  1  0.66901891  0.49463332  0.65322559  1  0  0.112592  0  0.933199  0  0  0.120832  0  0.995465  0  0  0.123712  0  0.993568  0  0.139924  0  0.127362  0.118671  0  0.996984  0
H  H12  1  0.96424316  0.10593822  0.11184203  1  0  0.11375  0  0.966463  0  0  0.12175  0  1.027758  0  0  0.12527  0  1.025976  0  0.101347  0  0.111805  0.119211  0  1.029165  0
H  H13  1  0.03575664  0.60593869  0.38815947  1  0  0.113757  0  0.966534  0  0  0.121769  0  1.027815  0  0  0.125287  0  1.02603  0  0.101358  0  0.111813  0.119229  0  1.029223  0
H  H14  1  0.03576095  0.89406034  0.88816130  1  0  0.113763  0  0.966544  0  0  0.121779  0  1.027807  0  0  0.1253  0  1.026021  0  0.101383  0  0.11183  0.119239  0  1.029215  0
H  H15  1  0.96424316  0.39406344  0.61184046  1  0  0.11376  0  0.966486  0  0  0.121757  0  1.027778  0  0  0.125278  0  1.025992  0  0.101384  0  0.111814  0.119217  0  1.029188  0
H  H16  1  0.81725575  0.80157807  0.92805686  1  0  0.11896  0  0.951153  0  0  0.127075  0  1.012308  0  0  0.13071  0  1.01  0  0.140551  0  0.11351  0.124387  0  1.014287  0
H  H17  1  0.18274549  0.30157879  0.57194317  1  0  0.118999  0  0.951214  0  0  0.127119  0  1.012363  0  0  0.130754  0  1.010054  0  0.140535  0  0.113525  0.124432  0  1.014339  0
H  H18  1  0.18274836  0.19842406  0.07194282  1  0  0.119039  0  0.951151  0  0  0.127151  0  1.012295  0  0  0.130786  0  1.009986  0  0.140539  0  0.11353  0.124462  0  1.014273  0
H  H19  1  0.81724570  0.69841859  0.42805624  1  0  0.119023  0  0.951135  0  0  0.127151  0  1.012282  0  0  0.130785  0  1.009974  0  0.140532  0  0.113549  0.124468  0  1.014249  0
H  H20  1  0.53696433  0.70920761  0.97936281  1  0  0.124635  0  0.952177  0  0  0.131105  0  1.016274  0  0  0.134893  0  1.012631  0  0.176469  0  0.129761  0.128275  0  1.019072  0
H  H21  1  0.46303261  0.20920714  0.52063695  1  0  0.124627  0  0.952253  0  0  0.131135  0  1.016312  0  0  0.134922  0  1.012668  0  0.176448  0  0.129749  0.128304  0  1.019113  0
H  H22  1  0.46303691  0.29078976  0.02063669  1  0  0.124597  0  0.952288  0  0  0.131055  0  1.016384  0  0  0.134843  0  1.01274  0  0.176448  0  0.129741  0.128227  0  1.019179  0
H  H23  1  0.53696002  0.79078548  0.47936255  1  0  0.124633  0  0.95227  0  0  0.131092  0  1.01636  0  0  0.134879  0  1.012716  0  0.17643  0  0.129758  0.128264  0  1.019155  0
H  H24  1  0.06035890  0.49774988  0.06814064  1  0  0.424235  0  0.885061  0  0  0.393264  0  0.948708  0  0  0.402845  0  0.934906  0  0.660216  0  0.294062  0.386531  0  0.958402  0
H  H25  1  0.93964234  0.99774797  0.43185939  1  0  0.424292  0  0.884984  0  0  0.393325  0  0.94862  0  0  0.402907  0  0.934817  0  0.660194  0  0.294086  0.386593  0  0.958312  0
H  H26  1  0.93964378  0.50224987  0.93185895  1  0  0.424285  0  0.884973  0  0  0.393294  0  0.948662  0  0  0.402876  0  0.934858  0  0.660197  0  0.294068  0.38656  0  0.958356  0
H  H27  1  0.06035890  0.00224940  0.56814116  1  0  0.42427  0  0.88503  0  0  0.393297  0  0.948675  0  0  0.402879  0  0.93487  0  0.660205  0  0.294062  0.386563  0  0.95837  0
H  H28  1  0.16943261  0.58867506  0.01175193  1  0  0.432273  0  0.866885  0  0  0.398826  0  0.933723  0  0  0.410368  0  0.916817  0  0.635119  0  0.294675  0.390673  0  0.945658  0
H  H29  1  0.83056720  0.08867578  0.48824644  1  0  0.432201  0  0.866973  0  0  0.398765  0  0.933787  0  0  0.410305  0  0.916884  0  0.635139  0  0.294642  0.390611  0  0.945725  0
H  H30  1  0.83056863  0.41132469  0.98824757  1  0  0.43223  0  0.866918  0  0  0.398784  0  0.933758  0  0  0.410325  0  0.916854  0  0.635131  0  0.294646  0.390631  0  0.945693  0
H  H31  1  0.16943261  0.91132278  0.51175350  1  0  0.432271  0  0.866862  0  0  0.39882  0  0.93371  0  0  0.410362  0  0.916805  0  0.635131  0  0.294673  0.390667  0  0.945644  0
H  H32  1  0.91222240  0.83512991  0.29685072  1  0  0.316805  0  0.906451  0  0  0.29063  0  0.979061  0  0  0.300961  0  0.97019  0  0.558984  0  0.30871  0.283125  0  0.985626  0
H  H33  1  0.08777884  0.33512587  0.20314930  1  0  0.316792  0  0.906421  0  0  0.290657  0  0.97901  0  0  0.300987  0  0.970141  0  0.558954  0  0.308739  0.283157  0  0.985581  0
H  H34  1  0.08778028  0.16487460  0.70314991  1  0  0.316875  0  0.906309  0  0  0.290718  0  0.978917  0  0  0.301049  0  0.970046  0  0.558994  0  0.308744  0.283211  0  0.985487  0
H  H35  1  0.91222384  0.66486912  0.79685081  1  0  0.316757  0  0.90651  0  0  0.2906  0  0.979115  0  0  0.300931  0  0.970244  0  0.558963  0  0.308697  0.283097  0  0.985677  0
C  C36  1  0.05430564  0.73504893  0.21759167  1  0  0.261747  0  3.630699  0  0  0.197139  0  3.907908  0  0  0.211423  0  3.918707  0  1.018148  0  0.158597  0.187867  0  3.900304  0
C  C37  1  0.94569848  0.23504489  0.28240958  1  0  0.261672  0  3.630419  0  0  0.197087  0  3.907693  0  0  0.211368  0  3.918492  0  1.018138  0  0.158607  0.187809  0  3.900096  0
C  C38  1  0.94569130  0.26495796  0.78240862  1  0  0.261757  0  3.630529  0  0  0.197158  0  3.907767  0  0  0.211438  0  3.918568  0  1.018288  0  0.158613  0.187888  0  3.900178  0
C  C39  1  0.05430277  0.76495249  0.71758992  1  0  0.261807  0  3.63052  0  0  0.197233  0  3.907737  0  0  0.211514  0  3.91854  0  1.018125  0  0.158692  0.187955  0  3.90014  0
C  C40  1  0.34701811  0.79354756  0.26708896  1  0  -0.000551  0  3.723631  0  0  -0.005647  0  3.976312  0  0  -0.007184  0  3.994888  0  0.413874  0  0.079763  -0.004758  0  3.963948  0
C  C41  1  0.65298314  0.29354352  0.23290950  1  0  -0.000545  0  3.723663  0  0  -0.005671  0  3.976361  0  0  -0.007206  0  3.994941  0  0.413619  0  0.079745  -0.004777  0  3.963984  0
C  C42  1  0.65298027  0.20645576  0.73291193  1  0  -0.000494  0  3.723707  0  0  -0.00561  0  3.976377  0  0  -0.007145  0  3.994954  0  0.413928  0  0.079727  -0.004729  0  3.964029  0
C  C43  1  0.34701954  0.70644909  0.76708853  1  0  -0.000678  0  3.723653  0  0  -0.005755  0  3.976324  0  0  -0.007291  0  3.994896  0  0.413852  0  0.079711  -0.004865  0  3.963964  0
C  C44  1  0.22458987  0.85036063  0.31169095  1  0  0.006808  0  3.675955  0  0  -0.007269  0  3.937256  0  0  -0.008259  0  3.955475  0  0.393535  0  0.087273  -0.006747  0  3.925151  0
C  C45  1  0.77541137  0.35035184  0.18830698  1  0  0.00662  0  3.675955  0  0  -0.00733  0  3.937192  0  0  -0.008331  0  3.955426  0  0.393868  0  0.087229  -0.006799  0  3.925073  0
C  C46  1  0.77541137  0.14964745  0.68831064  1  0  0.006633  0  3.676049  0  0  -0.007381  0  3.937328  0  0  -0.008379  0  3.955556  0  0.393681  0  0.087271  -0.006858  0  3.925227  0
C  C47  1  0.22459131  0.64963483  0.81169156  1  0  0.006875  0  3.67571  0  0  -0.00719  0  3.937037  0  0  -0.008176  0  3.955247  0  0.393518  0  0.087246  -0.006672  0  3.92494  0
C  C48  1  0.55935065  0.78674941  0.27004755  1  0  0.647481  0  3.910533  0  0  0.597707  0  4.20845  0  0  0.632682  0  4.198188  0  1.616973  0  0.211005  0.573925  0  4.214776  0
C  C49  1  0.44065347  0.28674537  0.22995317  1  0  0.647477  0  3.910661  0  0  0.597692  0  4.20859  0  0  0.632669  0  4.198323  0  1.616915  0  0.210986  0.573909  0  4.214915  0
C  C50  1  0.44064772  0.21325035  0.72995021  1  0  0.647618  0  3.910539  0  0  0.597835  0  4.208443  0  0  0.632812  0  4.198176  0  1.616731  0  0.211103  0.574054  0  4.214772  0
C  C51  1  0.55934491  0.71325677  0.77004459  1  0  0.647688  0  3.910269  0  0  0.597909  0  4.208156  0  0  0.632884  0  4.197883  0  1.616932  0  0.211115  0.574127  0  4.214487  0
C  C52  1  0.25610277  0.91746907  0.38440376  1  0  0.648112  0  3.933294  0  0  0.592372  0  4.237915  0  0  0.626334  0  4.229239  0  1.626026  0  0.221131  0.569366  0  4.243124  0
C  C53  1  0.74390279  0.41746503  0.11559548  1  0  0.648315  0  3.933116  0  0  0.592543  0  4.237744  0  0  0.626509  0  4.229067  0  1.625838  0  0.221233  0.569533  0  4.242957  0
C  C54  1  0.74388268  0.08252949  0.61559635  1  0  0.648048  0  3.933217  0  0  0.592283  0  4.23786  0  0  0.626248  0  4.229186  0  1.625792  0  0.221082  0.569274  0  4.243075  0
C  C55  1  0.25609415  0.58253234  0.88440271  1  0  0.648312  0  3.933233  0  0  0.592588  0  4.237821  0  0  0.62655  0  4.229144  0  1.625741  0  0.221253  0.569582  0  4.243037  0
C  C56  1  0.71264696  0.96692134  0.10409019  1  0  -0.006053  0  3.626672  0  0  -0.048539  0  3.895182  0  0  -0.042885  0  3.908851  0  0.316861  0  0.031241  -0.052113  0  3.886211  0
C  C57  1  0.28736003  0.46691730  0.39590600  1  0  -0.005988  0  3.626189  0  0  -0.048405  0  3.894687  0  0  -0.042751  0  3.90834  0  0.317016  0  0.031295  -0.051981  0  3.885716  0
C  C58  1  0.28736434  0.03307960  0.89590783  1  0  -0.006013  0  3.626099  0  0  -0.048452  0  3.894609  0  0  -0.042789  0  3.908264  0  0.317015  0  0.031237  -0.05203  0  3.885643  0
C  C59  1  0.71264265  0.53308126  0.60409411  1  0  -0.005967  0  3.626344  0  0  -0.048415  0  3.89484  0  0  -0.042761  0  3.908494  0  0.317075  0  0.031266  -0.051992  0  3.88587  0
C  C60  1  0.87449252  0.01968789  0.07964414  1  0  -0.116562  0  3.721074  0  0  -0.139433  0  3.980322  0  0  -0.143564  0  3.997517  0  0.101388  0  -0.077246  -0.136785  0  3.968647  0
C  C61  1  0.12549867  0.51969312  0.42035841  1  0  -0.116583  0  3.720866  0  0  -0.139465  0  3.980161  0  0  -0.143588  0  3.997352  0  0.101438  0  -0.077256  -0.136817  0  3.968488  0
C  C62  1  0.12550011  0.98030830  0.92035902  1  0  -0.11656  0  3.720873  0  0  -0.139447  0  3.980166  0  0  -0.143575  0  3.997355  0  0.101375  0  -0.077209  -0.136798  0  3.968496  0
C  C63  1  0.87449683  0.48031021  0.57964231  1  0  -0.116609  0  3.721039  0  0  -0.139481  0  3.980303  0  0  -0.143608  0  3.99749  0  0.101229  0  -0.077241  -0.136831  0  3.96863  0
C  C64  1  0.91756192  0.96828692  0.01420056  1  0  0.097237  0  3.724825  0  0  0.10219  0  3.964793  0  0  0.107523  0  3.981308  0  -0.043719  0  0.011534  0.098911  0  3.953011  0
C  C65  1  0.08244220  0.46829359  0.48579755  1  0  0.097261  0  3.725054  0  0  0.102127  0  3.965148  0  0  0.107455  0  3.981667  0  -0.043638  0  0.011533  0.098849  0  3.953363  0
C  C66  1  0.08244795  0.03171402  0.98579790  1  0  0.097297  0  3.725197  0  0  0.102168  0  3.96523  0  0  0.107493  0  3.981751  0  0.009222  0  0.01144  0.098888  0  3.953446  0
C  C67  1  0.91755904  0.53170854  0.51420300  1  0  0.09732  0  3.724927  0  0  0.10227  0  3.964937  0  0  0.1076  0  3.981455  0  0.009314  0  0.011509  0.098989  0  3.953155  0
C  C68  1  0.79338304  0.85329758  0.97798285  1  0  -0.099609  0  3.677719  0  0  -0.120894  0  3.933656  0  0  -0.123509  0  3.947765  0  0.018574  0  -0.068165  -0.11971  0  3.924588  0
C  C69  1  0.20661246  0.35330068  0.52201996  1  0  -0.099687  0  3.677377  0  0  -0.120961  0  3.933369  0  0  -0.123572  0  3.947475  0  0.018785  0  -0.068209  -0.119778  0  3.924303  0
C  C70  1  0.20661676  0.14670098  0.02201866  1  0  -0.099807  0  3.677551  0  0  -0.121063  0  3.933495  0  0  -0.123674  0  3.9476  0  0.018781  0  -0.068204  -0.11988  0  3.924431  0
C  C71  1  0.79338161  0.64670264  0.47798015  1  0  -0.099751  0  3.677389  0  0  -0.121083  0  3.933391  0  0  -0.123694  0  3.947494  0  0.018765  0  -0.06823  -0.1199  0  3.92433  0
C  C72  1  0.63458781  0.80022201  0.00441006  1  0  0.013963  0  3.581046  0  0  -0.029359  0  3.845167  0  0  -0.022256  0  3.855816  0  0.344788  0  0.036771  -0.033904  0  3.838456  0
C  C73  1  0.36542349  0.30021678  0.49558796  1  0  0.014009  0  3.580804  0  0  -0.02934  0  3.844915  0  0  -0.022239  0  3.855567  0  0.344658  0  0.036825  -0.033886  0  3.838203  0
C  C74  1  0.36542061  0.19978726  0.99558674  1  0  0.014135  0  3.58096  0  0  -0.029156  0  3.845027  0  0  -0.022054  0  3.855677  0  0.344647  0  0.036867  -0.033704  0  3.838318  0
C  C75  1  0.63457919  0.69978179  0.50441267  1  0  0.013988  0  3.581053  0  0  -0.029277  0  3.845139  0  0  -0.022177  0  3.855795  0  0.344654  0  0.036815  -0.033824  0  3.838427  0
N  N76  1  0.23700805  0.72083644  0.20975312  1  0  -0.394964  0  3.259165  0  0  -0.328838  0  3.543291  0  0  -0.346842  0  3.556314  0  -1.238451  0  -0.343543  -0.31651  0  3.534116  0
N  N77  1  0.76299033  0.22083359  0.29024672  1  0  -0.394953  0  3.259024  0  0  -0.328834  0  3.543182  0  0  -0.346837  0  3.556207  0  -1.238379  0  -0.34355  -0.316505  0  3.534008  0
N  N78  1  0.76298315  0.27916688  0.79024681  1  0  -0.394928  0  3.259048  0  0  -0.328779  0  3.54315  0  0  -0.346778  0  3.556173  0  -1.238541  0  -0.343531  -0.316453  0  3.533983  0
N  N79  1  0.23700805  0.77916259  0.70975312  1  0  -0.394983  0  3.259114  0  0  -0.328878  0  3.543254  0  0  -0.346884  0  3.556282  0  -1.238412  0  -0.343579  -0.316547  0  3.534081  0
N  N80  1  0.04148678  0.81034370  0.27894621  1  0  -0.29154  0  3.418529  0  0  -0.22853  0  3.657139  0  0  -0.244526  0  3.670526  0  -1.289467  0  -0.362621  -0.217718  0  3.648154  0
N  N81  1  0.95851877  0.31033729  0.22105146  1  0  -0.2914  0  3.418247  0  0  -0.228548  0  3.656965  0  0  -0.244539  0  3.670353  0  -1.28947  0  -0.362639  -0.217748  0  3.647986  0
N  N82  1  0.95851159  0.18966200  0.72105363  1  0  -0.291462  0  3.418462  0  0  -0.228559  0  3.657147  0  0  -0.244551  0  3.670534  0  -1.28955  0  -0.362638  -0.21775  0  3.648167  0
N  N83  1  0.04148104  0.68965414  0.77894691  1  0  -0.291509  0  3.418291  0  0  -0.22858  0  3.656975  0  0  -0.244576  0  3.670359  0  -1.289386  0  -0.362624  -0.217768  0  3.647995  0
N  N84  1  0.59075727  0.86124958  0.06583007  1  0  0.274416  0  3.737822  0  0  0.327919  0  3.998246  0  0  0.328142  0  4.021404  0  -0.635914  0  -0.114054  0.327092  0  3.982768  0
N  N85  1  0.40923536  0.36124911  0.43417047  1  0  0.274326  0  3.737951  0  0  0.327827  0  3.998366  0  0  0.32805  0  4.021522  0  -0.636197  0  -0.114067  0.327003  0  3.982885  0
N  N86  1  0.40923967  0.13875255  0.93417125  1  0  0.274339  0  3.738074  0  0  0.327833  0  3.998477  0  0  0.328055  0  4.021633  0  -0.636178  0  -0.114069  0.327008  0  3.983001  0
N  N87  1  0.59075871  0.63875184  0.56583016  1  0  0.274419  0  3.73803  0  0  0.327913  0  3.998443  0  0  0.328136  0  4.021598  0  -0.63613  0  -0.114039  0.327089  0  3.982963  0
O  O88  1  0.61879331  0.69143486  0.22695143  1  0  -0.628937  0  2.011549  0  0  -0.581132  0  2.268589  0  0  -0.60715  0  2.258476  0  -1.166344  0  -0.31435  -0.562932  0  2.274991  0
O  O89  1  0.38120507  0.19143915  0.27304685  1  0  -0.628862  0  2.011731  0  0  -0.581029  0  2.268757  0  0  -0.607041  0  2.258638  0  -1.166281  0  -0.314294  -0.562835  0  2.275175  0
O  O90  1  0.38120219  0.30857321  0.77304825  1  0  -0.629101  0  2.011315  0  0  -0.581272  0  2.268325  0  0  -0.607293  0  2.258218  0  -1.166155  0  -0.314473  -0.56307  0  2.274717  0
O  O91  1  0.61879187  0.80855822  0.72695343  1  0  -0.628885  0  2.011756  0  0  -0.58107  0  2.268797  0  0  -0.60708  0  2.258681  0  -1.166372  0  -0.314362  -0.562876  0  2.27521  0
O  O92  1  0.67204196  0.87360164  0.31355888  1  0  -0.641997  0  2.040133  0  0  -0.580449  0  2.291224  0  0  -0.606798  0  2.278094  0  -1.190174  0  -0.312785  -0.56186  0  2.2996  0
O  O93  1  0.32795785  0.37360355  0.18644001  1  0  -0.642056  0  2.040067  0  0  -0.580506  0  2.291153  0  0  -0.60686  0  2.278028  0  -1.190138  0  -0.312815  -0.561919  0  2.299536  0
O  O94  1  0.32795642  0.12640406  0.68644201  1  0  -0.642  0  2.040406  0  0  -0.580414  0  2.291452  0  0  -0.606767  0  2.278333  0  -1.190197  0  -0.31273  -0.561827  0  2.299831  0
O  O95  1  0.67204626  0.62639263  0.81356123  1  0  -0.642199  0  2.039705  0  0  -0.580624  0  2.290746  0  0  -0.606987  0  2.277636  0  -1.190083  0  -0.312846  -0.562032  0  2.299123  0
O  O96  1  0.40745600  0.99516908  0.40763427  1  0  -0.615594  0  2.096139  0  0  -0.553834  0  2.366277  0  0  -0.579601  0  2.351519  0  -1.178448  0  -0.306928  -0.535855  0  2.375839  0
O  O97  1  0.59254668  0.49516980  0.09236584  1  0  -0.615715  0  2.095942  0  0  -0.553966  0  2.366106  0  0  -0.579736  0  2.351346  0  -1.178317  0  -0.306982  -0.535972  0  2.375633  0
O  O98  1  0.59254812  0.00483900  0.59236593  1  0  -0.615472  0  2.096378  0  0  -0.553693  0  2.366507  0  0  -0.579458  0  2.351752  0  -1.178508  0  -0.306854  -0.535694  0  2.376024  0
O  O99  1  0.40746174  0.50482639  0.90763514  1  0  -0.615836  0  2.095779  0  0  -0.554131  0  2.365986  0  0  -0.579899  0  2.351222  0  -1.178154  0  -0.307086  -0.536157  0  2.375548  0
O  O100  1  0.12607025  0.88569082  0.42119445  1  0  -0.638409  0  2.028425  0  0  -0.572451  0  2.248688  0  0  -0.597848  0  2.238954  0  -1.183557  0  -0.308294  -0.554683  0  2.254966  0
O  O101  1  0.87393387  0.38568916  0.07880366  1  0  -0.638412  0  2.028407  0  0  -0.572448  0  2.248689  0  0  -0.597839  0  2.23895  0  -1.183444  0  -0.308318  -0.554679  0  2.25497  0
O  O102  1  0.87393531  0.11431131  0.57880479  1  0  -0.638471  0  2.028105  0  0  -0.572505  0  2.248362  0  0  -0.597902  0  2.238627  0  -1.183285  0  -0.30833  -0.554731  0  2.254639  0
O  O103  1  0.12607168  0.61430821  0.92119349  1  0  -0.638365  0  2.028743  0  0  -0.572388  0  2.249004  0  0  -0.597783  0  2.23927  0  -1.183527  0  -0.30824  -0.554617  0  2.255281  0
O  O104  1  0.42972456  0.82274811  0.08740098  1  0  -0.541921  0  1.831464  0  0  -0.497818  0  2.082556  0  0  -0.523815  0  2.08286  0  -0.631142  0  -0.238609  -0.479603  0  2.081858  0
O  O105  1  0.57027669  0.32274883  0.41259904  1  0  -0.541877  0  1.831343  0  0  -0.497782  0  2.082444  0  0  -0.523777  0  2.082745  0  -0.631141  0  -0.238608  -0.479564  0  2.081745  0
O  O106  1  0.57027956  0.17725164  0.91259922  1  0  -0.541896  0  1.831415  0  0  -0.497804  0  2.082511  0  0  -0.5238  0  2.082813  0  -0.631188  0  -0.238599  -0.479583  0  2.081802  0
O  O107  1  0.42972168  0.67724974  0.58740237  1  0  -0.541945  0  1.831412  0  0  -0.497848  0  2.082506  0  0  -0.523842  0  2.082808  0  -0.631199  0  -0.238619  -0.479631  0  2.081805  0
O  O108  1  0.16148797  0.57617312  0.06285964  1  0  -0.843224  0  1.934798  0  0  -0.780965  0  2.151156  0  0  -0.801936  0  2.116213  0  -1.27789  0  -0.590991  -0.766143  0  2.175332  0
O  O109  1  0.83851471  0.07617503  0.43714047  1  0  -0.843209  0  1.934813  0  0  -0.780955  0  2.151179  0  0  -0.801924  0  2.116237  0  -1.277886  0  -0.59099  -0.766133  0  2.175354  0
O  O110  1  0.83851471  0.42382425  0.93714047  1  0  -0.843217  0  1.934729  0  0  -0.780951  0  2.151069  0  0  -0.801921  0  2.116126  0  -1.277877  0  -0.590964  -0.766131  0  2.175245  0
O  O111  1  0.16148366  0.92382591  0.56286043  1  0  -0.843253  0  1.934748  0  0  -0.780997  0  2.151126  0  0  -0.801968  0  2.116181  0  -1.277874  0  -0.590999  -0.766174  0  2.175304  0
