# generated using pymatgen
data_TlH2C3S
_symmetry_space_group_name_H-M   'P 1'
_cell_length_a   6.51195482
_cell_length_b   6.87480336
_cell_length_c   9.68391188
_cell_angle_alpha   70.28454473
_cell_angle_beta   88.90568417
_cell_angle_gamma   89.82567220
_symmetry_Int_Tables_number   1
_chemical_formula_structural   TlH2C3S
_chemical_formula_sum   'Tl4 H8 C12 S4'
_cell_volume   408.04232271
_cell_formula_units_Z   4
loop_
 _symmetry_equiv_pos_site_id
 _symmetry_equiv_pos_as_xyz
  1  'x, y, z'
loop_
 _atom_site_type_symbol
 _atom_site_label
 _atom_site_symmetry_multiplicity
 _atom_site_fract_x
 _atom_site_fract_y
 _atom_site_fract_z
 _atom_site_occupancy
 _atom_site_pbe_bader_spin_density
 _atom_site_pbe_cm5_charge
 _atom_site_pbe_ddec_charge
 _atom_site_pbe_ddec_spin_density
 _atom_site_pbe_ddec_sum_bond_order
 _atom_site_pbe_magmom
Tl  Tl0  1  0.02931307  0.60241817  0.65453934  1  0  0.262017  0.46446  0  1.482887  0
Tl  Tl1  1  0.97068509  0.39757686  0.34547197  1  0  0.262013  0.464441  0  1.482898  0
Tl  Tl2  1  0.50960452  0.89825881  0.34341733  1  0  0.262802  0.465916  0  1.485472  0
Tl  Tl3  1  0.49038821  0.10175056  0.65657020  1  0  0.262782  0.465967  0  1.485258  0
H  H4  1  0.23470774  0.75132055  0.16972978  1  0  0.079381  0.082427  0  1.104639  0
H  H5  1  0.76526733  0.24870706  0.83026962  1  0  0.079379  0.082435  0  1.104559  0
H  H6  1  0.75814853  0.21234625  0.09026183  1  0  0.088869  0.094491  0  1.065568  0
H  H7  1  0.24183857  0.78764119  0.90974539  1  0  0.088889  0.094597  0  1.065203  0
H  H8  1  0.73518944  0.70906998  0.09333979  1  0  0.088693  0.094119  0  1.064402  0
H  H9  1  0.26486780  0.29093620  0.90664741  1  0  0.088722  0.094251  0  1.064579  0
H  H10  1  0.25305244  0.25309761  0.16691390  1  0  0.080272  0.08344  0  1.099796  0
H  H11  1  0.74696920  0.74689637  0.83307209  1  0  0.080242  0.083413  0  1.100019  0
C  C12  1  0.99431903  0.97644828  0.15258415  1  0  -0.023826  0.111673  0  4.053071  0
C  C13  1  0.00563127  0.02356013  0.84745353  1  0  -0.023602  0.111857  0  4.052404  0
C  C14  1  0.13062470  0.86109363  0.09599165  1  0  -0.107806  -0.142657  0  3.990402  0
C  C15  1  0.86933133  0.13891188  0.90403721  1  0  -0.107984  -0.142872  0  3.990345  0
C  C16  1  0.86377918  0.11664580  0.05253191  1  0  -0.102957  -0.128819  0  3.95794  0
C  C17  1  0.13615805  0.88333823  0.94749630  1  0  -0.102869  -0.128997  0  3.958096  0
C  C18  1  0.49460131  0.47565325  0.15278007  1  0  -0.023586  0.112331  0  4.049761  0
C  C19  1  0.50543432  0.52431665  0.84725337  1  0  -0.023535  0.112451  0  4.048719  0
C  C20  1  0.63215703  0.61510677  0.05410472  1  0  -0.102271  -0.129048  0  3.95672  0
C  C21  1  0.36784782  0.38489802  0.94588036  1  0  -0.102334  -0.129419  0  3.957411  0
C  C22  1  0.36253922  0.36200765  0.09450150  1  0  -0.106514  -0.140626  0  3.986357  0
C  C23  1  0.63751957  0.63800317  0.90548458  1  0  -0.106512  -0.14076  0  3.98676  0
S  S24  1  0.98963493  0.95043797  0.33997726  1  0  -0.197111  -0.481977  0  2.576379  0
S  S25  1  0.01032697  0.04956531  0.66001060  1  0  -0.197188  -0.482108  0  2.575398  0
S  S26  1  0.48396914  0.44929987  0.34019184  1  0  -0.197936  -0.48539  0  2.572761  0
S  S27  1  0.51609445  0.55069839  0.65973189  1  0  -0.198029  -0.485595  0  2.570939  0
