# generated using pymatgen
data_H48Pb4C66O13
_symmetry_space_group_name_H-M   'P 1'
_cell_length_a   6.97029418
_cell_length_b   20.56673085
_cell_length_c   23.85623259
_cell_angle_alpha   68.87676922
_cell_angle_beta   81.62781711
_cell_angle_gamma   80.22582855
_symmetry_Int_Tables_number   1
_chemical_formula_structural   H48Pb4C66O13
_chemical_formula_sum   'H96 Pb8 C132 O26'
_cell_volume   3130.55141880
_cell_formula_units_Z   2
loop_
 _symmetry_equiv_pos_site_id
 _symmetry_equiv_pos_as_xyz
  1  'x, y, z'
loop_
 _atom_site_type_symbol
 _atom_site_label
 _atom_site_symmetry_multiplicity
 _atom_site_fract_x
 _atom_site_fract_y
 _atom_site_fract_z
 _atom_site_occupancy
 _atom_site_pbe_bader_charge
 _atom_site_pbe_bader_spin_density
 _atom_site_pbe_cm5_charge
 _atom_site_pbe_ddec_charge
 _atom_site_pbe_ddec_spin_density
 _atom_site_pbe_ddec_sum_bond_order
 _atom_site_pbe_magmom
H  H0  1  0.46976664  0.62396847  0.18918904  1  0.084956  0  0.099843  0.087879  0  1.069046  0
H  H1  1  0.28223774  0.87619755  0.31071978  1  0.074297  0  0.099704  0.088107  0  1.068888  0
H  H2  1  0.53026611  0.37603160  0.81081282  1  0.085105  0  0.099855  0.087914  0  1.069014  0
H  H3  1  0.71776852  0.12381565  0.68927891  1  0.075556  0  0.099757  0.088233  0  1.068923  0
H  H4  1  0.44222206  0.53628026  0.14205480  1  0.087465  0  0.101913  0.106275  0  1.005294  0
H  H5  1  0.11996339  0.96384253  0.35792471  1  0.084893  0  0.101697  0.106109  0  1.005291  0
H  H6  1  0.55779808  0.46371447  0.85795252  1  0.087044  0  0.10189  0.106288  0  1.005339  0
H  H7  1  0.88004501  0.03616050  0.64208443  1  0.084962  0  0.10167  0.106123  0  1.005449  0
H  H8  1  0.74422163  0.66060251  0.97784618  1  0.08341  0  0.096356  0.093565  0  1.046038  0
H  H9  1  0.38246072  0.83926432  0.52213048  1  0.074697  0  0.096621  0.093931  0  1.046129  0
H  H10  1  0.25571716  0.33940510  0.02214648  1  0.084097  0  0.096398  0.093741  0  1.046091  0
H  H11  1  0.61756530  0.16072636  0.47787150  1  0.074654  0  0.096616  0.093815  0  1.046245  0
H  H12  1  0.78563081  0.74503033  0.02730376  1  0.09729  0  0.108582  0.114076  0  0.983853  0
H  H13  1  0.55797970  0.75496419  0.47259181  1  0.09601  0  0.108577  0.113832  0  0.983758  0
H  H14  1  0.21433155  0.25497629  0.97268696  1  0.096845  0  0.108549  0.114116  0  0.983925  0
H  H15  1  0.44204967  0.24503346  0.52740295  1  0.096079  0  0.108549  0.113865  0  0.983747  0
H  H16  1  0.74693911  0.46014736  0.07378003  1  0.050273  0  0.092994  0.097618  0  1.05899  0
H  H17  1  0.28039409  0.03979724  0.42613120  1  0.062567  0  0.09333  0.097891  0  1.057433  0
H  H18  1  0.25300982  0.53984794  0.92622548  1  0.053319  0  0.093035  0.097541  0  1.058915  0
H  H19  1  0.71960658  0.96019115  0.57387964  1  0.062756  0  0.093296  0.097863  0  1.057568  0
H  H20  1  0.85235871  0.01166904  0.10783299  1  0.09575  0  0.105483  0.105963  0  1.000147  0
H  H21  1  0.97215621  0.48846852  0.39194228  1  0.079045  0  0.105558  0.106023  0  1.001053  0
H  H22  1  0.14762364  0.98835888  0.89214013  1  0.095915  0  0.105475  0.10596  0  1.000147  0
H  H23  1  0.02785921  0.51152741  0.60805860  1  0.078893  0  0.105538  0.106006  0  1.001  0
H  H24  1  0.83648785  0.13739705  0.09814315  1  0.056398  0  0.103602  0.109973  0  0.99559  0
H  H25  1  0.07329940  0.36275629  0.40165477  1  0.051985  0  0.103761  0.10986  0  0.995738  0
H  H26  1  0.16350778  0.86262589  0.90184179  1  0.05693  0  0.103536  0.109785  0  0.995767  0
H  H27  1  0.92672220  0.63723852  0.59834912  1  0.051993  0  0.103757  0.109858  0  0.995793  0
H  H28  1  0.26473267  0.07770778  0.22681684  1  0.067002  0  0.098992  0.098152  0  1.043077  0
H  H29  1  0.57075648  0.42262271  0.27335486  1  0.085916  0  0.098709  0.09789  0  1.044103  0
H  H30  1  0.73523776  0.92229247  0.77317835  1  0.066945  0  0.099027  0.098164  0  1.043013  0
H  H31  1  0.42925227  0.57737168  0.72664508  1  0.086102  0  0.098723  0.097966  0  1.044062  0
H  H32  1  0.28211100  0.95388010  0.23494308  1  0.056674  0  0.097339  0.081632  0  1.076255  0
H  H33  1  0.47148730  0.54643515  0.26521511  1  0.051453  0  0.09736  0.08142  0  1.075978  0
H  H34  1  0.71784218  0.04612406  0.76504161  1  0.056119  0  0.09739  0.081705  0  1.076173  0
H  H35  1  0.52852290  0.45355921  0.73478603  1  0.051596  0  0.097381  0.081403  0  1.075999  0
H  H36  1  0.73994683  0.19490572  0.19190312  1  0.052997  0  0.09469  0.092534  0  1.055545  0
H  H37  1  0.12785799  0.30545057  0.30820171  1  0.073441  0  0.094417  0.092329  0  1.055832  0
H  H38  1  0.26004816  0.80509860  0.80809613  1  0.053125  0  0.094667  0.092485  0  1.055542  0
H  H39  1  0.87214602  0.69454459  0.69180951  1  0.073321  0  0.094416  0.092405  0  1.055922  0
H  H40  1  0.31312412  0.32401791  0.12666039  1  0.061261  0  0.100135  0.103179  0  1.030176  0
H  H41  1  0.76483179  0.17590752  0.37358644  1  0.076294  0  0.099928  0.103423  0  1.030395  0
H  H42  1  0.68688178  0.67598427  0.87334072  1  0.061363  0  0.100098  0.103165  0  1.030264  0
H  H43  1  0.23519522  0.82408829  0.62641902  1  0.076536  0  0.099974  0.10363  0  1.03026  0
H  H44  1  0.61831260  0.37990466  0.17101069  1  0.02642  0  0.090028  0.129739  0  1.011581  0
H  H45  1  0.16941366  0.12044437  0.32924356  1  0.068558  0  0.090178  0.129566  0  1.011562  0
H  H46  1  0.38167590  0.62009737  0.82899664  1  0.026403  0  0.090075  0.129801  0  1.011571  0
H  H47  1  0.83059665  0.87955358  0.67075987  1  0.06866  0  0.090179  0.12954  0  1.011493  0
H  H48  1  0.63461246  0.32018929  0.24569863  1  0.057234  0  0.085008  0.115778  0  1.06834  0
H  H49  1  0.20039581  0.18016137  0.25456724  1  0.031858  0  0.085356  0.115977  0  1.067902  0
H  H50  1  0.36539186  0.67980909  0.75430870  1  0.057441  0  0.084999  0.115787  0  1.068303  0
H  H51  1  0.79963025  0.81983702  0.74543960  1  0.031619  0  0.085293  0.115901  0  1.06792  0
H  H52  1  0.53230478  0.29665021  0.19387471  1  0.022557  0  0.087733  0.125258  0  1.021596  0
H  H53  1  0.02317508  0.20377701  0.30642406  1  0.030037  0  0.087732  0.125084  0  1.022678  0
H  H54  1  0.46769588  0.70335031  0.80613046  1  0.022421  0  0.087748  0.12527  0  1.021647  0
H  H55  1  0.97684412  0.79622040  0.69358000  1  0.029874  0  0.087704  0.125069  0  1.022661  0
H  H56  1  0.41009245  0.14028451  0.12476390  1  0.035795  0  0.089418  0.12846  0  1.02646  0
H  H57  1  0.67641039  0.35976417  0.37540423  1  0.035261  0  0.089376  0.128065  0  1.026235  0
H  H58  1  0.58990134  0.85971499  0.87524060  1  0.035924  0  0.089414  0.128445  0  1.026478  0
H  H59  1  0.32360408  0.64023435  0.62459717  1  0.035226  0  0.089366  0.128059  0  1.026191  0
H  H60  1  0.52215054  0.20826259  0.13146422  1  0.033513  0  0.086037  0.114262  0  1.050731  0
H  H61  1  0.86337876  0.29185450  0.36862243  1  0.038759  0  0.086174  0.114536  0  1.051706  0
H  H62  1  0.47784958  0.79173971  0.86853207  1  0.03374  0  0.086034  0.114289  0  1.050682  0
H  H63  1  0.13664056  0.70814653  0.63138349  1  0.03885  0  0.086156  0.1144  0  1.051699  0
H  H64  1  0.41976461  0.22113275  0.06433842  1  0.049347  0  0.092531  0.132357  0  1.019165  0
H  H65  1  0.70698695  0.27886925  0.43577369  1  0.04489  0  0.092286  0.131772  0  1.018727  0
H  H66  1  0.58022422  0.77886059  0.93566181  1  0.049323  0  0.092528  0.132304  0  1.019204  0
H  H67  1  0.29303143  0.72113447  0.56422897  1  0.045001  0  0.092262  0.131702  0  1.018788  0
H  H68  1  0.88866957  0.49419549  0.25882821  1  0.058353  0  0.098973  0.094557  0  1.027955  0
H  H69  1  0.64054530  0.00600562  0.24129313  1  0.06111  0  0.098916  0.094926  0  1.028023  0
H  H70  1  0.11133456  0.50580343  0.74117854  1  0.058507  0  0.09903  0.094635  0  1.028012  0
H  H71  1  0.35947793  0.99400077  0.75870644  1  0.061255  0  0.098862  0.094854  0  1.027989  0
H  H72  1  0.88511425  0.37455215  0.25657329  1  0.059783  0  0.098274  0.097184  0  1.030283  0
H  H73  1  0.51562506  0.12560030  0.24371634  1  0.051148  0  0.098366  0.097053  0  1.030007  0
H  H74  1  0.11490853  0.62544734  0.74343126  1  0.059818  0  0.098291  0.097243  0  1.030255  0
H  H75  1  0.48437861  0.87440380  0.75629185  1  0.051193  0  0.098342  0.096977  0  1.030087  0
H  H76  1  0.13507009  0.44104749  0.07167712  1  0.072905  0  0.098757  0.098207  0  1.029624  0
H  H77  1  0.64929797  0.05879315  0.42851167  1  0.060342  0  0.098874  0.09815  0  1.030203  0
H  H78  1  0.86490870  0.55896152  0.92832227  1  0.073009  0  0.098721  0.098227  0  1.029608  0
H  H79  1  0.35071909  0.94120210  0.57149563  1  0.059869  0  0.098868  0.098097  0  1.030137  0
H  H80  1  0.12687142  0.56111440  0.07391738  1  0.092474  0  0.104612  0.10788  0  1.041767  0
H  H81  1  0.76260656  0.93873694  0.42613736  1  0.127506  0  0.104466  0.107457  0  1.042305  0
H  H82  1  0.87309017  0.43889410  0.92608203  1  0.098508  0  0.104569  0.107867  0  1.041717  0
H  H83  1  0.23741813  0.06125738  0.57386528  1  0.127353  0  0.104519  0.107558  0  1.042329  0
H  H84  1  0.83709213  0.35326157  0.05497499  1  0.04144  0  0.086886  0.125883  0  1.027449  0
H  H85  1  0.24556436  0.14649661  0.44513832  1  0.035722  0  0.087196  0.126067  0  1.02711  0
H  H86  1  0.16284848  0.64673272  0.94502906  1  0.041281  0  0.086743  0.125551  0  1.02751  0
H  H87  1  0.75444081  0.85348352  0.55486847  1  0.036044  0  0.08719  0.126096  0  1.027095  0
H  H88  1  0.75832650  0.34304877  0.99111314  1  0.063286  0  0.094282  0.143537  0  1.007727  0
H  H89  1  0.09234518  0.15695113  0.50881973  1  0.068089  0  0.094209  0.143957  0  1.007205  0
H  H90  1  0.24161070  0.65695493  0.00889038  1  0.062541  0  0.094355  0.14359  0  1.007683  0
H  H91  1  0.90767176  0.84304057  0.49118359  1  0.067955  0  0.094209  0.143974  0  1.007115  0
H  H92  1  0.61926537  0.31682368  0.06169608  1  0.025508  0  0.085656  0.120766  0  1.033708  0
H  H93  1  0.99819429  0.18316241  0.43811776  1  0.034079  0  0.085592  0.120801  0  1.034247  0
H  H94  1  0.38069347  0.68316437  0.93830696  1  0.025872  0  0.085566  0.120662  0  1.033829  0
H  H95  1  0.00181863  0.81682036  0.56188794  1  0.034087  0  0.085562  0.120777  0  1.034172  0
Pb  Pb96  1  0.62940100  0.84380965  0.20627707  1  1.40973  0  0.628663  1.105185  0  1.93982  0
Pb  Pb97  1  0.67908545  0.65658059  0.29338004  1  1.408213  0  0.628658  1.105688  0  1.940765  0
Pb  Pb98  1  0.37057934  0.15618333  0.79371649  1  1.409728  0  0.628687  1.105199  0  1.939642  0
Pb  Pb99  1  0.32094756  0.34341484  0.70661983  1  1.408011  0  0.628647  1.105632  0  1.940825  0
Pb  Pb100  1  0.01915999  0.75695468  0.32685759  1  1.410204  0  0.650097  1.1291  0  1.774719  0
Pb  Pb101  1  0.10328805  0.74319907  0.17299876  1  1.41128  0  0.650237  1.129446  0  1.773844  0
Pb  Pb102  1  0.98090664  0.24307306  0.67310160  1  1.410338  0  0.65007  1.129035  0  1.774797  0
Pb  Pb103  1  0.89672891  0.25680513  0.82698410  1  1.411319  0  0.650182  1.129415  0  1.773975  0
C  C104  1  0.63912754  0.74160687  0.14060278  1  1.515873  0  0.211414  0.54862  0  4.219274  0
C  C105  1  0.52116089  0.75862456  0.35914996  1  1.489756  0  0.211787  0.549142  0  4.216209  0
C  C106  1  0.36086111  0.25839916  0.85939036  1  1.516262  0  0.211428  0.548617  0  4.218955  0
C  C107  1  0.47884155  0.24137937  0.64084407  1  1.490108  0  0.211648  0.548666  0  4.216452  0
C  C108  1  0.62484887  0.69067763  0.11078291  1  -0.005588  0  -0.025397  -0.061026  0  4.020277  0
C  C109  1  0.42600818  0.80943138  0.38909532  1  0.010807  0  -0.025254  -0.061713  0  4.020757  0
C  C110  1  0.37514986  0.30932050  0.88921340  1  -0.005896  0  -0.025294  -0.060921  0  4.019928  0
C  C111  1  0.57399590  0.19057198  0.61090049  1  0.01064  0  -0.025264  -0.061563  0  4.020702  0
C  C112  1  0.53211751  0.63097405  0.14309747  1  -0.098478  0  -0.08471  -0.098298  0  4.003089  0
C  C113  1  0.30565323  0.86915819  0.35682452  1  -0.062903  0  -0.084184  -0.097497  0  4.003165  0
C  C114  1  0.46789338  0.36902239  0.85690386  1  -0.098249  0  -0.084656  -0.09827  0  4.002978  0
C  C115  1  0.69435443  0.13084711  0.64317727  1  -0.064496  0  -0.084289  -0.097841  0  4.003222  0
C  C116  1  0.51644388  0.58217963  0.11667545  1  -0.005818  0  -0.083197  -0.108531  0  3.941202  0
C  C117  1  0.21481663  0.91791489  0.38329081  1  0.004984  0  -0.083639  -0.110178  0  3.94293  0
C  C118  1  0.48355666  0.41781731  0.88332700  1  -0.00568  0  -0.083331  -0.108725  0  3.941175  0
C  C119  1  0.78519021  0.08208455  0.61671610  1  0.004945  0  -0.083656  -0.110196  0  3.942878  0
C  C120  1  0.58576557  0.59371551  0.05617970  1  -0.002981  0  0.006124  0.099915  0  3.962142  0
C  C121  1  0.23538089  0.90628485  0.44379939  1  -0.064251  0  0.005785  0.100675  0  3.961488  0
C  C122  1  0.41420706  0.40628251  0.94382151  1  -0.002844  0  0.006323  0.100025  0  3.96196  0
C  C123  1  0.76462609  0.09370624  0.55620703  1  -0.065172  0  0.00583  0.100797  0  3.961203  0
C  C124  1  0.68405517  0.65252941  0.02435611  1  -0.055743  0  -0.088168  -0.13184  0  3.951259  0
C  C125  1  0.36067557  0.84740443  0.47560291  1  -0.054558  0  -0.088204  -0.132292  0  3.951713  0
C  C126  1  0.31589604  0.34747184  0.97564084  1  -0.056637  0  -0.088269  -0.132111  0  3.951182  0
C  C127  1  0.63934030  0.15258623  0.52439991  1  -0.054978  0  -0.088178  -0.132055  0  3.951256  0
C  C128  1  0.70622178  0.70012642  0.05145248  1  -0.077564  0  -0.076633  -0.066785  0  3.956099  0
C  C129  1  0.45771505  0.79988925  0.44844624  1  -0.052807  0  -0.076639  -0.065831  0  3.956549  0
C  C130  1  0.29375030  0.29987332  0.94854237  1  -0.076932  0  -0.076665  -0.066816  0  3.955885  0
C  C131  1  0.54230436  0.20010783  0.55155036  1  -0.05194  0  -0.076537  -0.065855  0  3.956295  0
C  C132  1  0.54401847  0.54637633  0.02615647  1  -0.121916  0  -0.012605  -0.001396  0  3.994217  0
C  C133  1  0.11636230  0.95361334  0.47384045  1  -0.056746  0  -0.012238  -0.001163  0  3.993721  0
C  C134  1  0.45592844  0.45362051  0.97384993  1  -0.123093  0  -0.012667  -0.001289  0  3.994126  0
C  C135  1  0.88363970  0.04637135  0.52617227  1  -0.054999  0  -0.012123  -0.001121  0  3.994352  0
C  C136  1  0.63673225  0.47714267  0.04156824  1  0.028944  0  -0.096887  -0.193098  0  3.968852  0
C  C137  1  0.15511911  0.02283756  0.45836877  1  -0.027012  0  -0.097096  -0.193223  0  3.969201  0
C  C138  1  0.36320603  0.52284993  0.95844102  1  0.026889  0  -0.09688  -0.192915  0  3.968682  0
C  C139  1  0.84488818  0.97714444  0.54164660  1  -0.029378  0  -0.097157  -0.193372  0  3.969564  0
C  C140  1  0.59681820  0.42980723  0.01614778  1  -0.013503  0  -0.012802  0.119343  0  3.970235  0
C  C141  1  0.04268332  0.07018121  0.48381363  1  -0.002372  0  -0.012836  0.119307  0  3.970938  0
C  C142  1  0.40311680  0.57018641  0.98386174  1  -0.014204  0  -0.012733  0.11923  0  3.970445  0
C  C143  1  0.95732234  0.92980137  0.51619955  1  -0.000646  0  -0.012757  0.119436  0  3.970872  0
C  C144  1  0.07257372  0.89867105  0.17986449  1  1.553825  0  0.208845  0.572944  0  4.217744  0
C  C145  1  0.15106914  0.60156890  0.31994842  1  1.569406  0  0.209193  0.574079  0  4.217401  0
C  C146  1  0.92737788  0.10134152  0.82011737  1  1.553576  0  0.208779  0.572803  0  4.218636  0
C  C147  1  0.84895915  0.39842754  0.68005303  1  1.569087  0  0.209251  0.574048  0  4.217731  0
C  C148  1  0.06792459  0.97445190  0.17209854  1  -0.028823  0  -0.022493  -0.041917  0  3.97988  0
C  C149  1  0.21488529  0.52577111  0.32786365  1  -0.050803  0  -0.022896  -0.041836  0  3.978115  0
C  C150  1  0.93203803  0.02556220  0.82788493  1  -0.028971  0  -0.022504  -0.041844  0  3.980107  0
C  C151  1  0.78514193  0.47422436  0.67213478  1  -0.050774  0  -0.022808  -0.041619  0  3.978469  0
C  C152  1  0.94222953  0.02680137  0.13372025  1  -0.027788  0  -0.081605  -0.083647  0  3.977401  0
C  C153  1  0.10333636  0.47337914  0.36616202  1  -0.042113  0  -0.081238  -0.083606  0  3.976884  0
C  C154  1  0.05774127  0.97322220  0.86626009  1  -0.027783  0  -0.081634  -0.083909  0  3.977747  0
C  C155  1  0.89668158  0.52661786  0.63383759  1  -0.041964  0  -0.081229  -0.083617  0  3.976737  0
C  C156  1  0.93355335  0.09697179  0.12848777  1  -0.077068  0  -0.088873  -0.135408  0  3.96376  0
C  C157  1  0.16011572  0.40322035  0.37139957  1  0.012186  0  -0.088975  -0.134755  0  3.964147  0
C  C158  1  0.06642494  0.90304690  0.87149998  1  -0.076871  0  -0.088751  -0.134989  0  3.96386  0
C  C159  1  0.83990153  0.59677453  0.62860154  1  0.012619  0  -0.089062  -0.134947  0  3.964146  0
C  C160  1  0.05092875  0.11658859  0.16132451  1  -0.013714  0  0.000521  0.093188  0  3.981208  0
C  C161  1  0.33024442  0.38363860  0.33867901  1  -0.047495  0  0.000992  0.092664  0  3.981664  0
C  C162  1  0.94905163  0.88342432  0.83866528  1  -0.013405  0  0.000533  0.093259  0  3.980879  0
C  C163  1  0.66977428  0.61635626  0.66132289  1  -0.047697  0  0.001138  0.093034  0  3.981191  0
C  C164  1  0.17619173  0.06387125  0.19974655  1  -0.028617  0  -0.09128  -0.132512  0  3.968934  0
C  C165  1  0.44110114  0.43638371  0.30036621  1  -0.07488  0  -0.091298  -0.131559  0  3.969249  0
C  C166  1  0.82377101  0.93613429  0.80024573  1  -0.029378  0  -0.091221  -0.132467  0  3.968649  0
C  C167  1  0.55890855  0.56360804  0.69963488  1  -0.075284  0  -0.091262  -0.131729  0  3.969058  0
C  C168  1  0.18505466  0.99407990  0.20477058  1  -0.065107  0  -0.086108  -0.093226  0  4.003326  0
C  C169  1  0.38470117  0.50616683  0.29533968  1  -0.034258  0  -0.086061  -0.093642  0  4.003805  0
C  C170  1  0.81491207  0.00592682  0.79521615  1  -0.065024  0  -0.08627  -0.093342  0  4.003356  0
C  C171  1  0.61532504  0.49382344  0.70465823  1  -0.03416  0  -0.086213  -0.093696  0  4.003996  0
C  C172  1  0.04189035  0.19059039  0.15768964  1  -0.010243  0  -0.010025  0.007878  0  3.978858  0
C  C173  1  0.39160359  0.30962845  0.34235167  1  -0.013164  0  -0.00967  0.008504  0  3.978155  0
C  C174  1  0.95810427  0.80941499  0.84230890  1  -0.011177  0  -0.010094  0.007643  0  3.979032  0
C  C175  1  0.60842411  0.69036939  0.65765652  1  -0.012137  0  -0.009698  0.008315  0  3.978178  0
C  C176  1  0.86587290  0.22399381  0.17687508  1  -0.026117  0  -0.092455  -0.187756  0  3.968001  0
C  C177  1  0.26780039  0.27625226  0.32327973  1  -0.064104  0  -0.092331  -0.188412  0  3.969062  0
C  C178  1  0.13411584  0.77601569  0.82312585  1  -0.026201  0  -0.092478  -0.187684  0  3.967867  0
C  C179  1  0.73221383  0.72373874  0.67673061  1  -0.065249  0  -0.092343  -0.188555  0  3.969762  0
C  C180  1  0.84539903  0.29162235  0.17947871  1  -0.049371  0  -0.008144  0.128113  0  3.95783  0
C  C181  1  0.31713140  0.20856091  0.32078861  1  -0.018865  0  -0.00838  0.128239  0  3.958539  0
C  C182  1  0.15460737  0.70838244  0.82052287  1  -0.049757  0  -0.008168  0.128008  0  3.957661  0
C  C183  1  0.68288358  0.79142797  0.67922316  1  -0.01851  0  -0.00828  0.128472  0  3.958862  0
C  C184  1  0.01214508  0.32752577  0.16207923  1  0.028157  0  -0.010374  0.003981  0  3.979512  0
C  C185  1  0.50243109  0.17253614  0.33818441  1  0.028206  0  -0.010384  0.00384  0  3.978799  0
C  C186  1  0.98785571  0.67247847  0.83792316  1  0.027647  0  -0.010399  0.004004  0  3.979718  0
C  C187  1  0.49758419  0.82745591  0.66182558  1  0.02716  0  -0.010505  0.003768  0  3.97884  0
C  C188  1  0.18654727  0.29511548  0.14080219  1  -0.114108  0  -0.093936  -0.196764  0  3.97462  0
C  C189  1  0.62353837  0.20491276  0.35938547  1  -0.114505  0  -0.094027  -0.197316  0  3.974232  0
C  C190  1  0.81344955  0.70488774  0.85919941  1  -0.113747  0  -0.09381  -0.196623  0  3.974685  0
C  C191  1  0.37648486  0.79508139  0.64062442  1  -0.114178  0  -0.094145  -0.197737  0  3.974704  0
C  C192  1  0.20678617  0.22732456  0.13818240  1  -0.018782  0  -0.013307  0.115503  0  3.967043  0
C  C193  1  0.57371950  0.27278097  0.36190055  1  -0.025311  0  -0.013527  0.115257  0  3.965634  0
C  C194  1  0.79321570  0.77268078  0.86181753  1  -0.017882  0  -0.01339  0.115502  0  3.967193  0
C  C195  1  0.42631205  0.72721428  0.63810656  1  -0.025601  0  -0.013393  0.115532  0  3.965184  0
C  C196  1  0.64821893  0.32402712  0.19823880  1  -0.050044  0  -0.244737  -0.414433  0  3.960404  0
C  C197  1  0.17070117  0.17630926  0.30203137  1  -0.073073  0  -0.244888  -0.413637  0  3.960893  0
C  C198  1  0.35178319  0.67597341  0.80176631  1  -0.049712  0  -0.244758  -0.414459  0  3.960558  0
C  C199  1  0.82930883  0.82368553  0.69797342  1  -0.072753  0  -0.244813  -0.413543  0  3.960936  0
C  C200  1  0.39912842  0.19718500  0.11380117  1  -0.082646  0  -0.245098  -0.420678  0  3.971089  0
C  C201  1  0.71164258  0.30286961  0.38631076  1  -0.070789  0  -0.244574  -0.419486  0  3.971122  0
C  C202  1  0.60087427  0.80281410  0.88619846  1  -0.083019  0  -0.245063  -0.420647  0  3.971231  0
C  C203  1  0.28838273  0.69713092  0.61369380  1  -0.070576  0  -0.244577  -0.419391  0  3.97107  0
C  C204  1  0.01242577  0.60794360  0.16566932  1  1.530631  0  0.204269  0.566788  0  4.213611  0
C  C205  1  0.78548321  0.89207113  0.33434305  1  1.539781  0  0.204588  0.567303  0  4.213278  0
C  C206  1  0.98757634  0.39205695  0.83433452  1  1.53054  0  0.204129  0.566496  0  4.213581  0
C  C207  1  0.21453102  0.10793225  0.66565233  1  1.539436  0  0.204723  0.567401  0  4.212975  0
C  C208  1  0.00633173  0.53548339  0.16609809  1  -0.028947  0  -0.020171  -0.037535  0  3.973127  0
C  C209  1  0.70777456  0.96453599  0.33397507  1  -0.034506  0  -0.020062  -0.038724  0  3.973161  0
C  C210  1  0.99366270  0.46452245  0.83390284  1  -0.028655  0  -0.020174  -0.037462  0  3.973133  0
C  C211  1  0.29225025  0.03546198  0.66602775  1  -0.034279  0  -0.020031  -0.038624  0  3.973009  0
C  C212  1  0.93837040  0.48253376  0.21759205  1  -0.02445  0  -0.085307  -0.084376  0  3.980795  0
C  C213  1  0.63785939  0.01756994  0.28255899  1  0.058793  0  -0.084758  -0.083646  0  3.980065  0
C  C214  1  0.06163443  0.51746736  0.78241026  1  -0.02446  0  -0.085339  -0.084462  0  3.980979  0
C  C215  1  0.36216554  0.98243164  0.71744527  1  0.058278  0  -0.084591  -0.083389  0  3.980004  0
C  C216  1  0.93758999  0.41548181  0.21617252  1  -0.001689  0  -0.092626  -0.139309  0  3.976092  0
C  C217  1  0.56895728  0.08461106  0.28406451  1  -0.101226  0  -0.092564  -0.138989  0  3.976153  0
C  C218  1  0.06242209  0.58451932  0.78382906  1  -0.002346  0  -0.092609  -0.139341  0  3.976151  0
C  C219  1  0.43105384  0.91539257  0.71594141  1  -0.101551  0  -0.09262  -0.139018  0  3.976779  0
C  C220  1  0.00829915  0.39897249  0.16394872  1  -0.06139  0  -0.003137  0.083561  0  3.985467  0
C  C221  1  0.57166202  0.10104189  0.33630563  1  -0.065966  0  -0.003447  0.082911  0  3.986335  0
C  C222  1  0.99170637  0.60103074  0.83605251  1  -0.061243  0  -0.003136  0.083562  0  3.985624  0
C  C223  1  0.42834985  0.89895958  0.66370340  1  -0.065783  0  -0.003404  0.082863  0  3.986436  0
C  C224  1  0.07944117  0.45223595  0.11287241  1  -0.061456  0  -0.089653  -0.13504  0  3.971646  0
C  C225  1  0.64551672  0.04770032  0.38729953  1  -0.096405  0  -0.09091  -0.136312  0  3.97234  0
C  C226  1  0.92053964  0.54777149  0.88712736  1  -0.061445  0  -0.089574  -0.135053  0  3.971429  0
C  C227  1  0.35449794  0.95229758  0.61270625  1  -0.095555  0  -0.090923  -0.136175  0  3.972305  0
C  C228  1  0.07582840  0.51960084  0.11380371  1  -0.029858  0  -0.081098  -0.083577  0  3.971096  0
C  C229  1  0.70976103  0.98032952  0.38629091  1  -0.014887  0  -0.080293  -0.081553  0  3.968643  0
C  C230  1  0.92415084  0.48040295  0.88619594  1  -0.035809  0  -0.081056  -0.083522  0  3.970641  0
C  C231  1  0.29025635  0.01966900  0.61371080  1  -0.01457  0  -0.080347  -0.081782  0  3.968789  0
C  C232  1  0.70891437  0.35713612  0.03167657  1  -0.066233  0  -0.244827  -0.416154  0  3.946526  0
C  C233  1  0.09780090  0.14278853  0.46827992  1  -0.07747  0  -0.24474  -0.416712  0  3.946539  0
C  C234  1  0.29102296  0.64285916  0.96832985  1  -0.065164  0  -0.244695  -0.415706  0  3.946485  0
C  C235  1  0.90220886  0.85719887  0.53172832  1  -0.077196  0  -0.244655  -0.416693  0  3.946688  0
O  O236  1  0.75676114  0.78754856  0.11856561  1  -1.160951  0  -0.292525  -0.546061  0  2.176574  0
O  O237  1  0.66287499  0.71264284  0.38112284  1  -1.17266  0  -0.293022  -0.546595  0  2.175233  0
O  O238  1  0.24324428  0.21245121  0.88142742  1  -1.160914  0  -0.292597  -0.546142  0  2.17661  0
O  O239  1  0.33711883  0.28735699  0.61886814  1  -1.172925  0  -0.29305  -0.546469  0  2.175393  0
O  O240  1  0.52697752  0.73789921  0.18978249  1  -1.187508  0  -0.28792  -0.591368  0  2.330144  0
O  O241  1  0.45437072  0.76246630  0.30991881  1  -1.185256  0  -0.288094  -0.59145  0  2.328951  0
O  O242  1  0.47299317  0.26210854  0.81020461  1  -1.187815  0  -0.28794  -0.591367  0  2.329872  0
O  O243  1  0.54563853  0.23754292  0.69007212  1  -1.185124  0  -0.287971  -0.591161  0  2.328856  0
O  O244  1  0.95703491  0.88319874  0.15055041  1  -1.181728  0  -0.305627  -0.590812  0  2.249904  0
O  O245  1  0.99069322  0.61708325  0.34918664  1  -1.187918  0  -0.305796  -0.591346  0  2.251389  0
O  O246  1  0.04291831  0.11681320  0.84943618  1  -1.181221  0  -0.305642  -0.590713  0  2.250179  0
O  O247  1  0.00931868  0.38291856  0.65080888  1  -1.187877  0  -0.305838  -0.591403  0  2.251604  0
O  O248  1  0.18982496  0.85244131  0.21488207  1  -1.197497  0  -0.299951  -0.612885  0  2.266314  0
O  O249  1  0.25696562  0.64778091  0.28490159  1  -1.204983  0  -0.299959  -0.613706  0  2.266547  0
O  O250  1  0.81015400  0.14757190  0.78509511  1  -1.197995  0  -0.299808  -0.61283  0  2.267034  0
O  O251  1  0.74307809  0.35221276  0.71510590  1  -1.205036  0  -0.299948  -0.613654  0  2.266693  0
O  O252  1  0.08670305  0.65191249  0.11881545  1  -1.160946  0  -0.2989  -0.551469  0  2.199313  0
O  O253  1  0.85639214  0.84792178  0.38124452  1  -1.166879  0  -0.299087  -0.551524  0  2.198025  0
O  O254  1  0.91328728  0.34808863  0.88118662  1  -1.161058  0  -0.298946  -0.55143  0  2.19922  0
O  O255  1  0.14362815  0.15207700  0.61874651  1  -1.166747  0  -0.299188  -0.551569  0  2.198008  0
O  O256  1  0.94711532  0.62301136  0.21378676  1  -1.203195  0  -0.312434  -0.614725  0  2.276366  0
O  O257  1  0.78356889  0.87715235  0.28611925  1  -1.202402  0  -0.312631  -0.615053  0  2.276332  0
O  O258  1  0.05291943  0.37698702  0.78622056  1  -1.20301  0  -0.312299  -0.614575  0  2.276185  0
O  O259  1  0.21643600  0.12285680  0.71387439  1  -1.202254  0  -0.312663  -0.615139  0  2.27638  0
O  O260  1  0.85426455  0.75013874  0.24985595  1  -1.140607  0  -0.451087  -0.857886  0  1.971651  0
O  O261  1  0.14574920  0.24986230  0.75012798  1  -1.140408  0  -0.451064  -0.857789  0  1.971455  0
