# generated using pymatgen
data_CoH18C14(NO)4
_symmetry_space_group_name_H-M   'P 1'
_cell_length_a   9.19082754
_cell_length_b   9.19080204
_cell_length_c   9.13173117
_cell_angle_alpha   97.35140979
_cell_angle_beta   97.35140031
_cell_angle_gamma   95.17899861
_symmetry_Int_Tables_number   1
_chemical_formula_structural   CoH18C14(NO)4
_chemical_formula_sum   'Co2 H36 C28 N8 O8'
_cell_volume   754.26586771
_cell_formula_units_Z   2
loop_
 _symmetry_equiv_pos_site_id
 _symmetry_equiv_pos_as_xyz
  1  'x, y, z'
loop_
 _atom_site_type_symbol
 _atom_site_label
 _atom_site_symmetry_multiplicity
 _atom_site_fract_x
 _atom_site_fract_y
 _atom_site_fract_z
 _atom_site_occupancy
 _atom_site_pbe_cm5_charge
 _atom_site_pbe_ddec_charge
 _atom_site_pbe_ddec_spin_density
 _atom_site_pbe_ddec_sum_bond_order
 _atom_site_pbe_magmom
Co  Co0  1  0.10912782  0.89087448  0.25000155  1  0.62086  0.6466  1.010083  2.971314  0.946
Co  Co1  1  0.89087118  0.10912641  0.74999833  1  0.620836  0.646486  1.010139  2.971411  0.946
H  H2  1  0.27588938  0.77083070  0.97630125  1  0.136916  0.108299  -0.000305  0.999305  0.0
H  H3  1  0.22917715  0.72411215  0.52371128  1  0.136875  0.108201  -0.000305  0.999272  0.0
H  H4  1  0.72411012  0.22917462  0.02370473  1  0.136918  0.108243  -0.000305  0.999255  0.0
H  H5  1  0.77082687  0.27588433  0.47629415  1  0.136893  0.10819  -0.000305  0.999292  0.0
H  H6  1  0.42124995  0.00937822  0.40315081  1  0.122087  0.121804  -0.000101  1.034682  0.0
H  H7  1  0.99062793  0.57875363  0.09686184  1  0.122087  0.121835  -0.000101  1.034663  0.0
H  H8  1  0.57874906  0.99062267  0.59685236  1  0.122075  0.121809  -0.000101  1.034693  0.0
H  H9  1  0.00937254  0.42125058  0.90314193  1  0.122092  0.121858  -0.000101  1.03467  0.0
H  H10  1  0.66795689  0.95411633  0.26225217  1  0.120064  0.130241  0.000161  1.051519  0.0
H  H11  1  0.04588976  0.33204997  0.23775752  1  0.120089  0.130287  0.000161  1.051431  0.0
H  H12  1  0.33204359  0.04588788  0.73775379  1  0.120062  0.130262  0.000161  1.051491  0.0
H  H13  1  0.95411264  0.66795200  0.76223964  1  0.120083  0.130302  0.000161  1.051398  0.0
H  H14  1  0.67170814  0.87759193  0.96097484  1  0.111634  0.098094  -0.000161  0.999182  0.0
H  H15  1  0.12241150  0.32828598  0.53903405  1  0.111691  0.098084  -0.000161  0.999154  0.0
H  H16  1  0.32828431  0.12240899  0.03903189  1  0.111685  0.098114  -0.000161  0.999069  0.0
H  H17  1  0.87758933  0.67171159  0.46096455  1  0.111644  0.097995  -0.000161  0.999168  0.0
H  H18  1  0.51653805  0.75783761  0.87037837  1  0.10693  0.079039  9e-06  1.003612  0.0
H  H19  1  0.24217025  0.48345078  0.62962274  1  0.106909  0.079059  9e-06  1.003589  0.0
H  H20  1  0.48345547  0.24216328  0.12962192  1  0.106913  0.079061  9e-06  1.003589  0.0
H  H21  1  0.75783875  0.51654126  0.37037620  1  0.106921  0.07902  9e-06  1.003568  0.0
H  H22  1  0.74504791  0.70270798  0.12862479  1  0.096125  0.103695  -7.5e-05  0.995471  0.0
H  H23  1  0.29729149  0.25494564  0.37137258  1  0.096134  0.103799  -7.5e-05  0.99543  0.0
H  H24  1  0.25494817  0.29729622  0.87137733  1  0.096143  0.103776  -7.5e-05  0.995476  0.0
H  H25  1  0.70270408  0.74504417  0.62861453  1  0.096093  0.10366  -7.5e-05  0.995414  0.0
H  H26  1  0.72670229  0.61725242  0.94259209  1  0.092078  0.094436  -3e-05  0.999118  0.0
H  H27  1  0.38274526  0.27328888  0.55740260  1  0.09207  0.094458  -3e-05  0.999103  0.0
H  H28  1  0.27329465  0.38274957  0.05741096  1  0.092073  0.094459  -3e-05  0.999095  0.0
H  H29  1  0.61724763  0.72669651  0.44258361  1  0.092079  0.094411  -3e-05  0.99909  0.0
H  H30  1  0.62047659  0.45569246  0.11399597  1  0.083594  0.067284  -2.3e-05  1.018829  0.0
H  H31  1  0.54431121  0.37951128  0.38600780  1  0.083591  0.067326  -2.3e-05  1.01875  0.0
H  H32  1  0.37951950  0.54431176  0.88601164  1  0.08357  0.067283  -2.3e-05  1.018836  0.0
H  H33  1  0.45569365  0.62047304  0.61398855  1  0.083599  0.067357  -2.3e-05  1.018817  0.0
H  H34  1  0.49506815  0.58313736  0.15556426  1  0.086088  0.076829  -6e-05  1.015251  0.0
H  H35  1  0.41686849  0.50492241  0.34443789  1  0.086097  0.076878  -6e-05  1.015262  0.0
H  H36  1  0.50492842  0.41687127  0.84444176  1  0.086098  0.076857  -6e-05  1.015205  0.0
H  H37  1  0.58313467  0.49506632  0.65555989  1  0.086081  0.07687  -6e-05  1.015308  0.0
C  C38  1  0.34783120  0.82873586  0.07344430  1  0.134053  0.06576  -0.007384  3.904001  -0.004
C  C39  1  0.17127350  0.65217335  0.42656220  1  0.134095  0.065898  -0.007384  3.904063  -0.004
C  C40  1  0.65216842  0.17127056  0.92656073  1  0.134048  0.065842  -0.007383  3.903994  -0.004
C  C41  1  0.82872890  0.34782862  0.57343496  1  0.134102  0.065929  -0.007384  3.904067  -0.004
C  C42  1  0.42921972  0.95201061  0.29381264  1  -0.002365  -0.050175  -0.003218  3.976886  -0.002
C  C43  1  0.04799070  0.57078788  0.20619980  1  -0.002355  -0.050144  -0.003217  3.976996  -0.002
C  C44  1  0.57078260  0.04799030  0.70619532  1  -0.002374  -0.050264  -0.003217  3.977146  -0.002
C  C45  1  0.95201208  0.42921742  0.79380221  1  -0.002379  -0.050296  -0.003218  3.977151  -0.002
C  C46  1  0.55064535  0.92832973  0.22380253  1  -0.001895  -0.110714  0.000334  3.926798  0.001
C  C47  1  0.07168093  0.44935928  0.27620635  1  -0.00199  -0.110885  0.000334  3.926873  0.001
C  C48  1  0.44935731  0.07167447  0.77620042  1  -0.001952  -0.110757  0.000334  3.926845  0.001
C  C49  1  0.92832488  0.55064380  0.72379357  1  -0.001981  -0.110836  0.000334  3.926778  0.001
C  C50  1  0.58864215  0.78996283  0.97718771  1  -0.053051  -0.059384  -6.1e-05  3.868023  0.0
C  C51  1  0.21004192  0.41135112  0.52281357  1  -0.053001  -0.059186  -6.1e-05  3.867842  0.0
C  C52  1  0.41135465  0.21003806  0.02281190  1  -0.053006  -0.059265  -6.1e-05  3.86792  0.0
C  C53  1  0.78996270  0.58864093  0.47718591  1  -0.052978  -0.059159  -6.1e-05  3.867907  0.0
C  C54  1  0.66339249  0.66019148  0.03005710  1  -0.165219  -0.17031  -0.000148  3.914786  0.0
C  C55  1  0.33981010  0.33659844  0.46993910  1  -0.165274  -0.170588  -0.000148  3.914886  0.0
C  C56  1  0.33660493  0.33981492  0.96994437  1  -0.165266  -0.170515  -0.000148  3.914968  0.0
C  C57  1  0.66018499  0.66338696  0.53004849  1  -0.165164  -0.170154  -0.000148  3.91454  0.0
C  C58  1  0.55554809  0.53785289  0.06647545  1  -0.170707  -0.149156  -7.3e-05  3.95791  0.0
C  C59  1  0.46214888  0.44444134  0.43352387  1  -0.170707  -0.14915  -7.3e-05  3.957963  0.0
C  C60  1  0.44444591  0.46215242  0.93352654  1  -0.170717  -0.149167  -7.3e-05  3.957943  0.0
C  C61  1  0.53785160  0.55554298  0.56647192  1  -0.17075  -0.14941  -7.3e-05  3.958126  0.0
C  C62  1  0.97695928  0.92326424  0.95370318  1  0.198951  0.439588  -0.005959  4.209067  -0.003
C  C63  1  0.07672288  0.02304919  0.54630330  1  0.198971  0.439524  -0.005965  4.209054  -0.003
C  C64  1  0.02304483  0.07673331  0.04629254  1  0.198953  0.439537  -0.005959  4.209382  -0.003
C  C65  1  0.92326553  0.97695504  0.45370224  1  0.198903  0.439509  -0.005963  4.209142  -0.003
N  N66  1  0.30351955  0.88923894  0.19893740  1  -0.368886  -0.247451  -0.004737  3.737366  -0.003
N  N67  1  0.11076683  0.69648618  0.30107645  1  -0.368868  -0.24754  -0.004736  3.737755  -0.003
N  N68  1  0.69648093  0.11076528  0.80107075  1  -0.368795  -0.247312  -0.004736  3.737453  -0.003
N  N69  1  0.88923571  0.30351692  0.69892525  1  -0.368879  -0.247459  -0.004737  3.737673  -0.003
N  N70  1  0.49746888  0.85137171  0.08467462  1  -0.248255  0.034854  -0.001959  3.796127  -0.001
N  N71  1  0.14863999  0.50253471  0.41533316  1  -0.248254  0.03489  -0.001959  3.796063  -0.001
N  N72  1  0.50253072  0.14863470  0.91532712  1  -0.248277  0.034769  -0.001959  3.796177  -0.001
N  N73  1  0.85136437  0.49746507  0.58466725  1  -0.248292  0.034843  -0.001959  3.796117  -0.001
O  O74  1  0.00786610  0.81162243  0.01352513  1  -0.287686  -0.485381  0.024709  2.305958  0.041
O  O75  1  0.18838017  0.99214114  0.48646878  1  -0.287753  -0.485485  0.024721  2.305447  0.041
O  O76  1  0.99214130  0.18837512  0.98647210  1  -0.287716  -0.485399  0.024712  2.306087  0.041
O  O77  1  0.81162247  0.00786304  0.51352759  1  -0.287646  -0.485336  0.024713  2.305884  0.041
O  O78  1  0.90931204  0.91857619  0.82100825  1  -0.300862  -0.470642  -0.005982  2.421699  -0.005
O  O79  1  0.08141907  0.09068812  0.67898725  1  -0.300815  -0.470457  -0.005979  2.422077  -0.005
O  O80  1  0.09068586  0.08142469  0.17899040  1  -0.300866  -0.47063  -0.005979  2.421876  -0.005
O  O81  1  0.91857650  0.90931164  0.32100768  1  -0.300871  -0.470595  -0.005979  2.421753  -0.005
