# generated using pymatgen
data_Cd2H29C32S(NO3)3
_symmetry_space_group_name_H-M   'P 1'
_cell_length_a   11.03406227
_cell_length_b   17.31128517
_cell_length_c   19.85386636
_cell_angle_alpha   90.00006473
_cell_angle_beta   97.48937402
_cell_angle_gamma   89.99977613
_symmetry_Int_Tables_number   1
_chemical_formula_structural   Cd2H29C32S(NO3)3
_chemical_formula_sum   'Cd8 H116 C128 S4 N12 O36'
_cell_volume   3760.00998054
_cell_formula_units_Z   4
loop_
 _symmetry_equiv_pos_site_id
 _symmetry_equiv_pos_as_xyz
  1  'x, y, z'
loop_
 _atom_site_type_symbol
 _atom_site_label
 _atom_site_symmetry_multiplicity
 _atom_site_fract_x
 _atom_site_fract_y
 _atom_site_fract_z
 _atom_site_occupancy
 _atom_site_pbe_bader_charge
 _atom_site_pbe_bader_spin_density
 _atom_site_pbe_cm5_charge
 _atom_site_pbe_ddec_charge
 _atom_site_pbe_ddec_spin_density
 _atom_site_pbe_ddec_sum_bond_order
 _atom_site_pbe_magmom
Cd  Cd0  1  0.39782570  0.38596997  0.43821475  1  1.305904  0  0.782094  0.974953  0  2.193523  0
Cd  Cd1  1  0.60217021  0.88596529  0.06178756  1  1.305733  0  0.78208  0.974938  0  2.193514  0
Cd  Cd2  1  0.60217358  0.61403201  0.56178631  1  1.305906  0  0.782078  0.974912  0  2.193604  0
Cd  Cd3  1  0.39783089  0.11403208  0.93821364  1  1.305717  0  0.782111  0.974992  0  2.193458  0
Cd  Cd4  1  0.43672063  0.43805456  0.62150384  1  1.353282  0  0.800646  1.044053  0  2.161073  0
Cd  Cd5  1  0.56328830  0.93805327  0.87849675  1  1.353302  0  0.800639  1.044013  0  2.161107  0
Cd  Cd6  1  0.56328138  0.56194742  0.37849490  1  1.353317  0  0.800656  1.044007  0  2.161117  0
Cd  Cd7  1  0.43671646  0.06194410  0.12150319  1  1.353396  0  0.800637  1.044029  0  2.161173  0
H  H8  1  0.64242280  0.26902002  0.55752502  1  0.134663  0  0.103419  0.115559  0  1.034903  0
H  H9  1  0.35757525  0.76901874  0.94247312  1  0.134749  0  0.103435  0.115584  0  1.034927  0
H  H10  1  0.35757923  0.73098196  0.44247876  1  0.13461  0  0.103387  0.115584  0  1.034784  0
H  H11  1  0.64241579  0.23097978  0.05752383  1  0.134567  0  0.103389  0.115608  0  1.034844  0
H  H12  1  0.84845199  0.24886417  0.61803530  1  0.069945  0  0.096342  0.087313  0  1.04147  0
H  H13  1  0.15154618  0.74886332  0.88196383  1  0.070132  0  0.09634  0.087313  0  1.041486  0
H  H14  1  0.15154821  0.75113551  0.38196784  1  0.069927  0  0.096328  0.0873  0  1.041409  0
H  H15  1  0.84844942  0.25113289  0.11803143  1  0.069933  0  0.096319  0.087309  0  1.041379  0
H  H16  1  0.87841347  0.17484601  0.72744267  1  0.062237  0  0.090656  0.081583  0  1.039194  0
H  H17  1  0.12158789  0.67484683  0.77255510  1  0.061899  0  0.090643  0.081551  0  1.039235  0
H  H18  1  0.12158764  0.82515193  0.27255852  1  0.062281  0  0.090656  0.081582  0  1.039169  0
H  H19  1  0.87841137  0.32515169  0.22744042  1  0.062306  0  0.090671  0.081607  0  1.039162  0
H  H20  1  0.70071160  0.11951646  0.77431249  1  0.086261  0  0.098078  0.103631  0  1.04697  0
H  H21  1  0.29929009  0.61951620  0.72568626  1  0.08622  0  0.098078  0.103639  0  1.046974  0
H  H22  1  0.29929042  0.88048148  0.22568877  1  0.086291  0  0.09808  0.103627  0  1.047059  0
H  H23  1  0.70071100  0.38048290  0.27431090  1  0.086273  0  0.098073  0.103609  0  1.04706  0
H  H24  1  0.24629600  0.07984289  0.75506986  1  0.064835  0  0.097986  0.097074  0  1.040353  0
H  H25  1  0.75370411  0.57983806  0.74493176  1  0.064714  0  0.097986  0.097068  0  1.040296  0
H  H26  1  0.75370511  0.92015852  0.24493285  1  0.064908  0  0.097976  0.097056  0  1.040323  0
H  H27  1  0.24629150  0.42016161  0.25506652  1  0.064552  0  0.097979  0.097082  0  1.040329  0
H  H28  1  0.04298087  0.09476689  0.68845570  1  0.037797  0  0.093282  0.086491  0  1.032936  0
H  H29  1  0.95701915  0.59476626  0.81154342  1  0.037787  0  0.093287  0.086481  0  1.032927  0
H  H30  1  0.95701934  0.90523394  0.31154795  1  0.037816  0  0.093264  0.086471  0  1.033002  0
H  H31  1  0.04297736  0.40523746  0.18845191  1  0.03776  0  0.093243  0.086418  0  1.032963  0
H  H32  1  0.01816545  0.16788216  0.57914408  1  0.065275  0  0.096874  0.091468  0  1.022687  0
H  H33  1  0.98183687  0.66788450  0.92085426  1  0.065279  0  0.096865  0.091459  0  1.022651  0
H  H34  1  0.98183384  0.83211809  0.42085799  1  0.065292  0  0.096873  0.091468  0  1.022682  0
H  H35  1  0.01816330  0.33212037  0.07914133  1  0.065237  0  0.096862  0.091473  0  1.022683  0
H  H36  1  0.19856920  0.22488230  0.53614696  1  0.049692  0  0.101922  0.107347  0  1.013038  0
H  H37  1  0.80143185  0.72488341  0.96385084  1  0.049701  0  0.101917  0.107349  0  1.013032  0
H  H38  1  0.80143282  0.77511737  0.46385531  1  0.049609  0  0.101958  0.107431  0  1.013063  0
H  H39  1  0.19856741  0.27512031  0.03614568  1  0.049652  0  0.101959  0.107438  0  1.013117  0
H  H40  1  0.15033682  0.42142638  0.50207097  1  0.160835  0  0.116004  0.10124  0  1.023148  0
H  H41  1  0.84965851  0.92142511  0.99793216  1  0.160912  0  0.116011  0.101324  0  1.023082  0
H  H42  1  0.84966064  0.57857445  0.49793097  1  0.160889  0  0.116022  0.101326  0  1.023061  0
H  H43  1  0.15033986  0.07857515  0.00207136  1  0.160858  0  0.116011  0.101269  0  1.02309  0
H  H44  1  0.93091689  0.37844015  0.49222323  1  0.165536  0  0.107452  0.136274  0  1.034772  0
H  H45  1  0.06907907  0.87843903  0.00777958  1  0.165656  0  0.107461  0.136292  0  1.034698  0
H  H46  1  0.06908148  0.62155952  0.50777928  1  0.165637  0  0.107443  0.136243  0  1.034735  0
H  H47  1  0.93092021  0.12156238  0.99222199  1  0.165616  0  0.107449  0.136249  0  1.034677  0
H  H48  1  0.99818509  0.24283420  0.31818692  1  0.078868  0  0.101571  0.104099  0  1.028531  0
H  H49  1  0.00181351  0.74283404  0.18181644  1  0.078763  0  0.101528  0.104016  0  1.028585  0
H  H50  1  0.00181419  0.75716606  0.68181515  1  0.078819  0  0.101546  0.104062  0  1.028554  0
H  H51  1  0.99818942  0.25716332  0.81818337  1  0.072168  0  0.101566  0.1041  0  1.028538  0
H  H52  1  0.21293243  0.29315265  0.33429986  1  0.123757  0  0.118117  0.095867  0  0.996497  0
H  H53  1  0.78706496  0.79315168  0.16570347  1  0.123637  0  0.118105  0.095859  0  0.996457  0
H  H54  1  0.78706594  0.70684934  0.66570265  1  0.123674  0  0.118105  0.095879  0  0.996451  0
H  H55  1  0.21293706  0.20684511  0.83429829  1  0.123674  0  0.118092  0.09583  0  0.996501  0
H  H56  1  0.75742900  0.31673433  0.41892238  1  0.087284  0  0.099036  0.120002  0  0.990376  0
H  H57  1  0.24256549  0.81673172  0.08107573  1  0.087221  0  0.099074  0.120104  0  0.990312  0
H  H58  1  0.24256753  0.68326708  0.58107698  1  0.087174  0  0.09907  0.120049  0  0.990325  0
H  H59  1  0.75743378  0.18326680  0.91892231  1  0.087215  0  0.099084  0.120075  0  0.990309  0
H  H60  1  0.78400227  0.26702217  0.34395977  1  0.063901  0  0.088075  0.086009  0  1.028672  0
H  H61  1  0.21599892  0.76701972  0.15604027  1  0.063898  0  0.088101  0.08604  0  1.028694  0
H  H62  1  0.21599884  0.73297808  0.65604041  1  0.063831  0  0.088109  0.086067  0  1.028674  0
H  H63  1  0.78400218  0.23297938  0.84395891  1  0.063882  0  0.088091  0.086031  0  1.028673  0
H  H64  1  0.84258104  0.20645823  0.48994677  1  -0.002582  0  0.091244  0.083768  0  0.998265  0
H  H65  1  0.15740771  0.70645574  0.01005334  1  -0.002502  0  0.091213  0.083757  0  0.998258  0
H  H66  1  0.15741184  0.79354260  0.51005434  1  -0.002465  0  0.091238  0.083778  0  0.998297  0
H  H67  1  0.84258608  0.29354105  0.98994633  1  -0.002479  0  0.09126  0.083791  0  0.998263  0
H  H68  1  0.88090482  0.15781299  0.41756921  1  0.006898  0  0.084592  0.06942  0  0.998823  0
H  H69  1  0.11908880  0.65781126  0.08243221  1  0.00676  0  0.084575  0.069422  0  0.998763  0
H  H70  1  0.11908898  0.84218726  0.58243298  1  0.006793  0  0.084556  0.069395  0  0.998826  0
H  H71  1  0.88091139  0.34218726  0.91756892  1  0.006819  0  0.084559  0.069392  0  0.998841  0
H  H72  1  0.62140101  0.19919847  0.44799122  1  0.067951  0  0.100718  0.117546  0  1.001664  0
H  H73  1  0.37858960  0.69919375  0.05200549  1  0.068085  0  0.1007  0.117519  0  1.001639  0
H  H74  1  0.37859187  0.80080467  0.55200838  1  0.068057  0  0.1007  0.117495  0  1.001638  0
H  H75  1  0.62140600  0.30080419  0.94799078  1  0.068056  0  0.100706  0.117519  0  1.001574  0
H  H76  1  0.68839033  0.10654438  0.45248467  1  0.050833  0  0.104879  0.113148  0  0.95246  0
H  H77  1  0.31159902  0.60654098  0.04751287  1  0.050809  0  0.104887  0.113185  0  0.952536  0
H  H78  1  0.31160164  0.89345760  0.54751537  1  0.050863  0  0.104849  0.113156  0  0.952516  0
H  H79  1  0.68839751  0.39345754  0.95248548  1  0.050862  0  0.104833  0.113129  0  0.952488  0
H  H80  1  0.70050388  0.06017041  0.20627733  1  0.054627  0  0.114687  0.084184  0  1.002933  0
H  H81  1  0.29949671  0.56016735  0.29372096  1  0.054706  0  0.114698  0.084222  0  1.002868  0
H  H82  1  0.29949447  0.93983504  0.79372165  1  0.054634  0  0.114708  0.084272  0  1.002951  0
H  H83  1  0.70051170  0.43983117  0.70627824  1  0.054538  0  0.114758  0.084312  0  1.002955  0
H  H84  1  0.79109912  0.08035605  0.32685352  1  0.102733  0  0.103233  0.106048  0  1.012576  0
H  H85  1  0.20890045  0.58034960  0.17314521  1  0.102714  0  0.103229  0.106103  0  1.012535  0
H  H86  1  0.20889925  0.91964824  0.67314647  1  0.102677  0  0.103228  0.106095  0  1.012482  0
H  H87  1  0.79110522  0.41964661  0.82685379  1  0.102597  0  0.103238  0.106148  0  1.012529  0
H  H88  1  0.47082000  0.21397162  0.35455606  1  0.122615  0  0.111654  0.135756  0  1.007834  0
H  H89  1  0.52916961  0.71397127  0.14543908  1  0.122734  0  0.111635  0.135696  0  1.007857  0
H  H90  1  0.52917288  0.78602805  0.64544454  1  0.122805  0  0.11162  0.135652  0  1.007962  0
H  H91  1  0.47082873  0.28603130  0.85455588  1  0.122656  0  0.111624  0.135654  0  1.007956  0
H  H92  1  0.39114492  0.18543535  0.23335579  1  0.092819  0  0.117892  0.089837  0  0.998809  0
H  H93  1  0.60884760  0.68543726  0.26663903  1  0.09288  0  0.11788  0.089826  0  0.998773  0
H  H94  1  0.60884978  0.81456548  0.76664394  1  0.09278  0  0.117918  0.089861  0  0.998762  0
H  H95  1  0.39115440  0.31456588  0.73335568  1  0.092751  0  0.117887  0.089794  0  0.998763  0
H  H96  1  0.19075669  0.51939432  0.66155330  1  0.097166  0  0.124201  0.053887  0  0.99089  0
H  H97  1  0.80926758  0.01939670  0.83845602  1  0.097105  0  0.124194  0.05389  0  0.990885  0
H  H98  1  0.80924440  0.48060535  0.33844436  1  0.09719  0  0.124218  0.053903  0  0.990846  0
H  H99  1  0.19073720  0.98060239  0.16155047  1  0.097109  0  0.124223  0.053954  0  0.990878  0
H  H100  1  0.00693536  0.55628437  0.67582406  1  0.048659  0  0.102764  0.109318  0  1.039645  0
H  H101  1  0.99307586  0.05628627  0.82417682  1  0.048469  0  0.102813  0.109434  0  1.039628  0
H  H102  1  0.99306299  0.44371357  0.32417392  1  0.048642  0  0.102775  0.109338  0  1.039654  0
H  H103  1  0.00692617  0.94371398  0.17582595  1  0.048559  0  0.102794  0.109436  0  1.039656  0
H  H104  1  0.88985653  0.48968912  0.64241274  1  0.132082  0  0.105159  0.13268  0  1.022467  0
H  H105  1  0.11016214  0.98969296  0.85758758  1  0.131875  0  0.105183  0.132798  0  1.022481  0
H  H106  1  0.11014366  0.51030767  0.35758587  1  0.132089  0  0.105135  0.132647  0  1.022502  0
H  H107  1  0.88984171  0.01030671  0.14241431  1  0.131952  0  0.105175  0.132724  0  1.022481  0
H  H108  1  0.93509373  0.49631832  0.73235709  1  0.047303  0  0.09921  0.108588  0  1.006363  0
H  H109  1  0.06491941  0.99632101  0.76764134  1  0.047291  0  0.099321  0.108844  0  1.006275  0
H  H110  1  0.06490920  0.50367789  0.26764122  1  0.047309  0  0.099268  0.108686  0  1.006305  0
H  H111  1  0.93508261  0.00367924  0.23236042  1  0.047254  0  0.099304  0.108817  0  1.006247  0
H  H112  1  0.09402313  0.32152988  0.67261353  1  0.122494  0  0.110592  0.131735  0  1.012614  0
H  H113  1  0.90599930  0.82153113  0.82738740  1  0.122688  0  0.110572  0.13173  0  1.012718  0
H  H114  1  0.90598893  0.67846980  0.32738441  1  0.122463  0  0.110559  0.131695  0  1.012656  0
H  H115  1  0.09400638  0.17846855  0.17261312  1  0.122584  0  0.110569  0.131712  0  1.012655  0
H  H116  1  0.99394535  0.34883353  0.73304377  1  0.039479  0  0.099579  0.106741  0  0.99876  0
H  H117  1  0.00607142  0.84883579  0.76695628  1  0.039745  0  0.09961  0.106788  0  0.99889  0
H  H118  1  0.00606214  0.65116383  0.26695385  1  0.039611  0  0.099627  0.106807  0  0.998797  0
H  H119  1  0.99392876  0.15116562  0.23304333  1  0.039699  0  0.099629  0.106796  0  0.998881  0
H  H120  1  0.93900740  0.35094661  0.64447062  1  0.099738  0  0.108799  0.13129  0  1.015945  0
H  H121  1  0.06101392  0.85094769  0.85552825  1  0.099548  0  0.108854  0.13143  0  1.015982  0
H  H122  1  0.06100191  0.64904959  0.35552612  1  0.099704  0  0.108801  0.131253  0  1.016027  0
H  H123  1  0.93899174  0.14905140  0.14446974  1  0.099541  0  0.108846  0.131411  0  1.015964  0
C  C124  1  0.41430707  0.26624696  0.53436737  1  1.56652  0  0.2062  0.593067  0  4.214774  0
C  C125  1  0.58569102  0.76624398  0.96563378  1  1.56636  0  0.206043  0.592787  0  4.215026  0
C  C126  1  0.58569405  0.73375445  0.46563483  1  1.566448  0  0.206077  0.592789  0  4.214901  0
C  C127  1  0.41430642  0.23375685  0.03436413  1  1.566383  0  0.206102  0.592839  0  4.215234  0
C  C128  1  0.43198790  0.21525596  0.59577934  1  -0.03015  0  -0.004202  -0.106964  0  3.92058  0
C  C129  1  0.56801231  0.71525237  0.90422141  1  -0.030321  0  -0.0042  -0.106809  0  3.920415  0
C  C130  1  0.56801138  0.78474603  0.40422374  1  -0.030345  0  -0.004257  -0.107049  0  3.920595  0
C  C131  1  0.43198513  0.28474788  0.09577801  1  -0.030293  0  -0.00419  -0.106801  0  3.920274  0
C  C132  1  0.55048781  0.20327752  0.62961541  1  -0.019266  0  -0.005296  0.051287  0  3.987789  0
C  C133  1  0.44951430  0.70327418  0.87038496  1  -0.019344  0  -0.005241  0.051365  0  3.987718  0
C  C134  1  0.44951422  0.79672620  0.37038736  1  -0.019337  0  -0.005241  0.051426  0  3.987643  0
C  C135  1  0.55048405  0.29672722  0.12961402  1  -0.019324  0  -0.005248  0.051326  0  3.987627  0
C  C136  1  0.65502016  0.23490819  0.60411602  1  -0.055659  0  -0.088779  -0.121109  0  3.951393  0
C  C137  1  0.34498358  0.73490572  0.89588349  1  -0.05567  0  -0.088806  -0.121204  0  3.951463  0
C  C138  1  0.34498187  0.76509438  0.39588725  1  -0.055432  0  -0.088745  -0.121163  0  3.951416  0
C  C139  1  0.65501477  0.26509280  0.10411499  1  -0.055622  0  -0.088749  -0.121222  0  3.951641  0
C  C140  1  0.76998051  0.22414861  0.63829856  1  -0.057446  0  -0.098867  -0.08924  0  4.036987  0
C  C141  1  0.23001782  0.72414754  0.86170005  1  -0.057502  0  -0.098913  -0.089303  0  4.036989  0
C  C142  1  0.23002427  0.77585222  0.36170541  1  -0.057647  0  -0.098852  -0.089181  0  4.037076  0
C  C143  1  0.76997321  0.27585040  0.13829488  1  -0.05738  0  -0.098839  -0.089171  0  4.037176  0
C  C144  1  0.78655449  0.18218641  0.70031475  1  -0.153186  0  -0.101878  -0.092719  0  4.048758  0
C  C145  1  0.21344683  0.68218472  0.79968252  1  -0.152926  0  -0.101771  -0.092531  0  4.0489  0
C  C146  1  0.21344753  0.81781385  0.29968650  1  -0.153152  0  -0.101928  -0.092833  0  4.048695  0
C  C147  1  0.78655243  0.31781322  0.20031300  1  -0.153162  0  -0.10195  -0.092851  0  4.048714  0
C  C148  1  0.68804940  0.15169372  0.72685758  1  0.044198  0  -0.096661  -0.134761  0  3.980194  0
C  C149  1  0.31194754  0.65169349  0.77314237  1  0.044115  0  -0.096719  -0.134921  0  3.980348  0
C  C150  1  0.31195353  0.84830653  0.27314374  1  0.044169  0  -0.096632  -0.134702  0  3.980238  0
C  C151  1  0.68804625  0.34830734  0.22685628  1  0.044193  0  -0.09666  -0.134752  0  3.980191  0
C  C152  1  0.56649900  0.16063137  0.69275002  1  -0.007511  0  -0.003068  0.061133  0  3.969107  0
C  C153  1  0.43349972  0.66063088  0.80725058  1  -0.007438  0  -0.003049  0.061233  0  3.969015  0
C  C154  1  0.43350212  0.83936888  0.30725218  1  -0.00749  0  -0.003063  0.061152  0  3.96914  0
C  C155  1  0.56649681  0.33936821  0.19274827  1  -0.007513  0  -0.003027  0.061241  0  3.969065  0
C  C156  1  0.46245480  0.13341286  0.72004351  1  -0.063929  0  -0.010129  -0.123558  0  3.886551  0
C  C157  1  0.53754591  0.63340976  0.77995821  1  -0.063837  0  -0.010187  -0.123708  0  3.886397  0
C  C158  1  0.53754631  0.86658797  0.27995869  1  -0.063899  0  -0.010101  -0.123492  0  3.886439  0
C  C159  1  0.46245154  0.36658875  0.22004222  1  -0.063842  0  -0.010115  -0.123611  0  3.886476  0
C  C160  1  0.34390507  0.14233375  0.68390761  1  -0.005939  0  -0.005017  0.055695  0  3.977032  0
C  C161  1  0.65609741  0.64233157  0.81609374  1  -0.006035  0  -0.005064  0.055697  0  3.977053  0
C  C162  1  0.65609788  0.85766592  0.31609624  1  -0.006106  0  -0.005121  0.055541  0  3.977225  0
C  C163  1  0.34390186  0.35766811  0.18390531  1  -0.006013  0  -0.005105  0.055644  0  3.977086  0
C  C164  1  0.23667204  0.11117677  0.70713610  1  -0.03793  0  -0.096911  -0.137209  0  4.006125  0
C  C165  1  0.76332972  0.61117429  0.79286567  1  -0.037752  0  -0.09691  -0.137204  0  4.006084  0
C  C166  1  0.76332999  0.88882291  0.29286717  1  -0.037651  0  -0.096861  -0.137158  0  4.006092  0
C  C167  1  0.23666864  0.38882654  0.20713281  1  -0.037465  0  -0.096843  -0.137176  0  4.005989  0
C  C168  1  0.12321796  0.12000292  0.67018977  1  -0.062406  0  -0.104343  -0.101853  0  4.057948  0
C  C169  1  0.87678190  0.62000136  0.82981036  1  -0.062442  0  -0.104285  -0.101761  0  4.057956  0
C  C170  1  0.87678590  0.87999733  0.32981414  1  -0.062794  0  -0.104335  -0.101772  0  4.057834  0
C  C171  1  0.12321370  0.38000063  0.17018540  1  -0.062594  0  -0.104355  -0.101759  0  4.057808  0
C  C172  1  0.10877763  0.16158964  0.60793205  1  -0.058932  0  -0.098835  -0.090365  0  4.045905  0
C  C173  1  0.89122290  0.66158928  0.89206817  1  -0.058939  0  -0.098843  -0.090369  0  4.045768  0
C  C174  1  0.89122166  0.83841061  0.39207153  1  -0.058728  0  -0.098885  -0.090449  0  4.045972  0
C  C175  1  0.10877544  0.33841213  0.10792779  1  -0.058898  0  -0.098794  -0.09034  0  4.04588  0
C  C176  1  0.20898861  0.19303662  0.58396457  1  -0.00488  0  -0.088724  -0.118297  0  3.963468  0
C  C177  1  0.79100991  0.69303480  0.91603554  1  -0.00484  0  -0.088689  -0.118258  0  3.963441  0
C  C178  1  0.79101525  0.80696479  0.41603884  1  -0.004906  0  -0.088711  -0.118307  0  3.963593  0
C  C179  1  0.20898478  0.30696660  0.08396116  1  -0.0049  0  -0.088772  -0.118471  0  3.963792  0
C  C180  1  0.32868419  0.18383440  0.62030340  1  -0.003204  0  -0.005521  0.052122  0  3.986363  0
C  C181  1  0.67131438  0.68382995  0.87969721  1  -0.003091  0  -0.005541  0.052001  0  3.986484  0
C  C182  1  0.67131601  0.81616700  0.37970025  1  -0.003022  0  -0.00543  0.052182  0  3.986426  0
C  C183  1  0.32868123  0.31616972  0.12030057  1  -0.00305  0  -0.00548  0.052102  0  3.986568  0
C  C184  1  0.47561624  0.10133612  0.79114250  1  1.598229  0  0.213528  0.611195  0  4.195649  0
C  C185  1  0.52438648  0.60133355  0.70885580  1  1.598282  0  0.213616  0.61131  0  4.195358  0
C  C186  1  0.52438762  0.89866240  0.20885989  1  1.598822  0  0.213601  0.611356  0  4.195726  0
C  C187  1  0.47561096  0.39866439  0.29114262  1  1.598361  0  0.213689  0.61149  0  4.195349  0
C  C188  1  0.11186162  0.38173611  0.46226330  1  0.436512  0  0.044615  0.100848  0  3.940419  0
C  C189  1  0.88813523  0.88173530  0.03773958  1  0.436501  0  0.044562  0.100701  0  3.940362  0
C  C190  1  0.88813675  0.61826472  0.53773921  1  0.43661  0  0.04464  0.100779  0  3.940331  0
C  C191  1  0.11186497  0.11826495  0.96226206  1  0.436548  0  0.044607  0.100828  0  3.940217  0
C  C192  1  0.99083758  0.35739136  0.45653059  1  -0.060359  0  -0.088204  -0.192096  0  3.906272  0
C  C193  1  0.00915668  0.85739101  0.04347308  1  -0.060358  0  -0.088186  -0.192078  0  3.906407  0
C  C194  1  0.00915988  0.64260889  0.54347236  1  -0.060454  0  -0.088153  -0.19196  0  3.906348  0
C  C195  1  0.99084260  0.14260982  0.95652899  1  -0.060392  0  -0.088195  -0.192019  0  3.906204  0
C  C196  1  0.94632515  0.30629119  0.40434240  1  0.012221  0  0.012252  0.170544  0  3.960554  0
C  C197  1  0.05367125  0.80629022  0.09566087  1  0.012419  0  0.012372  0.170606  0  3.960842  0
C  C198  1  0.05367231  0.69370849  0.59566004  1  0.012575  0  0.012314  0.17052  0  3.960806  0
C  C199  1  0.94632986  0.19370888  0.90434033  1  0.012439  0  0.01233  0.17053  0  3.960807  0
C  C200  1  0.02789986  0.28250955  0.35977945  1  -0.109982  0  -0.094435  -0.208796  0  3.980193  0
C  C201  1  0.97209759  0.78250924  0.14022387  1  -0.109989  0  -0.094404  -0.208681  0  3.980217  0
C  C202  1  0.97209942  0.71749012  0.64022313  1  -0.110388  0  -0.094439  -0.208788  0  3.980217  0
C  C203  1  0.02790260  0.21748812  0.85977574  1  -0.103391  0  -0.09444  -0.208787  0  3.980295  0
C  C204  1  0.14740882  0.30979450  0.36837584  1  0.464195  0  0.040418  0.088625  0  3.981614  0
C  C205  1  0.85258755  0.80979448  0.13162693  1  0.464219  0  0.040384  0.088606  0  3.981601  0
C  C206  1  0.85258955  0.69020633  0.63162566  1  0.464198  0  0.040404  0.088624  0  3.981595  0
C  C207  1  0.14741173  0.19020347  0.86837414  1  0.46425  0  0.0404  0.08866  0  3.981597  0
C  C208  1  0.81849075  0.27549005  0.39798772  1  -0.07989  0  -0.163926  -0.212929  0  3.92582  0
C  C209  1  0.18150308  0.77548992  0.10201282  1  -0.080005  0  -0.16402  -0.213158  0  3.925848  0
C  C210  1  0.18150488  0.72450905  0.60201359  1  -0.079775  0  -0.164005  -0.213009  0  3.925863  0
C  C211  1  0.81849619  0.22450975  0.89798623  1  -0.080043  0  -0.16399  -0.212996  0  3.925832  0
C  C212  1  0.81406974  0.19784824  0.43525525  1  0.029621  0  -0.155082  -0.117107  0  3.926614  0
C  C213  1  0.18592455  0.69784401  0.06474474  1  0.029652  0  -0.155093  -0.117122  0  3.926507  0
C  C214  1  0.18592588  0.80215317  0.56474606  1  0.029688  0  -0.155097  -0.117203  0  3.926679  0
C  C215  1  0.81407472  0.30215220  0.93525431  1  0.029655  0  -0.155136  -0.11722  0  3.926746  0
C  C216  1  0.68578205  0.16209253  0.42517682  1  -0.003134  0  -0.156551  -0.212784  0  3.925987  0
C  C217  1  0.31420696  0.66209030  0.07481923  1  -0.003006  0  -0.156437  -0.212675  0  3.926031  0
C  C218  1  0.31421082  0.83791004  0.57482177  1  -0.003025  0  -0.156457  -0.212667  0  3.92588  0
C  C219  1  0.68579048  0.33790937  0.92517818  1  -0.003003  0  -0.156418  -0.212626  0  3.925759  0
C  C220  1  0.65257381  0.09358858  0.24123823  1  0.567425  0  0.041505  0.094213  0  3.9862  0
C  C221  1  0.34742566  0.59358651  0.25876001  1  0.567414  0  0.041451  0.094128  0  3.986319  0
C  C222  1  0.34742454  0.90641572  0.75876125  1  0.56739  0  0.041436  0.09405  0  3.986369  0
C  C223  1  0.65258183  0.40641259  0.74123811  1  0.567895  0  0.041404  0.09407  0  3.986553  0
C  C224  1  0.70239662  0.10560154  0.30829827  1  -0.15513  0  -0.089373  -0.193859  0  3.954976  0
C  C225  1  0.29760004  0.60559719  0.19169927  1  -0.155248  0  -0.089348  -0.19386  0  3.955005  0
C  C226  1  0.29759991  0.89440276  0.69170108  1  -0.155222  0  -0.089362  -0.193849  0  3.954917  0
C  C227  1  0.70240471  0.39440133  0.80829865  1  -0.155328  0  -0.089346  -0.193979  0  3.955096  0
C  C228  1  0.63716785  0.14847252  0.35170127  1  -0.000598  0  0.020385  0.183853  0  3.917081  0
C  C229  1  0.36282764  0.64846970  0.14829623  1  -0.000812  0  0.020306  0.183696  0  3.917222  0
C  C230  1  0.36282685  0.85153004  0.64829896  1  -0.000749  0  0.020383  0.183767  0  3.917014  0
C  C231  1  0.63717528  0.35153056  0.85170005  1  -0.001072  0  0.020335  0.183769  0  3.916985  0
C  C232  1  0.52431286  0.17897587  0.32363065  1  -0.027072  0  -0.07821  -0.175041  0  3.891133  0
C  C233  1  0.47567878  0.67897511  0.17636560  1  -0.027175  0  -0.07813  -0.174875  0  3.891243  0
C  C234  1  0.47568001  0.82102496  0.67636895  1  -0.027126  0  -0.078192  -0.174895  0  3.891069  0
C  C235  1  0.52432048  0.32102572  0.82363042  1  -0.026958  0  -0.078178  -0.174867  0  3.89114  0
C  C236  1  0.47993989  0.16385915  0.25610372  1  0.486684  0  0.051132  0.110971  0  3.951222  0
C  C237  1  0.52005734  0.66386010  0.24389342  1  0.48715  0  0.051127  0.110936  0  3.951273  0
C  C238  1  0.52005756  0.83614168  0.74389671  1  0.486824  0  0.051166  0.110995  0  3.951237  0
C  C239  1  0.47994740  0.33614131  0.75610299  1  0.486886  0  0.051263  0.111104  0  3.951218  0
C  C240  1  0.17337722  0.45706911  0.66702293  1  1.380622  0  0.180598  0.312627  0  4.08234  0
C  C241  1  0.82664624  0.95707230  0.83298425  1  1.381636  0  0.180585  0.312632  0  4.082412  0
C  C242  1  0.82662296  0.54293346  0.33297568  1  1.38062  0  0.180505  0.312635  0  4.0824  0
C  C243  1  0.17335305  0.04292334  0.16702034  1  1.381661  0  0.18049  0.312475  0  4.082359  0
C  C244  1  0.96743736  0.49908638  0.68223624  1  0.239935  0  -0.133292  -0.284794  0  3.909909  0
C  C245  1  0.03257851  0.99908864  0.81776440  1  0.241264  0  -0.133532  -0.285417  0  3.910117  0
C  C246  1  0.03256373  0.50090982  0.31776142  1  0.240994  0  -0.133388  -0.284861  0  3.909883  0
C  C247  1  0.96742443  0.00091046  0.18223794  1  0.24115  0  -0.13346  -0.285239  0  3.90995  0
C  C248  1  0.01963709  0.36018107  0.68218329  1  0.222368  0  -0.132296  -0.271188  0  3.877826  0
C  C249  1  0.98038327  0.86018154  0.81781702  1  0.222034  0  -0.132393  -0.271437  0  3.878172  0
C  C250  1  0.98037040  0.63981861  0.31781382  1  0.222287  0  -0.132292  -0.271099  0  3.877909  0
C  C251  1  0.01961875  0.13981756  0.18218272  1  0.22226  0  -0.132366  -0.27131  0  3.878057  0
S  S252  1  0.67641523  0.44158484  0.51567016  1  3.782209  0  0.549947  1.407872  0  6.390744  0
S  S253  1  0.32358544  0.94158254  0.98432783  1  3.782881  0  0.549969  1.407892  0  6.390887  0
S  S254  1  0.32358312  0.55841714  0.48432731  1  3.782657  0  0.549945  1.407763  0  6.390938  0
S  S255  1  0.67641567  0.05841482  0.01567236  1  3.782715  0  0.549897  1.407782  0  6.390949  0
N  N256  1  0.18900467  0.35867300  0.41888521  1  -1.248712  0  -0.336234  -0.265878  0  3.527103  0
N  N257  1  0.81099142  0.85867128  0.08111860  1  -1.248757  0  -0.336231  -0.265839  0  3.527038  0
N  N258  1  0.81099462  0.64132899  0.58111737  1  -1.248772  0  -0.336283  -0.26593  0  3.527132  0
N  N259  1  0.18900878  0.14132666  0.91888354  1  -1.248783  0  -0.336233  -0.265927  0  3.52707  0
N  N260  1  0.54211982  0.12122848  0.21544942  1  -1.229645  0  -0.337588  -0.274678  0  3.53967  0
N  N261  1  0.45787674  0.62122905  0.28454663  1  -1.229954  0  -0.337541  -0.274615  0  3.539836  0
N  N262  1  0.45787762  0.87877467  0.78454950  1  -1.229574  0  -0.337593  -0.274684  0  3.539902  0
N  N263  1  0.54213075  0.37877178  0.71545049  1  -1.229567  0  -0.337671  -0.274756  0  3.539936  0
N  N264  1  0.05919521  0.43985216  0.67750836  1  -1.216974  0  -0.280301  0.040063  0  3.711979  0
N  N265  1  0.94082286  0.93985101  0.82249440  1  -1.218101  0  -0.280166  0.040382  0  3.711983  0
N  N266  1  0.94080862  0.56014751  0.32248850  1  -1.218024  0  -0.280297  0.039876  0  3.711884  0
N  N267  1  0.05918282  0.06014809  0.17750813  1  -1.218183  0  -0.280126  0.040306  0  3.712269  0
O  O268  1  0.39084787  0.33808684  0.54600564  1  -1.154401  0  -0.337639  -0.591443  0  2.409361  0
O  O269  1  0.60915800  0.83808379  0.95399514  1  -1.154227  0  -0.337649  -0.591379  0  2.409382  0
O  O270  1  0.60915323  0.66191515  0.45399505  1  -1.154297  0  -0.337653  -0.591383  0  2.409444  0
O  O271  1  0.39084402  0.16191589  0.04600612  1  -1.15423  0  -0.337718  -0.591462  0  2.409407  0
O  O272  1  0.42046359  0.24091373  0.47590297  1  -1.149177  0  -0.309525  -0.527937  0  2.114795  0
O  O273  1  0.57953044  0.74091193  0.02409755  1  -1.149153  0  -0.309405  -0.527806  0  2.114953  0
O  O274  1  0.57953661  0.75908710  0.52410068  1  -1.149262  0  -0.309382  -0.527707  0  2.114755  0
O  O275  1  0.42046792  0.25908543  0.97590244  1  -1.149186  0  -0.309366  -0.527757  0  2.115293  0
O  O276  1  0.54697588  0.04514726  0.80691214  1  -1.184239  0  -0.32668  -0.578978  0  2.282813  0
O  O277  1  0.45302626  0.54514716  0.69308606  1  -1.184244  0  -0.326645  -0.578977  0  2.282916  0
O  O278  1  0.45302979  0.95485183  0.19308837  1  -1.184233  0  -0.326729  -0.579137  0  2.282925  0
O  O279  1  0.54696845  0.45485021  0.30691367  1  -1.184241  0  -0.326747  -0.579162  0  2.282982  0
O  O280  1  0.41139522  0.13702566  0.83035255  1  -1.1684  0  -0.325113  -0.562815  0  2.32305  0
O  O281  1  0.58861459  0.63701941  0.66964680  1  -1.168516  0  -0.325182  -0.562837  0  2.322967  0
O  O282  1  0.58860772  0.86297343  0.16965029  1  -1.168935  0  -0.325128  -0.562824  0  2.323186  0
O  O283  1  0.41138103  0.36297968  0.33035249  1  -1.168574  0  -0.325216  -0.562903  0  2.322826  0
O  O284  1  0.25477956  0.40742451  0.66314042  1  -1.151379  0  -0.306912  -0.462793  0  2.34399  0
O  O285  1  0.74523689  0.90742386  0.83686722  1  -1.152089  0  -0.306917  -0.462902  0  2.34396  0
O  O286  1  0.74522703  0.59257632  0.33686066  1  -1.151449  0  -0.306832  -0.462747  0  2.344236  0
O  O287  1  0.25477153  0.09257697  0.16313550  1  -1.152084  0  -0.306948  -0.462913  0  2.343553  0
O  O288  1  0.60533324  0.37624892  0.48166176  1  -1.3334  0  -0.359599  -0.649748  0  2.288954  0
O  O289  1  0.39466637  0.87624758  0.01833727  1  -1.333619  0  -0.359607  -0.649771  0  2.289021  0
O  O290  1  0.39466786  0.62375191  0.51833742  1  -1.333427  0  -0.359597  -0.649726  0  2.289007  0
O  O291  1  0.60533474  0.12375036  0.98166443  1  -1.333517  0  -0.359572  -0.649696  0  2.289  0
O  O292  1  0.59913439  0.48027938  0.56565129  1  -1.310838  0  -0.391027  -0.730543  0  2.387167  0
O  O293  1  0.40086697  0.98027798  0.93434830  1  -1.310849  0  -0.391058  -0.730555  0  2.387129  0
O  O294  1  0.40086121  0.51972260  0.43434347  1  -1.310897  0  -0.391  -0.73045  0  2.387072  0
O  O295  1  0.59913505  0.01971880  0.06565245  1  -1.310869  0  -0.391064  -0.730552  0  2.387093  0
O  O296  1  0.79188753  0.41535155  0.55316709  1  -1.345421  0  -0.351939  -0.625968  0  2.150745  0
O  O297  1  0.20811513  0.91534949  0.94683203  1  -1.345629  0  -0.351953  -0.625997  0  2.150886  0
O  O298  1  0.20810809  0.58465275  0.44683321  1  -1.345611  0  -0.351983  -0.625982  0  2.150791  0
O  O299  1  0.79188597  0.08464845  0.05316917  1  -1.345478  0  -0.351958  -0.625978  0  2.15085  0
O  O300  1  0.69736342  0.50202570  0.46443514  1  -1.334433  0  -0.369223  -0.6856  0  2.310513  0
O  O301  1  0.30263387  0.00202376  0.03556386  1  -1.334671  0  -0.36919  -0.685557  0  2.310527  0
O  O302  1  0.30263585  0.49797455  0.53556290  1  -1.334641  0  -0.369199  -0.685569  0  2.310628  0
O  O303  1  0.69736723  0.99797534  0.96443632  1  -1.334702  0  -0.369156  -0.685557  0  2.310621  0
