# generated using pymatgen
data_PH14AuC14I
_symmetry_space_group_name_H-M   'P 1'
_cell_length_a   11.27280915
_cell_length_b   11.27279663
_cell_length_c   11.81112294
_cell_angle_alpha   79.87462192
_cell_angle_beta   79.87462403
_cell_angle_gamma   77.66223348
_symmetry_Int_Tables_number   1
_chemical_formula_structural   PH14AuC14I
_chemical_formula_sum   'P4 H56 Au4 C56 I4'
_cell_volume   1428.42123841
_cell_formula_units_Z   4
loop_
 _symmetry_equiv_pos_site_id
 _symmetry_equiv_pos_as_xyz
  1  'x, y, z'
loop_
 _atom_site_type_symbol
 _atom_site_label
 _atom_site_symmetry_multiplicity
 _atom_site_fract_x
 _atom_site_fract_y
 _atom_site_fract_z
 _atom_site_occupancy
 _atom_site_hle17_bader_spin_density
 _atom_site_hle17_ddec_charge
 _atom_site_hle17_ddec_spin_density
 _atom_site_hle17_ddec_sum_bond_order
 _atom_site_hle17_magmom
 _atom_site_hse06_10hf_bader_spin_density
 _atom_site_hse06_10hf_ddec_charge
 _atom_site_hse06_10hf_ddec_spin_density
 _atom_site_hse06_10hf_ddec_sum_bond_order
 _atom_site_hse06_10hf_magmom
 _atom_site_hse06_bader_spin_density
 _atom_site_hse06_ddec_charge
 _atom_site_hse06_ddec_spin_density
 _atom_site_hse06_ddec_sum_bond_order
 _atom_site_hse06_magmom
 _atom_site_pbe_bader_spin_density
 _atom_site_pbe_cm5_charge
 _atom_site_pbe_ddec_charge
 _atom_site_pbe_ddec_spin_density
 _atom_site_pbe_ddec_sum_bond_order
 _atom_site_pbe_magmom
P  P0  1  0.73969297  0.94917397  0.77548886  1  0  0.473387  0  3.943931  0  0  0.429771  0  4.404701  0  0  0.439806  0  4.403886  0  0  -0.001009  0.421913  0  4.405935  0
P  P1  1  0.05082735  0.26030675  0.72451198  1  0  0.473372  0  3.943984  0  0  0.429725  0  4.404847  0  0  0.439761  0  4.404033  0  0  -0.001005  0.421865  0  4.406076  0
P  P2  1  0.26030635  0.05082769  0.22451304  1  0  0.473388  0  3.943922  0  0  0.429763  0  4.40468  0  0  0.439795  0  4.403867  0  0  -0.001001  0.421906  0  4.405911  0
P  P3  1  0.94917323  0.73969309  0.27548662  1  0  0.473327  0  3.944014  0  0  0.42967  0  4.40486  0  0  0.439704  0  4.404045  0  0  -0.001014  0.421811  0  4.406093  0
H  H4  1  0.70976148  0.00070957  0.96606511  1  0  0.103245  0  0.951275  0  0  0.119728  0  1.014871  0  0  0.120976  0  1.015292  0  0  0.095786  0.118743  0  1.0148  0
H  H5  1  0.99929038  0.29023876  0.53393580  1  0  0.10325  0  0.951312  0  0  0.119742  0  1.0149  0  0  0.12099  0  1.015321  0  0  0.095794  0.118756  0  1.014827  0
H  H6  1  0.29023893  0.99929118  0.03393506  1  0  0.103225  0  0.951285  0  0  0.119712  0  1.014879  0  0  0.12096  0  1.0153  0  0  0.095776  0.118728  0  1.014807  0
H  H7  1  0.00071055  0.70975924  0.46606389  1  0  0.103263  0  0.951268  0  0  0.119756  0  1.014846  0  0  0.121004  0  1.015268  0  0  0.095801  0.118771  0  1.014775  0
H  H8  1  0.68327558  0.85011136  0.97001456  1  0  0.109529  0  0.93667  0  0  0.127925  0  0.993477  0  0  0.12881  0  0.995255  0  0  0.099684  0.127044  0  0.992573  0
H  H9  1  0.14988978  0.31672410  0.52998631  1  0  0.109538  0  0.936686  0  0  0.127946  0  0.993479  0  0  0.128834  0  0.995253  0  0  0.099689  0.127064  0  0.992573  0
H  H10  1  0.31672392  0.14988939  0.02998576  1  0  0.109547  0  0.9367  0  0  0.127947  0  0.993492  0  0  0.128834  0  0.995268  0  0  0.099684  0.127067  0  0.992588  0
H  H11  1  0.85011169  0.68327574  0.47001468  1  0  0.10954  0  0.936671  0  0  0.127942  0  0.993468  0  0  0.12883  0  0.995242  0  0  0.09969  0.127061  0  0.992565  0
H  H12  1  0.48039447  0.93786044  0.90125065  1  0  0.062415  0  0.951247  0  0  0.080087  0  1.016531  0  0  0.080639  0  1.017442  0  0  0.08288  0.079549  0  1.016075  0
H  H13  1  0.06213965  0.51960527  0.59874871  1  0  0.062399  0  0.951252  0  0  0.080066  0  1.016541  0  0  0.080624  0  1.017456  0  0  0.082887  0.079528  0  1.016084  0
H  H14  1  0.51960593  0.06214032  0.09874867  1  0  0.062406  0  0.951263  0  0  0.080082  0  1.016541  0  0  0.080636  0  1.01745  0  0  0.082882  0.079544  0  1.016086  0
H  H15  1  0.93786110  0.48039365  0.40125171  1  0  0.062372  0  0.951248  0  0  0.08002  0  1.016572  0  0  0.080572  0  1.017484  0  0  0.082864  0.079482  0  1.016115  0
H  H16  1  0.51069978  0.08895622  0.88554953  1  0  0.061763  0  0.943258  0  0  0.078575  0  1.010489  0  0  0.079662  0  1.010051  0  0  0.078879  0.0778  0  1.010652  0
H  H17  1  0.91104520  0.48930030  0.61445034  1  0  0.061749  0  0.943282  0  0  0.078559  0  1.010507  0  0  0.079653  0  1.010073  0  0  0.078882  0.077785  0  1.010671  0
H  H18  1  0.48930063  0.91104454  0.11444895  1  0  0.061761  0  0.94327  0  0  0.078579  0  1.010491  0  0  0.079667  0  1.010054  0  0  0.078889  0.077805  0  1.010656  0
H  H19  1  0.08895572  0.51069770  0.38555105  1  0  0.061746  0  0.94328  0  0  0.078565  0  1.010499  0  0  0.079653  0  1.01006  0  0  0.078873  0.07779  0  1.010662  0
H  H20  1  0.66748592  0.70944834  0.86051786  1  0  0.089521  0  0.961468  0  0  0.101538  0  1.023653  0  0  0.103717  0  1.023376  0  0  0.100165  0.099881  0  1.02421  0
H  H21  1  0.29055170  0.33251447  0.63948222  1  0  0.089531  0  0.96147  0  0  0.101554  0  1.023647  0  0  0.103732  0  1.023372  0  0  0.100181  0.099896  0  1.024203  0
H  H22  1  0.33251556  0.29055150  0.13948228  1  0  0.089531  0  0.961467  0  0  0.101549  0  1.023648  0  0  0.103728  0  1.023372  0  0  0.10017  0.099892  0  1.024205  0
H  H23  1  0.70944780  0.66748628  0.36051810  1  0  0.08954  0  0.961454  0  0  0.101559  0  1.023639  0  0  0.103738  0  1.023361  0  0  0.100173  0.099901  0  1.024195  0
H  H24  1  0.58116534  0.57363403  0.76751076  1  0  0.087649  0  0.96932  0  0  0.092916  0  1.038682  0  0  0.096227  0  1.037335  0  0  0.090602  0.090646  0  1.039665  0
H  H25  1  0.42636563  0.41883534  0.73249017  1  0  0.087649  0  0.969319  0  0  0.092904  0  1.038698  0  0  0.096218  0  1.037347  0  0  0.090598  0.090633  0  1.039681  0
H  H26  1  0.41883613  0.42636580  0.23249023  1  0  0.087653  0  0.969309  0  0  0.092912  0  1.038682  0  0  0.096226  0  1.037331  0  0  0.090601  0.090641  0  1.039664  0
H  H27  1  0.57363585  0.58116450  0.26750997  1  0  0.087653  0  0.969325  0  0  0.092897  0  1.038712  0  0  0.096211  0  1.037361  0  0  0.090609  0.090626  0  1.039695  0
H  H28  1  0.53052239  0.63911138  0.56578116  1  0  0.08094  0  0.985955  0  0  0.085792  0  1.057692  0  0  0.089263  0  1.055347  0  0  0.084095  0.082992  0  1.060309  0
H  H29  1  0.36088912  0.46947578  0.93422091  1  0  0.080933  0  0.985976  0  0  0.08579  0  1.057704  0  0  0.089262  0  1.055359  0  0  0.084095  0.082992  0  1.060314  0
H  H30  1  0.46947801  0.36088938  0.43421986  1  0  0.080898  0  0.985998  0  0  0.08575  0  1.057736  0  0  0.089222  0  1.05539  0  0  0.084084  0.08295  0  1.060352  0
H  H31  1  0.63911109  0.53052129  0.06578075  1  0  0.080909  0  0.985958  0  0  0.085759  0  1.0577  0  0  0.089231  0  1.055355  0  0  0.084066  0.08296  0  1.060318  0
H  H32  1  0.56836548  0.84130957  0.45749759  1  0  0.089121  0  0.947459  0  0  0.100029  0  1.009034  0  0  0.102625  0  1.008454  0  0  0.098887  0.098232  0  1.009272  0
H  H33  1  0.15869002  0.43163307  0.04250332  1  0  0.089127  0  0.947421  0  0  0.100032  0  1.008999  0  0  0.102626  0  1.008423  0  0  0.098899  0.098234  0  1.009237  0
H  H34  1  0.43163402  0.15869117  0.54250358  1  0  0.089125  0  0.947468  0  0  0.10004  0  1.009032  0  0  0.102634  0  1.008459  0  0  0.098907  0.098242  0  1.009269  0
H  H35  1  0.84130911  0.56836493  0.95749752  1  0  0.089119  0  0.94747  0  0  0.100033  0  1.009033  0  0  0.102628  0  1.008458  0  0  0.0989  0.098237  0  1.009271  0
H  H36  1  0.65959062  0.97609364  0.54912849  1  0  0.080697  0  1.002464  0  0  0.087509  0  1.075956  0  0  0.089427  0  1.076146  0  0  0.087937  0.086147  0  1.075932  0
H  H37  1  0.02390738  0.34040692  0.95087192  1  0  0.080709  0  1.002471  0  0  0.087522  0  1.075961  0  0  0.089438  0  1.076157  0  0  0.087929  0.08616  0  1.075938  0
H  H38  1  0.34040888  0.02390711  0.45087183  1  0  0.08067  0  1.002488  0  0  0.087483  0  1.075976  0  0  0.0894  0  1.076172  0  0  0.087923  0.086122  0  1.075951  0
H  H39  1  0.97609265  0.65959108  0.04912877  1  0  0.080665  0  1.002516  0  0  0.08748  0  1.076002  0  0  0.089396  0  1.076198  0  0  0.087925  0.086118  0  1.075978  0
H  H40  1  0.91904909  0.99781586  0.89651692  1  0  0.077678  0  0.97167  0  0  0.088073  0  1.041344  0  0  0.090717  0  1.03926  0  0  0.088908  0.086147  0  1.042892  0
H  H41  1  0.00218263  0.08095229  0.60348241  1  0  0.077653  0  0.971684  0  0  0.088066  0  1.041337  0  0  0.09071  0  1.039253  0  0  0.088905  0.08614  0  1.042885  0
H  H42  1  0.08095113  0.00218582  0.10348228  1  0  0.077671  0  0.971706  0  0  0.088054  0  1.041392  0  0  0.090698  0  1.039309  0  0  0.088896  0.086128  0  1.042941  0
H  H43  1  0.99781328  0.91904845  0.39651767  1  0  0.077648  0  0.971699  0  0  0.088027  0  1.041397  0  0  0.090671  0  1.039314  0  0  0.088886  0.086102  0  1.042946  0
H  H44  1  0.11976547  0.87781131  0.94676749  1  0  0.07484  0  0.980036  0  0  0.08247  0  1.050383  0  0  0.085216  0  1.048715  0  0  0.084172  0.080515  0  1.051628  0
H  H45  1  0.12218893  0.88023531  0.55323255  1  0  0.074837  0  0.980068  0  0  0.082471  0  1.050407  0  0  0.085218  0  1.048739  0  0  0.084189  0.080516  0  1.051653  0
H  H46  1  0.88023242  0.12218853  0.05323071  1  0  0.074836  0  0.98006  0  0  0.082454  0  1.050415  0  0  0.085198  0  1.048756  0  0  0.084177  0.0805  0  1.051651  0
H  H47  1  0.87781165  0.11976453  0.44676690  1  0  0.074893  0  0.980038  0  0  0.082503  0  1.050399  0  0  0.08525  0  1.048731  0  0  0.084195  0.080548  0  1.051642  0
H  H48  1  0.20676951  0.68064843  0.87440332  1  0  0.080852  0  0.990408  0  0  0.087324  0  1.059106  0  0  0.089995  0  1.058353  0  0  0.087395  0.085701  0  1.059162  0
H  H49  1  0.31935195  0.79322999  0.62559773  1  0  0.080861  0  0.990417  0  0  0.087328  0  1.059122  0  0  0.089999  0  1.058369  0  0  0.08739  0.085705  0  1.059178  0
H  H50  1  0.79322981  0.31935324  0.12559773  1  0  0.080835  0  0.990432  0  0  0.087307  0  1.059131  0  0  0.089977  0  1.058378  0  0  0.087384  0.085684  0  1.059188  0
H  H51  1  0.68064863  0.20676984  0.37440172  1  0  0.080862  0  0.990403  0  0  0.087343  0  1.0591  0  0  0.090014  0  1.058347  0  0  0.087399  0.085719  0  1.059156  0
H  H52  1  0.09546825  0.60074659  0.74881219  1  0  0.083748  0  0.977666  0  0  0.091911  0  1.044474  0  0  0.093948  0  1.045138  0  0  0.093522  0.090469  0  1.044138  0
H  H53  1  0.39925296  0.90452908  0.75119020  1  0  0.083754  0  0.977662  0  0  0.091925  0  1.04447  0  0  0.093963  0  1.045133  0  0  0.093526  0.090482  0  1.044138  0
H  H54  1  0.90453034  0.39925415  0.25118913  1  0  0.083748  0  0.977635  0  0  0.091914  0  1.044441  0  0  0.093952  0  1.045105  0  0  0.093517  0.090471  0  1.044111  0
H  H55  1  0.60074707  0.09546892  0.24881218  1  0  0.083768  0  0.97767  0  0  0.091935  0  1.044478  0  0  0.093972  0  1.045141  0  0  0.09353  0.090493  0  1.044146  0
H  H56  1  0.89232253  0.71699305  0.70097093  1  0  0.087546  0  0.970034  0  0  0.099827  0  1.02926  0  0  0.102076  0  1.029349  0  0  0.097226  0.098302  0  1.029179  0
H  H57  1  0.28300677  0.10767753  0.79903091  1  0  0.087575  0  0.969997  0  0  0.099881  0  1.029182  0  0  0.102129  0  1.029271  0  0  0.097239  0.098328  0  1.029135  0
H  H58  1  0.10767787  0.28300770  0.29903009  1  0  0.087599  0  0.969938  0  0  0.099885  0  1.029158  0  0  0.102134  0  1.029247  0  0  0.097236  0.098313  0  1.029133  0
H  H59  1  0.71699236  0.89232046  0.20096908  1  0  0.087569  0  0.969945  0  0  0.099868  0  1.029143  0  0  0.102116  0  1.029232  0  0  0.097234  0.098304  0  1.02911  0
Au  Au60  1  0.72744565  0.14395496  0.67971755  1  0  -0.033725  0  2.266097  0  0  -0.087199  0  2.778872  0  0  -0.071075  0  2.741797  0  0  0.195454  -0.097092  0  2.803404  0
Au  Au61  1  0.85604473  0.27255495  0.82028251  1  0  -0.033726  0  2.266084  0  0  -0.087213  0  2.778911  0  0  -0.071083  0  2.741837  0  0  0.195458  -0.097103  0  2.803443  0
Au  Au62  1  0.27255493  0.85604488  0.32028190  1  0  -0.033748  0  2.266102  0  0  -0.087235  0  2.778899  0  0  -0.071107  0  2.741828  0  0  0.195446  -0.097127  0  2.803435  0
Au  Au63  1  0.14395477  0.72744580  0.17971697  1  0  -0.033711  0  2.266084  0  0  -0.087184  0  2.778876  0  0  -0.071055  0  2.741804  0  0  0.195454  -0.097074  0  2.803412  0
C  C64  1  0.66393680  0.94523915  0.92584423  1  0  -0.288752  0  3.675878  0  0  -0.310751  0  3.92229  0  0  -0.31583  0  3.936073  0  0  -0.16689  -0.307631  0  3.913255  0
C  C65  1  0.05476178  0.33606267  0.57415587  1  0  -0.288784  0  3.675922  0  0  -0.310801  0  3.92233  0  0  -0.315876  0  3.936123  0  0  -0.166904  -0.307687  0  3.913309  0
C  C66  1  0.33606253  0.05476252  0.07415597  1  0  -0.288758  0  3.675853  0  0  -0.31078  0  3.922298  0  0  -0.315856  0  3.93608  0  0  -0.166912  -0.307665  0  3.913272  0
C  C67  1  0.94523863  0.66393809  0.42584261  1  0  -0.288779  0  3.675884  0  0  -0.310764  0  3.92226  0  0  -0.31584  0  3.936042  0  0  -0.166901  -0.30764  0  3.913219  0
C  C68  1  0.52706893  0.99659520  0.93658137  1  0  -0.079866  0  3.703343  0  0  -0.118181  0  3.955963  0  0  -0.118971  0  3.971165  0  0  -0.17057  -0.117398  0  3.945651  0
C  C69  1  0.00340365  0.47293187  0.56341972  1  0  -0.079802  0  3.703277  0  0  -0.118121  0  3.955939  0  0  -0.11894  0  3.971184  0  0  -0.170574  -0.117341  0  3.945625  0
C  C70  1  0.47293165  0.00340464  0.06341977  1  0  -0.079816  0  3.703322  0  0  -0.118141  0  3.95595  0  0  -0.118937  0  3.971157  0  0  -0.170568  -0.117361  0  3.945642  0
C  C71  1  0.99659640  0.52707071  0.43658190  1  0  -0.079792  0  3.703316  0  0  -0.118094  0  3.955929  0  0  -0.118882  0  3.971143  0  0  -0.170553  -0.117311  0  3.945612  0
C  C72  1  0.67051870  0.85163414  0.71005857  1  0  -0.123472  0  3.765933  0  0  -0.083432  0  3.999184  0  0  -0.089688  0  4.025066  0  0  -0.029297  -0.079153  0  3.981661  0
C  C73  1  0.14836679  0.32948044  0.78994243  1  0  -0.123348  0  3.76605  0  0  -0.083292  0  3.999269  0  0  -0.089546  0  4.025149  0  0  -0.029226  -0.079008  0  3.981737  0
C  C74  1  0.32948278  0.14836570  0.28994158  1  0  -0.12353  0  3.765991  0  0  -0.083461  0  3.999197  0  0  -0.089717  0  4.02508  0  0  -0.02931  -0.079178  0  3.981663  0
C  C75  1  0.85163397  0.67051848  0.21005799  1  0  -0.123445  0  3.76603  0  0  -0.083391  0  3.999251  0  0  -0.089646  0  4.025132  0  0  -0.029282  -0.07911  0  3.981723  0
C  C76  1  0.64667655  0.73856653  0.77194889  1  0  -0.070278  0  3.738464  0  0  -0.090169  0  3.979853  0  0  -0.090088  0  4.000701  0  0  -0.084209  -0.090038  0  3.965448  0
C  C77  1  0.26143225  0.35332245  0.72805163  1  0  -0.070343  0  3.738561  0  0  -0.090244  0  3.979948  0  0  -0.090163  0  4.000798  0  0  -0.084278  -0.090113  0  3.965537  0
C  C78  1  0.35332278  0.26143514  0.22805046  1  0  -0.070277  0  3.738445  0  0  -0.090174  0  3.979815  0  0  -0.090096  0  4.000667  0  0  -0.084192  -0.090041  0  3.965403  0
C  C79  1  0.73856744  0.64667739  0.27194712  1  0  -0.070324  0  3.738506  0  0  -0.090217  0  3.979886  0  0  -0.090139  0  4.000736  0  0  -0.084224  -0.090084  0  3.965475  0
C  C80  1  0.59735833  0.66214313  0.71977551  1  0  -0.066776  0  3.750638  0  0  -0.076697  0  3.99535  0  0  -0.080041  0  4.016563  0  0  -0.090415  -0.074178  0  3.980451  0
C  C81  1  0.33785788  0.40264049  0.78022552  1  0  -0.066839  0  3.750638  0  0  -0.076752  0  3.995353  0  0  -0.080099  0  4.016568  0  0  -0.090445  -0.074233  0  3.980452  0
C  C82  1  0.40264332  0.33785579  0.28022476  1  0  -0.066779  0  3.750664  0  0  -0.076693  0  3.995373  0  0  -0.080038  0  4.016584  0  0  -0.090413  -0.074174  0  3.980473  0
C  C83  1  0.66214305  0.59735751  0.21977502  1  0  -0.06676  0  3.750637  0  0  -0.076665  0  3.995358  0  0  -0.080011  0  4.016572  0  0  -0.090415  -0.074145  0  3.980459  0
C  C84  1  0.57022007  0.69846421  0.60619875  1  0  -0.056214  0  3.75232  0  0  -0.067888  0  3.994501  0  0  -0.067967  0  4.01421  0  0  -0.087851  -0.067904  0  3.98159  0
C  C85  1  0.30153657  0.42977723  0.89380257  1  0  -0.056183  0  3.752415  0  0  -0.067864  0  3.994599  0  0  -0.067944  0  4.014309  0  0  -0.087843  -0.06788  0  3.981688  0
C  C86  1  0.42977943  0.30153654  0.39380242  1  0  -0.056135  0  3.752351  0  0  -0.06781  0  3.994531  0  0  -0.067889  0  4.014241  0  0  -0.087829  -0.067827  0  3.981619  0
C  C87  1  0.69846364  0.57021985  0.10619824  1  0  -0.056164  0  3.752333  0  0  -0.067835  0  3.994507  0  0  -0.067915  0  4.014217  0  0  -0.087811  -0.067852  0  3.981598  0
C  C88  1  0.59180863  0.81150615  0.54515052  1  0  -0.072099  0  3.751954  0  0  -0.082333  0  3.996904  0  0  -0.085953  0  4.019151  0  0  -0.091213  -0.079428  0  3.981451  0
C  C89  1  0.18849526  0.40818963  0.95485055  1  0  -0.071995  0  3.751886  0  0  -0.082217  0  3.996816  0  0  -0.085838  0  4.019069  0  0  -0.091156  -0.079315  0  3.981369  0
C  C90  1  0.40819268  0.18849461  0.45484951  1  0  -0.0721  0  3.751965  0  0  -0.082343  0  3.996919  0  0  -0.085962  0  4.019163  0  0  -0.091215  -0.07944  0  3.981472  0
C  C91  1  0.81150693  0.59180654  0.04515009  1  0  -0.072072  0  3.751945  0  0  -0.082309  0  3.996895  0  0  -0.085928  0  4.019139  0  0  -0.091198  -0.079407  0  3.981451  0
C  C92  1  0.64228411  0.88793475  0.59665820  1  0  -0.070478  0  3.750133  0  0  -0.089282  0  3.989197  0  0  -0.090096  0  4.012435  0  0  -0.087086  -0.088516  0  3.973313  0
C  C93  1  0.11206717  0.35771452  0.90334272  1  0  -0.070614  0  3.750265  0  0  -0.089427  0  3.989332  0  0  -0.090242  0  4.012569  0  0  -0.087129  -0.088663  0  3.973444  0
C  C94  1  0.35771539  0.11206600  0.40334297  1  0  -0.070435  0  3.750166  0  0  -0.089246  0  3.98922  0  0  -0.090061  0  4.012461  0  0  -0.087085  -0.08848  0  3.97333  0
C  C95  1  0.88793431  0.64228532  0.09665658  1  0  -0.070484  0  3.750188  0  0  -0.089292  0  3.989244  0  0  -0.090107  0  4.012484  0  0  -0.087103  -0.088526  0  3.973359  0
C  C96  1  0.89152565  0.86365529  0.79740094  1  0  -0.116148  0  3.769713  0  0  -0.077958  0  4.004512  0  0  -0.083892  0  4.032047  0  0  -0.02887  -0.073517  0  3.985866  0
C  C97  1  0.13634153  0.10847453  0.70259801  1  0  -0.115905  0  3.76957  0  0  -0.07772  0  4.004374  0  0  -0.083656  0  4.031911  0  0  -0.028771  -0.073275  0  3.985713  0
C  C98  1  0.10847368  0.13634638  0.20260011  1  0  -0.116085  0  3.769648  0  0  -0.077882  0  4.004431  0  0  -0.083814  0  4.031965  0  0  -0.028827  -0.073438  0  3.985768  0
C  C99  1  0.86365833  0.89152439  0.29739917  1  0  -0.115956  0  3.769653  0  0  -0.077768  0  4.004463  0  0  -0.083702  0  4.031997  0  0  -0.028803  -0.073326  0  3.985807  0
C  C100  1  0.95625592  0.90926367  0.86623353  1  0  -0.070756  0  3.747298  0  0  -0.085751  0  3.98188  0  0  -0.08784  0  4.006308  0  0  -0.087387  -0.084169  0  3.965212  0
C  C101  1  0.09073455  0.04374161  0.63376308  1  0  -0.070937  0  3.747368  0  0  -0.085962  0  3.981992  0  0  -0.088049  0  4.00642  0  0  -0.087512  -0.084379  0  3.965322  0
C  C102  1  0.04374268  0.09073708  0.13376609  1  0  -0.070804  0  3.747383  0  0  -0.085806  0  3.981958  0  0  -0.087893  0  4.006386  0  0  -0.087449  -0.084224  0  3.965289  0
C  C103  1  0.90926442  0.95625732  0.36623170  1  0  -0.070794  0  3.747364  0  0  -0.085788  0  3.981939  0  0  -0.087875  0  4.006367  0  0  -0.087435  -0.084205  0  3.965271  0
C  C104  1  0.06875015  0.84275422  0.89392830  1  0  -0.0666  0  3.781295  0  0  -0.075448  0  4.020518  0  0  -0.078589  0  4.043633  0  0  -0.093764  -0.073367  0  4.005021  0
C  C105  1  0.15724479  0.93125039  0.60607113  1  0  -0.0665  0  3.78123  0  0  -0.075338  0  4.02044  0  0  -0.078481  0  4.043555  0  0  -0.093738  -0.07326  0  4.004943  0
C  C106  1  0.93125116  0.15724654  0.10606749  1  0  -0.066548  0  3.78123  0  0  -0.07537  0  4.020437  0  0  -0.078515  0  4.043554  0  0  -0.093713  -0.073285  0  4.004945  0
C  C107  1  0.84275597  0.06874852  0.39393013  1  0  -0.066621  0  3.781264  0  0  -0.075447  0  4.02048  0  0  -0.078591  0  4.043597  0  0  -0.093739  -0.073366  0  4.004987  0
C  C108  1  0.11823916  0.73134622  0.85246400  1  0  -0.056175  0  3.755512  0  0  -0.065053  0  3.991151  0  0  -0.066159  0  4.012141  0  0  -0.087831  -0.064377  0  3.976995  0
C  C109  1  0.26865323  0.88176083  0.64753882  1  0  -0.056204  0  3.755315  0  0  -0.065067  0  3.990964  0  0  -0.066178  0  4.011965  0  0  -0.08783  -0.064392  0  3.97681  0
C  C110  1  0.88175980  0.26865269  0.14753671  1  0  -0.05618  0  3.755377  0  0  -0.065056  0  3.991009  0  0  -0.066163  0  4.012001  0  0  -0.087839  -0.064382  0  3.976854  0
C  C111  1  0.73134662  0.11823808  0.35246344  1  0  -0.056206  0  3.755435  0  0  -0.065088  0  3.99109  0  0  -0.066197  0  4.012084  0  0  -0.087851  -0.064412  0  3.976937  0
C  C112  1  0.05544896  0.68678038  0.78237995  1  0  -0.065599  0  3.750059  0  0  -0.077066  0  3.994956  0  0  -0.079611  0  4.016711  0  0  -0.090939  -0.075486  0  3.980534  0
C  C113  1  0.31321777  0.94455459  0.71762250  1  0  -0.065676  0  3.74997  0  0  -0.077172  0  3.994914  0  0  -0.079716  0  4.016662  0  0  -0.09099  -0.075591  0  3.980483  0
C  C114  1  0.94454964  0.31322036  0.21762221  1  0  -0.065602  0  3.750023  0  0  -0.077076  0  3.994943  0  0  -0.07962  0  4.016697  0  0  -0.090941  -0.075493  0  3.980506  0
C  C115  1  0.68678280  0.05544524  0.28237864  1  0  -0.065683  0  3.749995  0  0  -0.077166  0  3.994932  0  0  -0.079712  0  4.016687  0  0  -0.090989  -0.075585  0  3.980501  0
C  C116  1  0.94195971  0.75256689  0.75472317  1  0  -0.077725  0  3.753636  0  0  -0.096479  0  3.99424  0  0  -0.097493  0  4.015781  0  0  -0.089412  -0.095737  0  3.979697  0
C  C117  1  0.24742870  0.05804506  0.74527775  1  0  -0.077783  0  3.753555  0  0  -0.096539  0  3.994165  0  0  -0.097552  0  4.015708  0  0  -0.089403  -0.095774  0  3.979629  0
C  C118  1  0.05803962  0.24743478  0.24527788  1  0  -0.077812  0  3.753638  0  0  -0.096573  0  3.99422  0  0  -0.097587  0  4.015761  0  0  -0.089429  -0.095793  0  3.979689  0
C  C119  1  0.75257098  0.94195477  0.25472185  1  0  -0.077784  0  3.753504  0  0  -0.096541  0  3.994113  0  0  -0.097555  0  4.015655  0  0  -0.089413  -0.095769  0  3.979585  0
I  I120  1  0.69734868  0.36166673  0.55479235  1  0  -0.328292  0  1.279774  0  0  -0.269787  0  1.640864  0  0  -0.289806  0  1.619375  0  0  -0.178861  -0.256084  0  1.656077  0
I  I121  1  0.63833110  0.30265526  0.94520494  1  0  -0.328283  0  1.279765  0  0  -0.2698  0  1.640907  0  0  -0.289821  0  1.619418  0  0  -0.178849  -0.256098  0  1.656116  0
I  I122  1  0.30265479  0.63833221  0.44520423  1  0  -0.328274  0  1.279773  0  0  -0.269785  0  1.640901  0  0  -0.289806  0  1.619415  0  0  -0.178849  -0.256082  0  1.656112  0
I  I123  1  0.36166608  0.69734824  0.05479192  1  0  -0.328297  0  1.279766  0  0  -0.269793  0  1.640857  0  0  -0.289816  0  1.61937  0  0  -0.178865  -0.256093  0  1.656069  0
