# generated using pymatgen
data_CdH14C12NO7
_symmetry_space_group_name_H-M   'P 1'
_cell_length_a   9.79525481
_cell_length_b   13.07891932
_cell_length_c   13.07895032
_cell_angle_alpha   90.39880397
_cell_angle_beta   88.33890419
_cell_angle_gamma   88.33719382
_symmetry_Int_Tables_number   1
_chemical_formula_structural   CdH14C12NO7
_chemical_formula_sum   'Cd4 H56 C48 N4 O28'
_cell_volume   1674.10152767
_cell_formula_units_Z   4
loop_
 _symmetry_equiv_pos_site_id
 _symmetry_equiv_pos_as_xyz
  1  'x, y, z'
loop_
 _atom_site_type_symbol
 _atom_site_label
 _atom_site_symmetry_multiplicity
 _atom_site_fract_x
 _atom_site_fract_y
 _atom_site_fract_z
 _atom_site_occupancy
 _atom_site_pbe_bader_charge
 _atom_site_pbe_bader_spin_density
 _atom_site_pbe_cm5_charge
 _atom_site_pbe_ddec_charge
 _atom_site_pbe_ddec_spin_density
 _atom_site_pbe_ddec_sum_bond_order
 _atom_site_pbe_magmom
Cd  Cd0  1  0.08807296  0.65904676  0.73700484  1  1.313336  0  0.750792  1.01817  0  2.040067  0
Cd  Cd1  1  0.41191107  0.26299130  0.34094585  1  1.313327  0  0.75079  1.018117  0  2.040057  0
Cd  Cd2  1  0.91192021  0.34094786  0.26299381  1  1.313365  0  0.750775  1.018131  0  2.039873  0
Cd  Cd3  1  0.58808808  0.73700556  0.65905096  1  1.313393  0  0.750795  1.018152  0  2.039875  0
H  H4  1  0.83047421  0.06612655  0.22440336  1  0.077384  0  0.100384  0.075827  0  1.003484  0
H  H5  1  0.66953051  0.77559164  0.93387341  1  0.077322  0  0.100416  0.075905  0  1.003368  0
H  H6  1  0.16952688  0.93386912  0.77558578  1  0.077447  0  0.100415  0.075876  0  1.003361  0
H  H7  1  0.33046111  0.22441384  0.06612779  1  0.077519  0  0.10041  0.075887  0  1.003433  0
H  H8  1  0.71945743  0.98362848  0.16239134  1  0.075571  0  0.10989  0.094872  0  1.00788  0
H  H9  1  0.78054428  0.83760167  0.01636755  1  0.075252  0  0.109898  0.094858  0  1.008018  0
H  H10  1  0.28053930  0.01635700  0.83760767  1  0.075562  0  0.109883  0.094892  0  1.008012  0
H  H11  1  0.21945583  0.16239682  0.98363067  1  0.075252  0  0.109897  0.094876  0  1.007985  0
H  H12  1  0.83253654  0.14085234  0.04403276  1  0.09916  0  0.097437  0.110081  0  1.018912  0
H  H13  1  0.66745763  0.95596134  0.85914666  1  0.099235  0  0.097472  0.110113  0  1.018855  0
H  H14  1  0.16746304  0.85913788  0.95596821  1  0.099068  0  0.09749  0.110138  0  1.018763  0
H  H15  1  0.33253594  0.04404833  0.14086039  1  0.099105  0  0.097472  0.11011  0  1.018822  0
H  H16  1  0.86421088  0.79806951  0.78108889  1  0.649759  0  0.289195  0.389381  0  0.953845  0
H  H17  1  0.63579542  0.21891956  0.20192687  1  0.650131  0  0.289234  0.389578  0  0.953646  0
H  H18  1  0.13579581  0.20192515  0.21892157  1  0.650117  0  0.289209  0.389532  0  0.9537  0
H  H19  1  0.36420550  0.78108275  0.79807113  1  0.650143  0  0.289189  0.389485  0  0.953758  0
H  H20  1  0.84595893  0.70131045  0.84585357  1  0.631583  0  0.303382  0.393927  0  0.926419  0
H  H21  1  0.65404466  0.15415524  0.29868886  1  0.631594  0  0.303312  0.39387  0  0.926494  0
H  H22  1  0.15403952  0.29868478  0.15415484  1  0.631685  0  0.303365  0.39394  0  0.926419  0
H  H23  1  0.34595520  0.84584962  0.70131364  1  0.631568  0  0.303298  0.393856  0  0.926527  0
H  H24  1  0.84042343  0.55296586  0.76033848  1  0.657896  0  0.285554  0.371615  0  0.982471  0
H  H25  1  0.65956457  0.23966357  0.44703909  1  0.658024  0  0.285643  0.371776  0  0.98227  0
H  H26  1  0.15956964  0.44703203  0.23966384  1  0.657935  0  0.285603  0.371669  0  0.982407  0
H  H27  1  0.34042551  0.76033453  0.55296715  1  0.657894  0  0.28559  0.371639  0  0.982449  0
H  H28  1  0.96328411  0.47500713  0.77785177  1  0.613187  0  0.326065  0.41517  0  0.85992  0
H  H29  1  0.53671039  0.22215970  0.52499585  1  0.613088  0  0.326075  0.415197  0  0.859993  0
H  H30  1  0.03671702  0.52499675  0.22215993  1  0.613086  0  0.326101  0.415163  0  0.85992  0
H  H31  1  0.46327596  0.77784790  0.47500311  1  0.613019  0  0.326078  0.415088  0  0.859936  0
H  H32  1  0.34131339  0.55604016  0.68650623  1  0.673174  0  0.290565  0.394796  0  0.942965  0
H  H33  1  0.15867601  0.31347958  0.44395304  1  0.672979  0  0.290705  0.395013  0  0.942641  0
H  H34  1  0.65868156  0.44395811  0.31348911  1  0.673047  0  0.290649  0.394966  0  0.942745  0
H  H35  1  0.84131523  0.68650999  0.55603828  1  0.673146  0  0.290637  0.394937  0  0.942762  0
H  H36  1  0.27254588  0.57309050  0.58217943  1  0.616916  0  0.318636  0.404502  0  0.876759  0
H  H37  1  0.22744137  0.41781074  0.42691421  1  0.617069  0  0.318689  0.404557  0  0.876809  0
H  H38  1  0.72745497  0.42691248  0.41781701  1  0.616936  0  0.318685  0.404573  0  0.876688  0
H  H39  1  0.77255121  0.58218171  0.57309990  1  0.616827  0  0.318612  0.404476  0  0.876773  0
H  H40  1  0.02391192  0.85042285  0.11456459  1  0.046363  0  0.09429  0.093787  0  1.019151  0
H  H41  1  0.47609011  0.88544175  0.14957682  1  0.046477  0  0.094355  0.093893  0  1.01913  0
H  H42  1  0.97609259  0.14956862  0.88543079  1  0.046592  0  0.094329  0.093898  0  1.019115  0
H  H43  1  0.52390980  0.11456329  0.85042873  1  0.046503  0  0.094359  0.093901  0  1.019137  0
H  H44  1  0.25449160  0.94727348  0.51730046  1  0.086817  0  0.101226  0.110332  0  1.023269  0
H  H45  1  0.24551584  0.48270134  0.05271759  1  0.08658  0  0.101217  0.110321  0  1.02323  0
H  H46  1  0.74551771  0.05272961  0.48270948  1  0.086674  0  0.101291  0.11038  0  1.023217  0
H  H47  1  0.75447775  0.51730029  0.94726996  1  0.086903  0  0.101268  0.110375  0  1.023228  0
H  H48  1  0.05677422  0.04442790  0.24472867  1  0.082369  0  0.107668  0.116511  0  1.038386  0
H  H49  1  0.44322192  0.75526636  0.95557111  1  0.08247  0  0.107649  0.11644  0  1.03849  0
H  H50  1  0.94323719  0.95556731  0.75526399  1  0.082404  0  0.10765  0.116581  0  1.038449  0
H  H51  1  0.55676816  0.24474818  0.04442814  1  0.082658  0  0.107569  0.116417  0  1.038533  0
H  H52  1  0.89871566  0.79120109  0.41717487  1  0.059634  0  0.10607  0.117909  0  1.005311  0
H  H53  1  0.60128633  0.58282708  0.20880967  1  0.059372  0  0.106086  0.117928  0  1.005384  0
H  H54  1  0.10129699  0.20881488  0.58283199  1  0.059656  0  0.106118  0.117976  0  1.005501  0
H  H55  1  0.39869718  0.41717398  0.79118284  1  0.059596  0  0.106105  0.11804  0  1.005393  0
H  H56  1  0.77641388  0.86962898  0.28163995  1  0.430533  0  0.313294  0.259541  0  0.943775  0
H  H57  1  0.72360022  0.71835870  0.13036906  1  0.430247  0  0.313267  0.259622  0  0.943673  0
H  H58  1  0.22362228  0.13036637  0.71836415  1  0.430493  0  0.313339  0.259599  0  0.943589  0
H  H59  1  0.27639062  0.28163945  0.86962489  1  0.430512  0  0.313296  0.259608  0  0.943659  0
C  C60  1  0.09026063  0.79014657  0.56323619  1  1.512621  0  0.209888  0.584126  0  4.176189  0
C  C61  1  0.40975823  0.43676491  0.20986143  1  1.512908  0  0.20986  0.584089  0  4.176056  0
C  C62  1  0.90974253  0.20985280  0.43676342  1  1.512862  0  0.209721  0.583843  0  4.176229  0
C  C63  1  0.59024493  0.56323266  0.79013368  1  1.51286  0  0.20981  0.58404  0  4.176268  0
C  C64  1  0.82589199  0.99133119  0.18487723  1  0.29093  0  -0.058676  -0.061328  0  3.957828  0
C  C65  1  0.67411222  0.81512713  0.00866732  1  0.291436  0  -0.058715  -0.061373  0  3.957794  0
C  C66  1  0.17411256  0.00866131  0.81512269  1  0.290995  0  -0.058727  -0.061389  0  3.957905  0
C  C67  1  0.32588746  0.18488074  0.99133426  1  0.291031  0  -0.058819  -0.061477  0  3.957891  0
C  C68  1  0.90539308  0.07853816  0.02465102  1  -0.036527  0  -0.095218  -0.121812  0  3.97801  0
C  C69  1  0.59459984  0.97534475  0.92145938  1  -0.036599  0  -0.095273  -0.121856  0  3.978052  0
C  C70  1  0.09461339  0.92145485  0.97534422  1  -0.03647  0  -0.095306  -0.121878  0  3.977943  0
C  C71  1  0.40539798  0.02466189  0.07854768  1  -0.036007  0  -0.0953  -0.121826  0  3.978105  0
C  C72  1  0.01313467  0.91610756  0.06417653  1  -0.044495  0  -0.099483  -0.138942  0  4.017973  0
C  C73  1  0.48687151  0.93582725  0.08388709  1  -0.045062  0  -0.09954  -0.139022  0  4.01843  0
C  C74  1  0.98687183  0.08388464  0.93581798  1  -0.044649  0  -0.099553  -0.139058  0  4.018392  0
C  C75  1  0.51312419  0.06418001  0.91611772  1  -0.044729  0  -0.099572  -0.138968  0  4.018507  0
C  C76  1  0.08001589  0.85941201  0.47408179  1  -0.017348  0  -0.028394  -0.03974  0  4.052756  0
C  C77  1  0.42000251  0.52591047  0.14058561  1  -0.017202  0  -0.028421  -0.039813  0  4.05259  0
C  C78  1  0.91999957  0.14058494  0.52591371  1  -0.017632  0  -0.028389  -0.039495  0  4.052505  0
C  C79  1  0.57998486  0.47409799  0.85941481  1  -0.017593  0  -0.028414  -0.039612  0  4.052516  0
C  C80  1  0.91749117  0.99441779  0.08966091  1  -0.073823  0  -0.019488  0.071271  0  3.979747  0
C  C81  1  0.58250744  0.91033755  0.00558290  1  -0.073733  0  -0.019513  0.071239  0  3.980131  0
C  C82  1  0.08252025  0.00557926  0.91033701  1  -0.074082  0  -0.019354  0.071345  0  3.980151  0
C  C83  1  0.41748741  0.08966669  0.99442286  1  -0.073767  0  -0.019355  0.07125  0  3.980396  0
C  C84  1  0.17538846  0.93656606  0.46196458  1  -0.022961  0  -0.095517  -0.142773  0  3.973484  0
C  C85  1  0.32462320  0.53803430  0.06342798  1  -0.022447  0  -0.095526  -0.14272  0  3.973503  0
C  C86  1  0.82462289  0.06343615  0.53804303  1  -0.023056  0  -0.095667  -0.142972  0  3.973832  0
C  C87  1  0.67537570  0.46196446  0.93656184  1  -0.022953  0  -0.095579  -0.142869  0  3.973694  0
C  C88  1  0.06153629  0.99262054  0.30923829  1  0.007144  0  -0.090639  -0.193681  0  3.898373  0
C  C89  1  0.43846039  0.69076575  0.00739005  1  0.006913  0  -0.090553  -0.19343  0  3.898233  0
C  C90  1  0.93848470  0.00738974  0.69076170  1  0.007159  0  -0.090638  -0.193741  0  3.898559  0
C  C91  1  0.56152999  0.30923985  0.99260046  1  0.006548  0  -0.090492  -0.193452  0  3.898131  0
C  C92  1  0.26051515  0.08996396  0.37004276  1  1.518469  0  0.199384  0.578049  0  4.18462  0
C  C93  1  0.23949117  0.62995370  0.91002351  1  1.518361  0  0.199444  0.578257  0  4.184379  0
C  C94  1  0.73950184  0.91002926  0.62996743  1  1.517961  0  0.199515  0.578324  0  4.184374  0
C  C95  1  0.76050780  0.37004348  0.08996563  1  1.518238  0  0.19948  0.578221  0  4.184494  0
C  C96  1  0.16511122  0.00320691  0.37951685  1  0.001047  0  -0.022962  -0.019013  0  4.019142  0
C  C97  1  0.33489496  0.62047517  0.99678375  1  0.001009  0  -0.02296  -0.019104  0  4.0192  0
C  C98  1  0.83488350  0.99680501  0.62050230  1  0.001133  0  -0.022846  -0.019034  0  4.019278  0
C  C99  1  0.66511411  0.37952083  0.00319669  1  0.000983  0  -0.022926  -0.019014  0  4.018982  0
C  C100  1  0.97450612  0.84980200  0.40524091  1  -0.009837  0  -0.088309  -0.188785  0  3.911545  0
C  C101  1  0.52549119  0.59476786  0.15021703  1  -0.010103  0  -0.088319  -0.188765  0  3.911465  0
C  C102  1  0.02552227  0.15020111  0.59475308  1  -0.010036  0  -0.088341  -0.188955  0  3.911387  0
C  C103  1  0.47448467  0.40524680  0.84978651  1  -0.009998  0  -0.088345  -0.189044  0  3.911558  0
C  C104  1  0.96325479  0.91689462  0.32207935  1  0.394162  0  0.097701  0.237312  0  4.089021  0
C  C105  1  0.53674019  0.67792256  0.08311480  1  0.39393  0  0.097644  0.237199  0  4.08884  0
C  C106  1  0.03677356  0.08311015  0.67791685  1  0.393954  0  0.097609  0.23725  0  4.089197  0
C  C107  1  0.46324187  0.32208878  0.91688335  1  0.394112  0  0.097654  0.237305  0  4.088918  0
N  N108  1  0.85767562  0.90870858  0.25484487  1  -1.20122  0  -0.444515  -0.346782  0  3.558363  0
N  N109  1  0.64232438  0.74516092  0.09130067  1  -1.200424  0  -0.444515  -0.347011  0  3.558085  0
N  N110  1  0.14234397  0.09128943  0.74515504  1  -1.200731  0  -0.444566  -0.346873  0  3.558618  0
N  N111  1  0.35766103  0.25484689  0.90870214  1  -1.200664  0  -0.444522  -0.346978  0  3.558202  0
O  O112  1  0.19579869  0.79338814  0.61913068  1  -1.197673  0  -0.326666  -0.608455  0  2.289839  0
O  O113  1  0.30421261  0.38087802  0.20661200  1  -1.19771  0  -0.326692  -0.608439  0  2.289614  0
O  O114  1  0.80418626  0.20661526  0.38088847  1  -1.197851  0  -0.326517  -0.608296  0  2.289577  0
O  O115  1  0.69578737  0.61912182  0.79338310  1  -1.197634  0  -0.326655  -0.608392  0  2.289697  0
O  O116  1  0.91583403  0.75046504  0.82701755  1  -1.240747  0  -0.583699  -0.749857  0  2.047544  0
O  O117  1  0.58417027  0.17299491  0.24953346  1  -1.24114  0  -0.583667  -0.749981  0  2.047465  0
O  O118  1  0.08416964  0.24952790  0.17299004  1  -1.241182  0  -0.58369  -0.750023  0  2.047457  0
O  O119  1  0.41583159  0.82700983  0.75046668  1  -1.241189  0  -0.583631  -0.749938  0  2.047567  0
O  O120  1  0.92829311  0.52458128  0.72914135  1  -1.237789  0  -0.582022  -0.757296  0  2.005684  0
O  O121  1  0.57170092  0.27087073  0.47542513  1  -1.237895  0  -0.582126  -0.757461  0  2.005511  0
O  O122  1  0.07170614  0.47541774  0.27086607  1  -1.237802  0  -0.582087  -0.757316  0  2.005592  0
O  O123  1  0.42829980  0.72914079  0.52458618  1  -1.237704  0  -0.582049  -0.757206  0  2.005622  0
O  O124  1  0.99620832  0.72720014  0.58458331  1  -1.176987  0  -0.315171  -0.562292  0  2.272661  0
O  O125  1  0.50379878  0.41541732  0.27281142  1  -1.177195  0  -0.315043  -0.562141  0  2.272639  0
O  O126  1  0.00379693  0.27280121  0.41542379  1  -1.17704  0  -0.315081  -0.562154  0  2.272597  0
O  O127  1  0.49619537  0.58457628  0.72718266  1  -1.177368  0  -0.315065  -0.562224  0  2.272705  0
O  O128  1  0.34400638  0.10751089  0.43950815  1  -1.163888  0  -0.338514  -0.563944  0  2.097033  0
O  O129  1  0.15600041  0.56048728  0.89248421  1  -1.164008  0  -0.338516  -0.564021  0  2.097035  0
O  O130  1  0.65601413  0.89249130  0.56049764  1  -1.163679  0  -0.338574  -0.564003  0  2.096785  0
O  O131  1  0.84399860  0.43950914  0.10750496  1  -1.164003  0  -0.338605  -0.564029  0  2.097011  0
O  O132  1  0.25245840  0.54974947  0.65139204  1  -1.246679  0  -0.581606  -0.752153  0  2.000758  0
O  O133  1  0.24753059  0.34859032  0.45023811  1  -1.246512  0  -0.581774  -0.752393  0  2.000684  0
O  O134  1  0.74754120  0.45023630  0.34859843  1  -1.246458  0  -0.581702  -0.752387  0  2.000558  0
O  O135  1  0.75246300  0.65139491  0.54975719  1  -1.246539  0  -0.581629  -0.752248  0  2.000612  0
O  O136  1  0.25292726  0.14725791  0.28986859  1  -1.167992  0  -0.330576  -0.590321  0  2.307095  0
O  O137  1  0.24708709  0.71012110  0.85272097  1  -1.167922  0  -0.330618  -0.590437  0  2.306902  0
O  O138  1  0.74709383  0.85273454  0.71014074  1  -1.167542  0  -0.33068  -0.590506  0  2.30704  0
O  O139  1  0.75291102  0.28986942  0.14725935  1  -1.16745  0  -0.330543  -0.590388  0  2.306978  0
