# generated using pymatgen
data_ZnH16C18(N2O)4
_symmetry_space_group_name_H-M   'P 1'
_cell_length_a   11.07817135
_cell_length_b   16.03925856
_cell_length_c   17.37678079
_cell_angle_alpha   95.15085147
_cell_angle_beta   90.05731020
_cell_angle_gamma   92.39441898
_symmetry_Int_Tables_number   1
_chemical_formula_structural   ZnH16C18(N2O)4
_chemical_formula_sum   'Zn2 H32 C36 N16 O8'
_cell_volume   3072.41632689
_cell_formula_units_Z   2
loop_
 _symmetry_equiv_pos_site_id
 _symmetry_equiv_pos_as_xyz
  1  'x, y, z'
loop_
 _atom_site_type_symbol
 _atom_site_label
 _atom_site_symmetry_multiplicity
 _atom_site_fract_x
 _atom_site_fract_y
 _atom_site_fract_z
 _atom_site_occupancy
 _atom_site_pbe_bader_charge
 _atom_site_pbe_bader_spin_density
 _atom_site_pbe_cm5_charge
 _atom_site_pbe_ddec_charge
 _atom_site_pbe_ddec_spin_density
 _atom_site_pbe_ddec_sum_bond_order
 _atom_site_pbe_magmom
Zn  Zn0  1  0.50152521  0.40816171  0.49969422  1  1.286153  0  0.670685  0.834941  0  2.369091  0
Zn  Zn1  1  0.51027893  0.58940241  0.50305100  1  1.287488  0  0.675477  0.827393  0  2.397739  0
H  H2  1  0.39000916  0.71332293  0.42619258  1  0.118103  0  0.122306  0.102442  0  0.991985  0
H  H3  1  0.37789546  0.87027352  0.43038431  1  0.110913  0  0.111016  0.125737  0  1.014252  0
H  H4  1  0.32778372  0.11027981  0.40643045  1  0.086672  0  0.108483  0.133032  0  1.005094  0
H  H5  1  0.61178123  0.11689873  0.57658375  1  0.081988  0  0.098426  0.117627  0  1.046567  0
H  H6  1  0.50882698  0.61572509  0.26470513  1  0.089544  0  0.100068  0.109633  0  1.006118  0
H  H7  1  0.51220037  0.61524394  0.12001776  1  0.078697  0  0.099464  0.105518  0  1.027074  0
H  H8  1  0.53068582  0.65860735  0.90206967  1  0.084566  0  0.100038  0.114912  0  1.0138  0
H  H9  1  0.48599123  0.39106429  0.89508764  1  0.06354  0  0.092757  0.103022  0  1.050079  0
H  H10  1  0.77908861  0.59345951  0.39195960  1  0.080741  0  0.097293  0.110245  0  1.022099  0
H  H11  1  0.88906918  0.67912439  0.30229479  1  0.044906  0  0.095283  0.092054  0  1.003165  0
H  H12  1  0.22808659  0.60553723  0.39003054  1  0.058714  0  0.09485  0.102944  0  1.040637  0
H  H13  1  0.11539259  0.68447449  0.30089631  1  0.043634  0  0.093683  0.089667  0  1.002837  0
H  H14  1  0.70343945  0.66395318  0.58010143  1  0.491891  0  0.305718  0.32832  0  0.971035  0
H  H15  1  0.71005073  0.74896737  0.64901521  1  0.446011  0  0.313164  0.305911  0  0.941578  0
H  H16  1  0.68728685  0.96138491  0.60539043  1  0.484224  0  0.306732  0.294847  0  0.966547  0
H  H17  1  0.76674436  0.87345471  0.61668335  1  0.456054  0  0.311987  0.300998  0  0.943189  0
H  H18  1  0.30632869  0.33904803  0.42887148  1  0.49877  0  0.306717  0.325419  0  0.973992  0
H  H19  1  0.25743909  0.24474809  0.37808194  1  0.459163  0  0.326156  0.324166  0  0.910831  0
H  H20  1  0.60152450  0.34188367  0.61671526  1  0.496499  0  0.300246  0.305155  0  1.005702  0
H  H21  1  0.66743104  0.25144671  0.63697367  1  0.442393  0  0.315194  0.311439  0  0.918017  0
H  H22  1  0.50004017  0.33083003  0.30699720  1  0.468402  0  0.290413  0.303447  0  1.000809  0
H  H23  1  0.53905067  0.28165079  0.21857481  1  0.430214  0  0.298436  0.286357  0  0.961376  0
H  H24  1  0.48633655  0.33414332  0.03512463  1  0.46452  0  0.295575  0.281624  0  0.98898  0
H  H25  1  0.44176655  0.28194250  0.11255847  1  0.427487  0  0.299664  0.286957  0  0.958037  0
H  H26  1  0.50741198  0.66363597  0.69523990  1  0.501918  0  0.292195  0.303681  0  1.009791  0
H  H27  1  0.51167902  0.72067161  0.78573284  1  0.424427  0  0.30433  0.297966  0  0.944688  0
H  H28  1  0.45417062  0.35796565  0.68972203  1  0.451684  0  0.293914  0.30028  0  1.000814  0
H  H29  1  0.44220507  0.31685901  0.77813925  1  0.422955  0  0.303029  0.297871  0  0.944182  0
H  H30  1  0.21349734  0.39126985  0.57866935  1  0.487114  0  0.292884  0.301354  0  0.981973  0
H  H31  1  0.07446270  0.35007344  0.60223224  1  0.441079  0  0.292704  0.278507  0  0.98725  0
H  H32  1  0.79503228  0.38149247  0.57976923  1  0.44691  0  0.283961  0.286264  0  1.022524  0
H  H33  1  0.90874252  0.40045689  0.64585494  1  0.405319  0  0.299244  0.288569  0  0.948687  0
C  C34  1  0.50548923  0.48743569  0.34990210  1  1.500518  0  0.21435  0.602455  0  4.146087  0
C  C35  1  0.26814922  0.50794521  0.49809868  1  1.538843  0  0.223162  0.628983  0  4.111838  0
C  C36  1  0.50281170  0.50892130  0.65697093  1  1.452291  0  0.209015  0.612656  0  4.128073  0
C  C37  1  0.74304978  0.49652414  0.50151210  1  1.547784  0  0.222991  0.621032  0  4.134729  0
C  C38  1  0.44967364  0.75572269  0.46267586  1  0.458822  0  0.028301  0.08247  0  3.995861  0
C  C39  1  0.44256289  0.84110419  0.46541063  1  -0.030648  0  -0.102183  -0.224526  0  4.032577  0
C  C40  1  0.52266539  0.89182704  0.51485098  1  0.443909  0  0.085229  0.094418  0  4.063874  0
C  C41  1  0.60584273  0.85370713  0.56045089  1  0.501207  0  0.115044  0.125101  0  4.012975  0
C  C42  1  0.60738132  0.76397047  0.55366906  1  1.023961  0  0.231473  0.357282  0  4.043434  0
C  C43  1  0.39269251  0.14564197  0.44500471  1  0.044139  0  -0.113981  -0.354102  0  3.921592  0
C  C44  1  0.47134452  0.10369673  0.48911741  1  0.332002  0  0.086702  0.238911  0  4.136501  0
C  C45  1  0.55212884  0.14898271  0.54049420  1  -0.001006  0  -0.136872  -0.389131  0  3.982904  0
C  C46  1  0.55134039  0.23640001  0.54638724  1  0.91754  0  0.219967  0.476179  0  4.089704  0
C  C47  1  0.39619961  0.23399067  0.45362446  1  0.962976  0  0.227167  0.47627  0  4.099508  0
C  C48  1  0.50177233  0.48157803  0.26412454  1  0.045919  0  -0.032484  -0.148462  0  3.955625  0
C  C49  1  0.50608208  0.55728393  0.22749782  1  -0.015124  0  -0.100645  -0.098192  0  4.05919  0
C  C50  1  0.50833128  0.55741551  0.14839439  1  0.013427  0  -0.108869  -0.175692  0  4.052467  0
C  C51  1  0.50399649  0.48024012  0.10189991  1  0.435912  0  0.077339  0.081156  0  4.056703  0
C  C52  1  0.49825055  0.40375998  0.13659941  1  0.439135  0  0.100661  0.146007  0  4.000376  0
C  C53  1  0.49823405  0.40389682  0.21872176  1  0.339035  0  0.097464  0.200248  0  4.027579  0
C  C54  1  0.52008062  0.59833454  0.86782609  1  -0.035546  0  -0.118264  -0.310652  0  3.954266  0
C  C55  1  0.50886261  0.52562602  0.90612992  1  0.388333  0  0.08004  0.217916  0  4.137174  0
C  C56  1  0.49501682  0.44720127  0.86430085  1  0.024103  0  -0.136739  -0.339974  0  3.997477  0
C  C57  1  0.49272224  0.44057630  0.78362247  1  0.377848  0  0.099161  0.329065  0  4.085874  0
C  C58  1  0.50545772  0.51436562  0.74221641  1  0.032811  0  -0.048032  -0.288864  0  3.845006  0
C  C59  1  0.51799574  0.59420190  0.78674799  1  0.37439  0  0.102645  0.328821  0  4.074032  0
C  C60  1  0.87753284  0.49787497  0.49597225  1  0.039623  0  -0.028407  -0.189495  0  3.952859  0
C  C61  1  0.93993777  0.55045819  0.44503429  1  0.024844  0  -0.014196  0.054076  0  3.996421  0
C  C62  1  0.94063540  0.44810175  0.54225121  1  0.456578  0  0.086379  0.179273  0  4.047253  0
C  C63  1  0.87746125  0.59653860  0.39262040  1  -0.017948  0  -0.102985  -0.137137  0  3.992475  0
C  C64  1  0.93913597  0.64465984  0.34225830  1  -0.088654  0  -0.108991  -0.10335  0  4.088394  0
C  C65  1  0.13357360  0.50505005  0.49558011  1  0.041263  0  -0.038091  -0.21628  0  3.947753  0
C  C66  1  0.07047037  0.45140016  0.54199262  1  0.301421  0  0.094482  0.198302  0  4.067245  0
C  C67  1  0.06970087  0.55428573  0.44513648  1  -0.075023  0  -0.010738  0.065826  0  3.99622  0
C  C68  1  0.12988798  0.60350152  0.39167811  1  -0.028936  0  -0.105917  -0.147232  0  4.00684  0
C  C69  1  0.06644001  0.64779249  0.34165563  1  -0.023221  0  -0.107822  -0.099031  0  4.091853  0
N  N70  1  0.52973433  0.71769261  0.50647947  1  -1.256092  0  -0.336111  -0.308032  0  3.484932  0
N  N71  1  0.53206681  0.97918661  0.52122437  1  -0.585647  0  -0.150442  -0.120227  0  3.336518  0
N  N72  1  0.45846702  0.01502241  0.48018396  1  -0.463174  0  -0.149982  -0.13582  0  3.215085  0
N  N73  1  0.47678387  0.27887625  0.50221937  1  -1.238027  0  -0.348052  -0.436244  0  3.317017  0
N  N74  1  0.50128462  0.47119290  0.02140385  1  -0.595298  0  -0.157735  -0.125475  0  3.361297  0
N  N75  1  0.51297777  0.53833480  0.98776923  1  -0.496859  0  -0.160806  -0.149718  0  3.242523  0
N  N76  1  0.69387238  0.72689104  0.59324921  1  -1.230166  0  -0.580841  -0.623618  0  3.30612  0
N  N77  1  0.68495085  0.89867764  0.61067561  1  -1.263298  0  -0.584505  -0.579707  0  3.346897  0
N  N78  1  0.31888032  0.27700203  0.41336742  1  -1.283645  0  -0.572553  -0.618259  0  3.318791  0
N  N79  1  0.62736637  0.28325899  0.59689382  1  -1.242488  0  -0.586748  -0.628554  0  3.320363  0
N  N80  1  0.49093232  0.32655982  0.24821104  1  -1.204898  0  -0.60478  -0.61603  0  3.333845  0
N  N81  1  0.49698705  0.32737206  0.09245347  1  -1.238013  0  -0.599337  -0.600804  0  3.341088  0
N  N82  1  0.53147684  0.66807439  0.75225123  1  -1.246542  0  -0.602598  -0.628494  0  3.330929  0
N  N83  1  0.47942507  0.36092883  0.74611938  1  -1.211953  0  -0.609557  -0.635696  0  3.342008  0
N  N84  1  0.12564241  0.40194993  0.59181758  1  -1.248023  0  -0.610279  -0.607999  0  3.318157  0
N  N85  1  0.88560380  0.39089673  0.58892245  1  -1.194322  0  -0.613712  -0.629331  0  3.340374  0
O  O86  1  0.49782197  0.41897086  0.38328190  1  -1.172932  0  -0.316619  -0.552735  0  2.375738  0
O  O87  1  0.51675334  0.56014557  0.38608484  1  -1.172312  0  -0.318256  -0.549808  0  2.339563  0
O  O88  1  0.32556042  0.57796445  0.49849186  1  -1.155851  0  -0.302789  -0.523129  0  2.338821  0
O  O89  1  0.31951302  0.43740210  0.50082524  1  -1.194982  0  -0.31926  -0.58647  0  2.376228  0
O  O90  1  0.49879733  0.57579249  0.62210446  1  -1.171465  0  -0.311297  -0.544993  0  2.355869  0
O  O91  1  0.50464251  0.43573098  0.61894104  1  -1.192909  0  -0.32385  -0.579728  0  2.399894  0
O  O92  1  0.68672502  0.42525109  0.49671725  1  -1.164282  0  -0.310593  -0.534786  0  2.325001  0
O  O93  1  0.69232247  0.56663006  0.51261625  1  -1.182046  0  -0.307747  -0.55697  0  2.387625  0
