# generated using pymatgen
data_Cd2H12C9O11
_symmetry_space_group_name_H-M   'P 1'
_cell_length_a   8.28656287
_cell_length_b   10.40792025
_cell_length_c   15.45943543
_cell_angle_alpha   89.99999263
_cell_angle_beta   104.60346517
_cell_angle_gamma   90.00008680
_symmetry_Int_Tables_number   1
_chemical_formula_structural   Cd2H12C9O11
_chemical_formula_sum   'Cd8 H48 C36 O44'
_cell_volume   1290.23859681
_cell_formula_units_Z   4
loop_
 _symmetry_equiv_pos_site_id
 _symmetry_equiv_pos_as_xyz
  1  'x, y, z'
loop_
 _atom_site_type_symbol
 _atom_site_label
 _atom_site_symmetry_multiplicity
 _atom_site_fract_x
 _atom_site_fract_y
 _atom_site_fract_z
 _atom_site_occupancy
 _atom_site_pbe_bader_spin_density
 _atom_site_pbe_cm5_charge
 _atom_site_pbe_ddec_charge
 _atom_site_pbe_ddec_spin_density
 _atom_site_pbe_ddec_sum_bond_order
 _atom_site_pbe_magmom
Cd  Cd0  1  0.27369225  0.68453749  0.13228567  1  0  0.765843  0.973642  0  1.99623  0
Cd  Cd1  1  0.72630806  0.18453871  0.36771489  1  0  0.765853  0.97364  0  1.99626  0
Cd  Cd2  1  0.72630536  0.31546107  0.86771420  1  0  0.765832  0.973637  0  1.996292  0
Cd  Cd3  1  0.27369204  0.81546273  0.63228531  1  0  0.765846  0.973641  0  1.996267  0
Cd  Cd4  1  0.10858231  0.44245054  0.73693139  1  0  0.788343  1.123478  0  2.023578  0
Cd  Cd5  1  0.89141659  0.94245100  0.76306766  1  0  0.788316  1.123443  0  2.023587  0
Cd  Cd6  1  0.89141779  0.55754994  0.26306816  1  0  0.788336  1.123476  0  2.023558  0
Cd  Cd7  1  0.10858351  0.05754948  0.23693189  1  0  0.78834  1.123493  0  2.023543  0
H  H8  1  0.96003272  0.28439644  0.57272028  1  0  0.295075  0.396301  0  0.933328  0
H  H9  1  0.03996835  0.78439776  0.92727908  1  0  0.295106  0.396334  0  0.933282  0
H  H10  1  0.03996987  0.71560212  0.42727832  1  0  0.295102  0.396316  0  0.933308  0
H  H11  1  0.96003549  0.21560464  0.07272033  1  0  0.295124  0.396376  0  0.93323  0
H  H12  1  0.87428890  0.23527225  0.64487643  1  0  0.29014  0.391621  0  0.941703  0
H  H13  1  0.12570959  0.73527177  0.85512194  1  0  0.290138  0.391603  0  0.941724  0
H  H14  1  0.12570995  0.76472919  0.35512166  1  0  0.29014  0.391617  0  0.941705  0
H  H15  1  0.87429176  0.26472871  0.14487714  1  0  0.290162  0.391668  0  0.941626  0
H  H16  1  0.32692328  0.64612344  0.82617523  1  0  0.29534  0.390487  0  0.948231  0
H  H17  1  0.67307504  0.14612367  0.67382571  1  0  0.295339  0.390471  0  0.948256  0
H  H18  1  0.67307932  0.35387608  0.17382531  1  0  0.295352  0.39049  0  0.948223  0
H  H19  1  0.32692382  0.85387777  0.32617497  1  0  0.295338  0.390468  0  0.948257  0
H  H20  1  0.28249477  0.56203936  0.90714813  1  0  0.29652  0.403128  0  0.92844  0
H  H21  1  0.71750212  0.06204063  0.59285198  1  0  0.296496  0.40312  0  0.928453  0
H  H22  1  0.71750284  0.43796016  0.09285368  1  0  0.296514  0.403128  0  0.92844  0
H  H23  1  0.28249673  0.93795985  0.40714740  1  0  0.296514  0.403113  0  0.928458  0
H  H24  1  0.82480003  0.57828983  0.78069425  1  0  0.295647  0.399753  0  0.932029  0
H  H25  1  0.17520064  0.07829041  0.71930637  1  0  0.295655  0.399777  0  0.931989  0
H  H26  1  0.17520007  0.42170970  0.21930595  1  0  0.295657  0.399754  0  0.932028  0
H  H27  1  0.82480071  0.92171007  0.28069465  1  0  0.295643  0.399761  0  0.932025  0
H  H28  1  0.91136925  0.66563875  0.71934761  1  0  0.294896  0.376355  0  0.964045  0
H  H29  1  0.08863035  0.16563826  0.78065286  1  0  0.294892  0.376336  0  0.96407  0
H  H30  1  0.08862961  0.33436174  0.28065308  1  0  0.294893  0.37632  0  0.964087  0
H  H31  1  0.91136975  0.83436222  0.21934734  1  0  0.294899  0.376338  0  0.964063  0
H  H32  1  0.48846414  0.30258332  0.04669108  1  0  0.118625  0.11781  0  0.970537  0
H  H33  1  0.51153515  0.80258424  0.45330740  1  0  0.118607  0.117786  0  0.970525  0
H  H34  1  0.51153721  0.69741717  0.95330671  1  0  0.118589  0.117761  0  0.970562  0
H  H35  1  0.48846495  0.19741624  0.54669345  1  0  0.118595  0.117773  0  0.970522  0
H  H36  1  0.32880705  0.27846977  0.90363366  1  0  0.104434  0.107263  0  1.014179  0
H  H37  1  0.67119153  0.77847095  0.59636536  1  0  0.104421  0.107249  0  1.014181  0
H  H38  1  0.67119181  0.72152783  0.09636508  1  0  0.104418  0.107275  0  1.014179  0
H  H39  1  0.32880857  0.22152953  0.40363549  1  0  0.10444  0.107284  0  1.014159  0
H  H40  1  0.31071635  0.05455855  0.91550507  1  0  0.097706  0.110422  0  1.020302  0
H  H41  1  0.68927928  0.55455976  0.58449423  1  0  0.097687  0.110398  0  1.020289  0
H  H42  1  0.68927876  0.94543905  0.08449511  1  0  0.097678  0.110392  0  1.020301  0
H  H43  1  0.31072082  0.44544072  0.41550598  1  0  0.097682  0.110398  0  1.020286  0
H  H44  1  0.13045304  0.06884948  0.95567603  1  0  0.093637  0.099148  0  0.997253  0
H  H45  1  0.86954512  0.56885091  0.54432490  1  0  0.093635  0.099114  0  0.997338  0
H  H46  1  0.86954582  0.93114908  0.04432530  1  0  0.093623  0.099122  0  0.997347  0
H  H47  1  0.13045622  0.43115053  0.45567547  1  0  0.093645  0.09914  0  0.997318  0
H  H48  1  0.49220576  0.07258924  0.06306958  1  0  0.110504  0.105068  0  0.987191  0
H  H49  1  0.50779433  0.57259112  0.43692837  1  0  0.1105  0.105002  0  0.987248  0
H  H50  1  0.50779310  0.92740932  0.93692981  1  0  0.110521  0.10507  0  0.98725  0
H  H51  1  0.49220827  0.42740840  0.56307152  1  0  0.110498  0.105028  0  0.987265  0
H  H52  1  0.19860849  0.20118824  0.11504077  1  0  0.099847  0.069551  0  1.074501  0
H  H53  1  0.80139310  0.70119048  0.38495932  1  0  0.099871  0.069555  0  1.07448  0
H  H54  1  0.80139286  0.79881224  0.88495960  1  0  0.099846  0.069549  0  1.074485  0
H  H55  1  0.19860701  0.29881192  0.61504089  1  0  0.099845  0.069544  0  1.074525  0
C  C56  1  0.35583586  0.30231325  0.04757036  1  0  -0.080666  -0.13499  0  3.826174  0
C  C57  1  0.64416344  0.80231433  0.45243006  1  0  -0.08064  -0.134854  0  3.826074  0
C  C58  1  0.64416424  0.69768723  0.95242920  1  0  -0.080614  -0.134863  0  3.826077  0
C  C59  1  0.35583542  0.19768711  0.54757127  1  0  -0.080591  -0.134832  0  3.8261  0
C  C60  1  0.26196514  0.25242802  0.95372720  1  0  -0.086429  -0.135423  0  3.79074  0
C  C61  1  0.73803463  0.75242833  0.54627328  1  0  -0.086427  -0.135488  0  3.790691  0
C  C62  1  0.73803496  0.74757150  0.04627365  1  0  -0.086429  -0.1355  0  3.790682  0
C  C63  1  0.26196672  0.24757215  0.45372774  1  0  -0.086452  -0.135529  0  3.790688  0
C  C64  1  0.25909557  0.10319743  0.96497367  1  0  -0.15456  -0.163524  0  3.795634  0
C  C65  1  0.74090390  0.60319583  0.53502614  1  0  -0.154522  -0.163411  0  3.795608  0
C  C66  1  0.74090329  0.89680401  0.03502701  1  0  -0.154506  -0.163408  0  3.795647  0
C  C67  1  0.25909744  0.39680369  0.46497359  1  0  -0.154537  -0.163432  0  3.795622  0
C  C68  1  0.35910763  0.07634015  0.06174965  1  0  -0.085126  -0.126544  0  3.84443  0
C  C69  1  0.64089370  0.57634123  0.43824911  1  0  -0.085169  -0.126584  0  3.844544  0
C  C70  1  0.64089247  0.92365841  0.93824990  1  0  -0.085197  -0.126715  0  3.844699  0
C  C71  1  0.35911014  0.42365925  0.56175030  1  0  -0.085156  -0.126632  0  3.844551  0
C  C72  1  0.32907403  0.19783318  0.11211328  1  0  -0.098255  -0.16387  0  3.901126  0
C  C73  1  0.67092755  0.69783431  0.38788680  1  0  -0.098301  -0.163941  0  3.901162  0
C  C74  1  0.67092732  0.80216538  0.88788773  1  0  -0.098271  -0.163877  0  3.901155  0
C  C75  1  0.32907255  0.30216618  0.61211340  1  0  -0.098294  -0.163913  0  3.901179  0
C  C76  1  0.43511979  0.19891126  0.20727249  1  0  0.212627  0.618008  0  4.124823  0
C  C77  1  0.56488179  0.69891324  0.29272630  1  0  0.212672  0.618058  0  4.124824  0
C  C78  1  0.56488031  0.80108730  0.79272707  1  0  0.212667  0.618068  0  4.124785  0
C  C79  1  0.43511707  0.30108724  0.70727438  1  0  0.212637  0.617997  0  4.124886  0
C  C80  1  0.31774330  0.43852680  0.07027558  1  0  0.209646  0.604563  0  4.134473  0
C  C81  1  0.68225502  0.93852793  0.42972469  1  0  0.209673  0.60461  0  4.134409  0
C  C82  1  0.68225555  0.56147273  0.92972511  1  0  0.209743  0.604743  0  4.134544  0
C  C83  1  0.31774384  0.06147159  0.57027534  1  0  0.209692  0.604651  0  4.134334  0
C  C84  1  0.08218759  0.29449972  0.92245514  1  0  0.214009  0.610208  0  4.101021  0
C  C85  1  0.91781226  0.79449928  0.57754470  1  0  0.214071  0.610316  0  4.100893  0
C  C86  1  0.91781251  0.70549980  0.07754442  1  0  0.21402  0.610292  0  4.100966  0
C  C87  1  0.08219033  0.20550120  0.42245519  1  0  0.214098  0.610367  0  4.100949  0
C  C88  1  0.30978150  0.94768615  0.09250529  1  0  0.212664  0.613475  0  4.120524  0
C  C89  1  0.69021808  0.44768828  0.40749386  1  0  0.2127  0.613586  0  4.120449  0
C  C90  1  0.69021735  0.05231241  0.90749474  1  0  0.212705  0.61361  0  4.120579  0
C  C91  1  0.30978327  0.55231220  0.59250587  1  0  0.212701  0.613598  0  4.120517  0
O  O92  1  0.29335972  0.46221450  0.14749832  1  0  -0.317375  -0.551995  0  2.24788  0
O  O93  1  0.70664238  0.96221568  0.35250246  1  0  -0.317384  -0.552041  0  2.247823  0
O  O94  1  0.70664162  0.53778310  0.85250205  1  0  -0.317395  -0.552087  0  2.247828  0
O  O95  1  0.29335897  0.03778384  0.64749856  1  0  -0.317412  -0.552085  0  2.247821  0
O  O96  1  0.32072965  0.52871005  0.01550507  1  0  -0.313451  -0.554199  0  2.232855  0
O  O97  1  0.67926536  0.02871215  0.48449414  1  0  -0.313442  -0.554212  0  2.232896  0
O  O98  1  0.67926297  0.47128851  0.98449348  1  0  -0.313517  -0.554328  0  2.2331  0
O  O99  1  0.32072975  0.97128929  0.51550474  1  0  -0.313455  -0.554235  0  2.232911  0
O  O100  1  0.99146405  0.30222611  0.97690579  1  0  -0.301485  -0.526962  0  2.238161  0
O  O101  1  0.00853457  0.80222363  0.52309388  1  0  -0.301555  -0.527017  0  2.238077  0
O  O102  1  0.00853481  0.69777437  0.02309359  1  0  -0.301491  -0.526983  0  2.238191  0
O  O103  1  0.99146677  0.19777589  0.47690519  1  0  -0.301561  -0.527024  0  2.23815  0
O  O104  1  0.01750803  0.31044812  0.83747987  1  0  -0.332017  -0.609006  0  2.300699  0
O  O105  1  0.98249061  0.81044774  0.66252046  1  0  -0.332007  -0.609045  0  2.300682  0
O  O106  1  0.98249082  0.68955140  0.16252017  1  0  -0.332036  -0.609075  0  2.300614  0
O  O107  1  0.01751074  0.18955274  0.33747991  1  0  -0.332005  -0.609052  0  2.300663  0
O  O108  1  0.38290716  0.84969832  0.07105747  1  0  -0.311729  -0.516909  0  2.221191  0
O  O109  1  0.61709222  0.34970036  0.42894231  1  0  -0.311759  -0.516972  0  2.221206  0
O  O110  1  0.61709169  0.15030024  0.92894321  1  0  -0.31175  -0.516978  0  2.221248  0
O  O111  1  0.38290788  0.65030108  0.57105790  1  0  -0.311763  -0.516982  0  2.221192  0
O  O112  1  0.19400203  0.93687027  0.13340407  1  0  -0.337979  -0.600285  0  2.299348  0
O  O113  1  0.80599753  0.43687063  0.36659572  1  0  -0.337965  -0.600287  0  2.299271  0
O  O114  1  0.80599807  0.06312925  0.86659678  1  0  -0.337966  -0.600288  0  2.299363  0
O  O115  1  0.19400381  0.56312985  0.63340401  1  0  -0.33796  -0.600275  0  2.299343  0
O  O116  1  0.37302008  0.15519931  0.26860550  1  0  -0.31951  -0.583111  0  2.267964  0
O  O117  1  0.62698141  0.65519946  0.23139393  1  0  -0.319529  -0.583122  0  2.267967  0
O  O118  1  0.62698127  0.84480309  0.73139487  1  0  -0.319515  -0.583121  0  2.267962  0
O  O119  1  0.37301620  0.34480199  0.76860594  1  0  -0.319509  -0.583113  0  2.268043  0
O  O120  1  0.58745382  0.23547389  0.22275788  1  0  -0.313258  -0.540615  0  2.266426  0
O  O121  1  0.41254783  0.73547665  0.27724027  1  0  -0.313285  -0.540665  0  2.266538  0
O  O122  1  0.41254752  0.76452371  0.77724055  1  0  -0.313278  -0.540643  0  2.266477  0
O  O123  1  0.58745102  0.26452383  0.72275976  1  0  -0.313256  -0.540593  0  2.266531  0
O  O124  1  0.93239289  0.31192353  0.62851653  1  0  -0.589916  -0.772076  0  2.049086  0
O  O125  1  0.06760824  0.81192393  0.87148219  1  0  -0.589948  -0.772091  0  2.049074  0
O  O126  1  0.06760845  0.68807599  0.37148125  1  0  -0.589953  -0.772086  0  2.049077  0
O  O127  1  0.93239435  0.18807847  0.12851641  1  0  -0.589991  -0.772196  0  2.049026  0
O  O128  1  0.23882651  0.59553403  0.84483328  1  0  -0.571434  -0.775744  0  2.117856  0
O  O129  1  0.76117294  0.09553725  0.65516588  1  0  -0.571411  -0.775713  0  2.117883  0
O  O130  1  0.76117484  0.40446549  0.15516709  1  0  -0.571453  -0.775754  0  2.117871  0
O  O131  1  0.23882715  0.90446611  0.34483239  1  0  -0.571429  -0.775707  0  2.117886  0
O  O132  1  0.88530058  0.57687172  0.73282678  1  0  -0.582301  -0.754992  0  2.100407  0
O  O133  1  0.11469884  0.07687222  0.76717366  1  0  -0.582297  -0.754988  0  2.10046  0
O  O134  1  0.11469952  0.42312781  0.26717342  1  0  -0.582304  -0.754968  0  2.100471  0
O  O135  1  0.88530251  0.92312826  0.23282671  1  0  -0.582294  -0.754989  0  2.100413  0
