# generated using pymatgen
data_CdH7C11(N3O2)2
_symmetry_space_group_name_H-M   'P 1'
_cell_length_a   9.65490320
_cell_length_b   10.32975040
_cell_length_c   14.08380000
_cell_angle_alpha   97.42841264
_cell_angle_beta   90.00000000
_cell_angle_gamma   90.00000000
_symmetry_Int_Tables_number   1
_chemical_formula_structural   CdH7C11(N3O2)2
_chemical_formula_sum   'Cd4 H28 C44 N24 O16'
_cell_volume   1392.82726538
_cell_formula_units_Z   4
loop_
 _symmetry_equiv_pos_site_id
 _symmetry_equiv_pos_as_xyz
  1  'x, y, z'
loop_
 _atom_site_type_symbol
 _atom_site_label
 _atom_site_symmetry_multiplicity
 _atom_site_fract_x
 _atom_site_fract_y
 _atom_site_fract_z
 _atom_site_occupancy
 _atom_site_pbe_bader_charge
 _atom_site_pbe_bader_spin_density
 _atom_site_pbe_cm5_charge
 _atom_site_pbe_ddec_charge
 _atom_site_pbe_ddec_spin_density
 _atom_site_pbe_ddec_sum_bond_order
 _atom_site_pbe_magmom
Cd  Cd0  1  0.39506662  0.71554339  0.30928460  1  1.263472  0  0.804991  0.83023  0  2.257343  0
Cd  Cd1  1  0.89507474  0.28444445  0.19072532  1  1.263459  0  0.805041  0.830283  0  2.25752  0
Cd  Cd2  1  0.60490715  0.28445812  0.69073017  1  1.263348  0  0.805106  0.830237  0  2.257974  0
Cd  Cd3  1  0.10489489  0.71554730  0.80925515  1  1.263352  0  0.805114  0.830395  0  2.257746  0
H  H4  1  0.59532031  0.47835243  0.15348645  1  0.1812  0  0.132676  0.106958  0  1.001591  0
H  H5  1  0.09532877  0.52162565  0.34651473  1  0.181431  0  0.132712  0.107018  0  1.001712  0
H  H6  1  0.40462964  0.52165006  0.84652912  1  0.180791  0  0.132564  0.10693  0  1.0015  0
H  H7  1  0.90465847  0.47833583  0.65346500  1  0.181237  0  0.132676  0.10697  0  1.001776  0
H  H8  1  0.76093150  0.85116993  0.31455023  1  0.101792  0  0.123942  0.116685  0  0.981105  0
H  H9  1  0.26093270  0.14881791  0.18542632  1  0.10204  0  0.123908  0.116604  0  0.98128  0
H  H10  1  0.23905574  0.14877593  0.68547062  1  0.101964  0  0.123936  0.116749  0  0.981282  0
H  H11  1  0.73903693  0.85121386  0.81456079  1  0.101712  0  0.123891  0.116611  0  0.981306  0
H  H12  1  0.79668536  0.10979537  0.40004561  1  0.17784  0  0.125784  0.120633  0  1.039714  0
H  H13  1  0.29666377  0.89020028  0.09990896  1  0.178033  0  0.125736  0.120614  0  1.039587  0
H  H14  1  0.20337335  0.89014365  0.60000087  1  0.171299  0  0.125831  0.120698  0  1.040263  0
H  H15  1  0.70335661  0.10984321  0.90005583  1  0.171356  0  0.125854  0.120748  0  1.039966  0
H  H16  1  0.04122051  0.86731257  0.37408023  1  0.123131  0  0.12409  0.115273  0  0.989935  0
H  H17  1  0.54120998  0.13271529  0.12595692  1  0.122781  0  0.124039  0.115327  0  0.989521  0
H  H18  1  0.95880713  0.13270846  0.62593852  1  0.122872  0  0.124094  0.115366  0  0.989865  0
H  H19  1  0.45878243  0.86726669  0.87402902  1  0.121123  0  0.124009  0.115286  0  0.989847  0
H  H20  1  0.03101947  0.14234914  0.41748094  1  0.220525  0  0.124437  0.127496  0  1.049767  0
H  H21  1  0.53099031  0.85767873  0.08254911  1  0.220396  0  0.124379  0.127351  0  1.049869  0
H  H22  1  0.96899159  0.85768361  0.58252685  1  0.220494  0  0.124489  0.127423  0  1.049999  0
H  H23  1  0.46898554  0.14229154  0.91745702  1  0.220784  0  0.124472  0.127436  0  1.050154  0
H  H24  1  0.28020788  0.21885757  0.41856499  1  0.573785  0  0.305602  0.290388  0  1.006496  0
H  H25  1  0.78018182  0.78114687  0.08143231  1  0.573827  0  0.305606  0.290249  0  1.006621  0
H  H26  1  0.71981146  0.78116639  0.58145404  1  0.573941  0  0.305633  0.290276  0  1.006436  0
H  H27  1  0.21981059  0.21883414  0.91854502  1  0.574201  0  0.305672  0.290332  0  1.006457  0
H  H28  1  0.55077507  0.19474367  0.44284791  1  0.577333  0  0.304556  0.290988  0  1.005277  0
H  H29  1  0.05074002  0.80526370  0.05712979  1  0.575766  0  0.304647  0.291282  0  1.005337  0
H  H30  1  0.44927949  0.80524027  0.55719147  1  0.577653  0  0.304606  0.291101  0  1.005394  0
H  H31  1  0.94927725  0.19475050  0.94283861  1  0.577501  0  0.304582  0.291195  0  1.005467  0
C  C32  1  0.62137340  0.48096200  0.22881734  1  0.947081  0  0.147861  0.199067  0  3.924182  0
C  C33  1  0.12136838  0.51903170  0.27118888  1  0.946222  0  0.147786  0.198977  0  3.924002  0
C  C34  1  0.37860245  0.51904829  0.77118619  1  0.946045  0  0.147901  0.198997  0  3.923716  0
C  C35  1  0.87860643  0.48095516  0.72880249  1  0.946054  0  0.147813  0.198954  0  3.92401  0
C  C36  1  0.63152782  0.54099585  0.38272719  1  0.480739  0  0.085059  0.020001  0  3.951069  0
C  C37  1  0.13151556  0.45900078  0.11727363  1  0.485582  0  0.085005  0.019994  0  3.951213  0
C  C38  1  0.36848738  0.45900956  0.61728511  1  0.486156  0  0.085149  0.020067  0  3.951378  0
C  C39  1  0.86846339  0.54102318  0.88271132  1  0.48633  0  0.085029  0.019825  0  3.951132  0
C  C40  1  0.72842988  0.43984438  0.35809475  1  0.432413  0  0.084377  0.018819  0  3.936847  0
C  C41  1  0.22841348  0.56015420  0.14191122  1  0.427694  0  0.084429  0.018915  0  3.936714  0
C  C42  1  0.27157807  0.56015712  0.64190724  1  0.427899  0  0.084304  0.018785  0  3.936683  0
C  C43  1  0.77155512  0.43985122  0.85808191  1  0.427616  0  0.084376  0.018902  0  3.936455  0
C  C44  1  0.59969426  0.62685793  0.47239754  1  1.56257  0  0.208785  0.550805  0  4.23851  0
C  C45  1  0.09969235  0.37312698  0.02760855  1  1.562857  0  0.208806  0.550747  0  4.238924  0
C  C46  1  0.40033752  0.37314260  0.52761571  1  1.562399  0  0.208854  0.550965  0  4.238443  0
C  C47  1  0.90030007  0.62687648  0.97237303  1  1.562556  0  0.208858  0.550768  0  4.239164  0
C  C48  1  0.82392747  0.36609001  0.41397602  1  1.540991  0  0.200186  0.531048  0  4.276775  0
C  C49  1  0.32392453  0.63391344  0.08602474  1  1.541242  0  0.200109  0.530839  0  4.277235  0
C  C50  1  0.17605873  0.63390563  0.58601690  1  1.541042  0  0.200137  0.530957  0  4.277555  0
C  C51  1  0.67607099  0.36609685  0.91398021  1  1.541088  0  0.200297  0.531227  0  4.276756  0
C  C52  1  0.48119799  0.01050956  0.36772999  1  0.96989  0  0.214149  0.218006  0  4.047294  0
C  C53  1  0.98119575  0.98949390  0.13226722  1  0.969984  0  0.214208  0.217988  0  4.047033  0
C  C54  1  0.51882343  0.98948804  0.63230003  1  0.968877  0  0.214113  0.217616  0  4.046854  0
C  C55  1  0.01880288  0.01051639  0.86769797  1  0.969832  0  0.214242  0.217981  0  4.046806  0
C  C56  1  0.68430515  0.92473294  0.33910922  1  0.480342  0  0.015381  -0.007889  0  3.969126  0
C  C57  1  0.18429496  0.07525685  0.16087675  1  0.479604  0  0.015569  -0.007631  0  3.968819  0
C  C58  1  0.31569659  0.07524611  0.66092401  1  0.480633  0  0.015704  -0.007686  0  3.9676  0
C  C59  1  0.81568814  0.92476028  0.83910329  1  0.480187  0  0.015625  -0.007603  0  3.968192  0
C  C60  1  0.70391073  0.05269131  0.38196577  1  0.327552  0  0.027062  0.000799  0  3.856906  0
C  C61  1  0.20388190  0.94728774  0.11800071  1  0.328574  0  0.027279  0.000964  0  3.856803  0
C  C62  1  0.29611068  0.94722330  0.61805567  1  0.334795  0  0.027149  0.000735  0  3.855923  0
C  C63  1  0.79611466  0.05276258  0.88198247  1  0.335362  0  0.027344  0.000972  0  3.856657  0
C  C64  1  0.33367398  0.01415300  0.37731801  1  1.019026  0  0.214873  0.21232  0  4.065578  0
C  C65  1  0.83365932  0.98585729  0.12268481  1  1.019323  0  0.214886  0.212374  0  4.065072  0
C  C66  1  0.66634329  0.98585631  0.62271312  1  1.01852  0  0.214837  0.212594  0  4.065096  0
C  C67  1  0.16633310  0.01414031  0.87727208  1  1.018249  0  0.21467  0.212248  0  4.065314  0
C  C68  1  0.12400539  0.93884690  0.37960889  1  0.464031  0  0.017777  -0.00852  0  3.970535  0
C  C69  1  0.62399383  0.06116242  0.12041372  1  0.46407  0  0.017826  -0.008541  0  3.970737  0
C  C70  1  0.87601500  0.06118487  0.62041443  1  0.463797  0  0.01777  -0.008718  0  3.969753  0
C  C71  1  0.37600170  0.93881175  0.87956366  1  0.465227  0  0.017758  -0.008694  0  3.970311  0
C  C72  1  0.11682458  0.07404334  0.40401208  1  0.313903  0  0.029341  -0.005708  0  3.854386  0
C  C73  1  0.61680370  0.92597964  0.09600828  1  0.314325  0  0.02941  -0.005522  0  3.854937  0
C  C74  1  0.88319477  0.92595426  0.59600374  1  0.314124  0  0.029394  -0.005428  0  3.854139  0
C  C75  1  0.38318768  0.07403456  0.90397787  1  0.31394  0  0.029403  -0.005508  0  3.854567  0
N  N76  1  0.56607714  0.56394408  0.30042678  1  -1.197994  0  -0.356038  -0.317601  0  3.500113  0
N  N77  1  0.06607109  0.43605254  0.19956622  1  -1.198108  0  -0.356018  -0.317593  0  3.500188  0
N  N78  1  0.43392460  0.43605059  0.69957172  1  -1.197294  0  -0.356058  -0.317558  0  3.500579  0
N  N79  1  0.93390268  0.56396458  0.80040813  1  -1.197911  0  -0.356036  -0.317539  0  3.500727  0
N  N80  1  0.71834485  0.40355345  0.26116091  1  -1.228343  0  -0.36205  -0.329228  0  3.498588  0
N  N81  1  0.21834398  0.59644220  0.23884336  1  -1.22787  0  -0.361994  -0.329166  0  3.498494  0
N  N82  1  0.28162375  0.59645587  0.73883898  1  -1.22836  0  -0.362027  -0.329201  0  3.498442  0
N  N83  1  0.78162358  0.40354076  0.76115474  1  -1.228174  0  -0.361955  -0.329027  0  3.498179  0
N  N84  1  0.25838581  0.90300114  0.36306774  1  -1.215557  0  -0.338158  -0.324676  0  3.444855  0
N  N85  1  0.75837218  0.09701403  0.13694193  1  -1.215808  0  -0.338246  -0.324768  0  3.444823  0
N  N86  1  0.74162836  0.09702867  0.63696249  1  -1.214958  0  -0.338087  -0.324672  0  3.444168  0
N  N87  1  0.24161920  0.90297088  0.86301943  1  -1.215051  0  -0.337926  -0.324531  0  3.444705  0
N  N88  1  0.24954782  0.11911876  0.40211547  1  -1.275264  0  -0.355693  -0.222388  0  3.605416  0
N  N89  1  0.74951761  0.88089739  0.09789288  1  -1.275339  0  -0.355721  -0.222467  0  3.605447  0
N  N90  1  0.75048396  0.88090422  0.59791057  1  -1.274958  0  -0.355735  -0.222492  0  3.605758  0
N  N91  1  0.25047481  0.11909436  0.90208191  1  -1.274778  0  -0.355747  -0.22242  0  3.60563  0
N  N92  1  0.54622505  0.89998251  0.33001690  1  -1.188117  0  -0.341001  -0.320304  0  3.43831  0
N  N93  1  0.04621486  0.10001802  0.16998357  1  -1.187998  0  -0.341111  -0.32033  0  3.438425  0
N  N94  1  0.45377980  0.10001216  0.67001071  1  -1.188069  0  -0.34112  -0.320121  0  3.438176  0
N  N95  1  0.95376099  0.89998544  0.82998665  1  -1.187673  0  -0.341161  -0.320338  0  3.438172  0
N  N96  1  0.57500007  0.10539629  0.39860814  1  -1.263806  0  -0.358527  -0.221612  0  3.579651  0
N  N97  1  0.07498677  0.89459252  0.10137134  1  -1.263212  0  -0.35873  -0.221911  0  3.580098  0
N  N98  1  0.42503792  0.89456714  0.60141793  1  -1.2641  0  -0.358574  -0.221408  0  3.579171  0
N  N99  1  0.92502118  0.10542656  0.89859894  1  -1.265028  0  -0.358657  -0.221755  0  3.580108  0
O  O100  1  0.48940936  0.69708210  0.47155223  1  -1.141437  0  -0.306721  -0.534175  0  2.291238  0
O  O101  1  0.98942577  0.30288524  0.02846782  1  -1.141499  0  -0.306786  -0.534167  0  2.291669  0
O  O102  1  0.51058099  0.30288524  0.52848841  1  -1.141609  0  -0.306822  -0.534161  0  2.291727  0
O  O103  1  0.01054283  0.69714751  0.97150163  1  -1.141351  0  -0.306856  -0.534241  0  2.292077  0
O  O104  1  0.68250917  0.63408624  0.54249109  1  -1.1211  0  -0.299769  -0.494371  0  2.126848  0
O  O105  1  0.18249691  0.36590159  0.95751884  1  -1.121337  0  -0.299718  -0.494346  0  2.127174  0
O  O106  1  0.31756507  0.36593186  0.45750679  1  -1.120909  0  -0.299803  -0.49459  0  2.127018  0
O  O107  1  0.81752658  0.63409210  0.04247886  1  -1.121038  0  -0.299771  -0.49427  0  2.126983  0
O  O108  1  0.81157831  0.36996874  0.50338016  1  -1.004528  0  -0.264883  -0.436465  0  2.01498  0
O  O109  1  0.31157226  0.63004936  0.99663121  1  -1.004566  0  -0.264871  -0.436401  0  2.01528  0
O  O110  1  0.18839961  0.63002105  0.49661930  1  -1.004543  0  -0.264741  -0.436332  0  2.015672  0
O  O111  1  0.68842845  0.36997265  0.00337840  1  -1.004521  0  -0.264872  -0.436495  0  2.015235  0
O  O112  1  0.91437271  0.29285112  0.36597754  1  -1.121687  0  -0.30834  -0.526908  0  2.174175  0
O  O113  1  0.41436355  0.70714843  0.13402995  1  -1.121755  0  -0.30835  -0.526861  0  2.174336  0
O  O114  1  0.08563732  0.70714843  0.63401575  1  -1.12182  0  -0.308385  -0.526929  0  2.174707  0
O  O115  1  0.58564233  0.29284526  0.86598408  1  -1.12172  0  -0.308508  -0.52712  0  2.174134  0
