# generated using pymatgen
data_Zn2PH2CO7
_symmetry_space_group_name_H-M   'P 1'
_cell_length_a   4.81135049
_cell_length_b   7.89037835
_cell_length_c   14.15446711
_cell_angle_alpha   96.49612501
_cell_angle_beta   89.99996098
_cell_angle_gamma   89.99990209
_symmetry_Int_Tables_number   1
_chemical_formula_structural   Zn2PH2CO7
_chemical_formula_sum   'Zn8 P4 H8 C4 O28'
_cell_volume   533.90129383
_cell_formula_units_Z   4
loop_
 _symmetry_equiv_pos_site_id
 _symmetry_equiv_pos_as_xyz
  1  'x, y, z'
loop_
 _atom_site_type_symbol
 _atom_site_label
 _atom_site_symmetry_multiplicity
 _atom_site_fract_x
 _atom_site_fract_y
 _atom_site_fract_z
 _atom_site_occupancy
 _atom_site_hle17_bader_spin_density
 _atom_site_hle17_ddec_charge
 _atom_site_hle17_ddec_spin_density
 _atom_site_hle17_ddec_sum_bond_order
 _atom_site_hle17_magmom
 _atom_site_hse06_10hf_bader_spin_density
 _atom_site_hse06_10hf_ddec_charge
 _atom_site_hse06_10hf_ddec_spin_density
 _atom_site_hse06_10hf_ddec_sum_bond_order
 _atom_site_hse06_10hf_magmom
 _atom_site_hse06_bader_spin_density
 _atom_site_hse06_ddec_charge
 _atom_site_hse06_ddec_spin_density
 _atom_site_hse06_ddec_sum_bond_order
 _atom_site_hse06_magmom
 _atom_site_pbe_bader_spin_density
 _atom_site_pbe_cm5_charge
 _atom_site_pbe_ddec_charge
 _atom_site_pbe_ddec_spin_density
 _atom_site_pbe_ddec_sum_bond_order
 _atom_site_pbe_magmom
Zn  Zn0  1  0.97213989  0.41036801  0.30481245  1  0  1.241462  0  1.659859  0  0  1.081769  0  2.093755  0  0  1.127264  0  2.037376  0  0  0.715741  1.049451  0  2.132796  0
Zn  Zn1  1  0.47213946  0.08963201  0.19518561  1  0  1.241507  0  1.659825  0  0  1.081789  0  2.093753  0  0  1.127283  0  2.037372  0  0  0.715757  1.049476  0  2.132796  0
Zn  Zn2  1  0.02785550  0.58963439  0.69518969  1  0  1.241483  0  1.659855  0  0  1.081758  0  2.093774  0  0  1.127262  0  2.037391  0  0  0.715761  1.049429  0  2.132806  0
Zn  Zn3  1  0.52785801  0.91036267  0.80480900  1  0  1.24146  0  1.65987  0  0  1.081737  0  2.093791  0  0  1.127249  0  2.037406  0  0  0.715745  1.049415  0  2.132828  0
Zn  Zn4  1  0.98498844  0.70116375  0.13123448  1  0  1.271616  0  1.641928  0  0  1.107387  0  2.089701  0  0  1.153185  0  2.029184  0  0  0.71467  1.074864  0  2.131743  0
Zn  Zn5  1  0.48498915  0.79883897  0.36876434  1  0  1.271549  0  1.642023  0  0  1.107317  0  2.089797  0  0  1.153116  0  2.029281  0  0  0.714662  1.07479  0  2.131833  0
Zn  Zn6  1  0.01501319  0.29883481  0.86876602  1  0  1.271552  0  1.641914  0  0  1.107323  0  2.089653  0  0  1.153121  0  2.029135  0  0  0.714647  1.074784  0  2.131696  0
Zn  Zn7  1  0.51501456  0.20116596  0.63123583  1  0  1.271539  0  1.641942  0  0  1.107295  0  2.089694  0  0  1.153099  0  2.02918  0  0  0.714637  1.07476  0  2.13173  0
P  P8  1  0.52523832  0.50269759  0.19540768  1  0  1.739113  0  4.907289  0  0  1.553377  0  5.406088  0  0  1.611836  0  5.356661  0  0  0.37146  1.51255  0  5.439636  0
P  P9  1  0.02524275  0.99730436  0.30459190  1  0  1.739113  0  4.907397  0  0  1.553378  0  5.406201  0  0  1.611838  0  5.356783  0  0  0.371433  1.512557  0  5.439738  0
P  P10  1  0.47475708  0.49730479  0.80459234  1  0  1.739032  0  4.907431  0  0  1.553291  0  5.406251  0  0  1.611747  0  5.356812  0  0  0.371367  1.51245  0  5.439796  0
P  P11  1  0.97475887  0.00269419  0.69540789  1  0  1.739012  0  4.90744  0  0  1.553269  0  5.406275  0  0  1.611729  0  5.356832  0  0  0.371357  1.512434  0  5.439819  0
H  H12  1  0.25052657  0.60570286  0.97014200  1  0  0.44919  0  0.84716  0  0  0.414973  0  0.915282  0  0  0.426308  0  0.899005  0  0  0.299286  0.406967  0  0.926756  0
H  H13  1  0.75052136  0.89429652  0.52985819  1  0  0.449185  0  0.847166  0  0  0.414972  0  0.915282  0  0  0.426307  0  0.899005  0  0  0.299298  0.406965  0  0.926755  0
H  H14  1  0.74947506  0.39429443  0.02985913  1  0  0.44927  0  0.84704  0  0  0.41501  0  0.915241  0  0  0.426348  0  0.898966  0  0  0.299304  0.407004  0  0.926717  0
H  H15  1  0.24947195  0.10570714  0.47014332  1  0  0.449299  0  0.847002  0  0  0.415032  0  0.915216  0  0  0.426375  0  0.898934  0  0  0.299316  0.407026  0  0.926691  0
H  H16  1  0.01484203  0.75117877  0.96204929  1  0  0.431661  0  0.863447  0  0  0.400297  0  0.930713  0  0  0.411647  0  0.914324  0  0  0.300067  0.392249  0  0.942331  0
H  H17  1  0.51483098  0.74882341  0.53795042  1  0  0.431629  0  0.863464  0  0  0.400273  0  0.930738  0  0  0.411623  0  0.91435  0  0  0.300066  0.392226  0  0.942356  0
H  H18  1  0.98516168  0.24882743  0.03795026  1  0  0.431591  0  0.863513  0  0  0.400242  0  0.930777  0  0  0.411592  0  0.91439  0  0  0.300063  0.392199  0  0.94239  0
H  H19  1  0.48515610  0.25117260  0.46205063  1  0  0.43166  0  0.863454  0  0  0.400309  0  0.930691  0  0  0.411658  0  0.914304  0  0  0.300093  0.392262  0  0.942309  0
C  C20  1  0.87678595  0.44076803  0.50722749  1  0  0.576531  0  3.864781  0  0  0.519752  0  4.164068  0  0  0.550659  0  4.15671  0  0  0.221509  0.498625  0  4.168651  0
C  C21  1  0.37679125  0.05922853  0.99277544  1  0  0.576497  0  3.864883  0  0  0.51979  0  4.164069  0  0  0.550695  0  4.156709  0  0  0.221525  0.498665  0  4.168656  0
C  C22  1  0.12321567  0.55923317  0.49278164  1  0  0.576492  0  3.86481  0  0  0.519629  0  4.164214  0  0  0.550536  0  4.156861  0  0  0.221386  0.4985  0  4.168798  0
C  C23  1  0.62322285  0.94076742  0.00721996  1  0  0.576599  0  3.864696  0  0  0.519708  0  4.1641  0  0  0.550621  0  4.156729  0  0  0.221448  0.498578  0  4.168687  0
O  O24  1  0.20336403  0.50520298  0.19480135  1  0  -0.914387  0  2.031686  0  0  -0.808744  0  2.327323  0  0  -0.839187  0  2.298908  0  0  -0.363121  -0.787535  0  2.346739  0
O  O25  1  0.70336629  0.99479876  0.30519677  1  0  -0.914292  0  2.03158  0  0  -0.808661  0  2.327222  0  0  -0.839097  0  2.298799  0  0  -0.363112  -0.787471  0  2.34665  0
O  O26  1  0.79662929  0.49479813  0.80520001  1  0  -0.914347  0  2.031714  0  0  -0.808696  0  2.327327  0  0  -0.83913  0  2.298907  0  0  -0.363081  -0.787461  0  2.346716  0
O  O27  1  0.29663118  0.00520231  0.69480035  1  0  -0.91433  0  2.031726  0  0  -0.808687  0  2.327354  0  0  -0.839122  0  2.298931  0  0  -0.363092  -0.787466  0  2.346754  0
O  O28  1  0.65669803  0.62158467  0.27964717  1  0  -0.955813  0  2.0717  0  0  -0.854217  0  2.385781  0  0  -0.884652  0  2.355334  0  0  -0.382329  -0.832527  0  2.406105  0
O  O29  1  0.15670090  0.87841458  0.22035222  1  0  -0.955912  0  2.071805  0  0  -0.854291  0  2.385823  0  0  -0.884723  0  2.355375  0  0  -0.38234  -0.832603  0  2.40615  0
O  O30  1  0.34329736  0.37841644  0.72035349  1  0  -0.955863  0  2.071806  0  0  -0.854228  0  2.385828  0  0  -0.884659  0  2.35538  0  0  -0.382325  -0.832541  0  2.406159  0
O  O31  1  0.84330073  0.12158523  0.77964623  1  0  -0.955854  0  2.071788  0  0  -0.854222  0  2.38578  0  0  -0.884651  0  2.355328  0  0  -0.38234  -0.832536  0  2.406115  0
O  O32  1  0.64238238  0.32374890  0.21087616  1  0  -0.921348  0  2.056953  0  0  -0.816274  0  2.360328  0  0  -0.84787  0  2.332971  0  0  -0.38051  -0.793826  0  2.378309  0
O  O33  1  0.14238775  0.17625277  0.28912349  1  0  -0.921347  0  2.056966  0  0  -0.816244  0  2.36029  0  0  -0.847866  0  2.332985  0  0  -0.380515  -0.793797  0  2.378265  0
O  O34  1  0.35760678  0.67625095  0.78912582  1  0  -0.921306  0  2.057137  0  0  -0.816189  0  2.360439  0  0  -0.847824  0  2.333178  0  0  -0.380488  -0.793744  0  2.378422  0
O  O35  1  0.85761180  0.82374958  0.71087370  1  0  -0.921312  0  2.057171  0  0  -0.816193  0  2.360463  0  0  -0.847832  0  2.333212  0  0  -0.380471  -0.79375  0  2.378447  0
O  O36  1  0.64147389  0.56018360  0.10189096  1  0  -0.889864  0  1.981128  0  0  -0.78678  0  2.24452  0  0  -0.817912  0  2.221831  0  0  -0.369424  -0.764968  0  2.259869  0
O  O37  1  0.14147414  0.93981695  0.39810922  1  0  -0.889867  0  1.981175  0  0  -0.786767  0  2.244545  0  0  -0.817908  0  2.221863  0  0  -0.369407  -0.764953  0  2.259884  0
O  O38  1  0.35852151  0.43981498  0.89811166  1  0  -0.889772  0  1.981092  0  0  -0.786747  0  2.244543  0  0  -0.817872  0  2.221852  0  0  -0.369385  -0.764937  0  2.259895  0
O  O39  1  0.85852125  0.06018285  0.60188782  1  0  -0.889755  0  1.981063  0  0  -0.786704  0  2.244469  0  0  -0.817841  0  2.221791  0  0  -0.369381  -0.764894  0  2.259815  0
O  O40  1  0.76435824  0.36523176  0.43325977  1  0  -0.575736  0  2.100122  0  0  -0.504558  0  2.341763  0  0  -0.531532  0  2.33155  0  0  -0.277262  -0.48588  0  2.348397  0
O  O41  1  0.26436211  0.13476468  0.06674025  1  0  -0.575707  0  2.100159  0  0  -0.504577  0  2.341807  0  0  -0.531543  0  2.331575  0  0  -0.277247  -0.485892  0  2.348427  0
O  O42  1  0.23564754  0.63476680  0.56674073  1  0  -0.575668  0  2.100471  0  0  -0.504463  0  2.342145  0  0  -0.531428  0  2.331919  0  0  -0.277175  -0.485782  0  2.348775  0
O  O43  1  0.73564991  0.86523259  0.93325876  1  0  -0.575762  0  2.100505  0  0  -0.504541  0  2.342132  0  0  -0.531534  0  2.331963  0  0  -0.27721  -0.485867  0  2.348791  0
O  O44  1  0.80228497  0.42888760  0.59230177  1  0  -0.610366  0  2.13453  0  0  -0.538343  0  2.409729  0  0  -0.566825  0  2.397182  0  0  -0.283217  -0.518524  0  2.417888  0
O  O45  1  0.30229040  0.07111287  0.90770071  1  0  -0.610344  0  2.134582  0  0  -0.538372  0  2.409761  0  0  -0.566853  0  2.397215  0  0  -0.283237  -0.518547  0  2.417921  0
O  O46  1  0.19770834  0.57111351  0.40769817  1  0  -0.610425  0  2.134214  0  0  -0.538374  0  2.409417  0  0  -0.566857  0  2.396872  0  0  -0.283236  -0.518559  0  2.417584  0
O  O47  1  0.69772785  0.92888187  0.09230027  1  0  -0.610474  0  2.134166  0  0  -0.538361  0  2.409314  0  0  -0.566845  0  2.396764  0  0  -0.283234  -0.518546  0  2.417484  0
O  O48  1  0.16091015  0.71044328  0.00425498  1  0  -0.842029  0  1.939662  0  0  -0.768615  0  2.170481  0  0  -0.792882  0  2.133016  0  0  -0.566848  -0.751407  0  2.196423  0
O  O49  1  0.66090430  0.78955852  0.49574457  1  0  -0.842019  0  1.939732  0  0  -0.768611  0  2.170565  0  0  -0.792875  0  2.133099  0  0  -0.566878  -0.751406  0  2.196503  0
O  O50  1  0.83909355  0.28955787  0.99574921  1  0  -0.842034  0  1.939645  0  0  -0.768564  0  2.170441  0  0  -0.792844  0  2.132968  0  0  -0.56685  -0.751358  0  2.196378  0
O  O51  1  0.33909110  0.21044256  0.50425326  1  0  -0.84211  0  1.939585  0  0  -0.768654  0  2.17037  0  0  -0.792934  0  2.132892  0  0  -0.566882  -0.751449  0  2.19631  0
