# generated using pymatgen
data_MnH24C26S2(N3O)2
_symmetry_space_group_name_H-M   'P 1'
_cell_length_a   5.64441070
_cell_length_b   8.55922770
_cell_length_c   12.98746095
_cell_angle_alpha   87.12505531
_cell_angle_beta   85.61317450
_cell_angle_gamma   75.05878422
_symmetry_Int_Tables_number   1
_chemical_formula_structural   MnH24C26S2(N3O)2
_chemical_formula_sum   'Mn1 H24 C26 S2 N6 O2'
_cell_volume   604.15633679
_cell_formula_units_Z   1
loop_
 _symmetry_equiv_pos_site_id
 _symmetry_equiv_pos_as_xyz
  1  'x, y, z'
loop_
 _atom_site_type_symbol
 _atom_site_label
 _atom_site_symmetry_multiplicity
 _atom_site_fract_x
 _atom_site_fract_y
 _atom_site_fract_z
 _atom_site_occupancy
 _atom_site_hle17_ddec_charge
 _atom_site_hle17_ddec_spin_density
 _atom_site_hle17_ddec_sum_bond_order
 _atom_site_hle17_magmom
 _atom_site_hse06_10hf_ddec_charge
 _atom_site_hse06_10hf_ddec_spin_density
 _atom_site_hse06_10hf_ddec_sum_bond_order
 _atom_site_hse06_10hf_magmom
 _atom_site_hse06_ddec_charge
 _atom_site_hse06_ddec_spin_density
 _atom_site_hse06_ddec_sum_bond_order
 _atom_site_hse06_magmom
 _atom_site_pbe_cm5_charge
 _atom_site_pbe_ddec_charge
 _atom_site_pbe_ddec_spin_density
 _atom_site_pbe_ddec_sum_bond_order
 _atom_site_pbe_magmom
Mn  Mn0  1  0.99998478  0.00000211  0.50000618  1  0.922057  -4.756512  2.151132  -4.616  0.767532  -4.667743  2.661098  -4.452  0.82202  -4.726282  2.603348  -4.534  0.559826  0.723833  -4.608109  2.7044  -4.371
H  H1  1  0.65566405  0.78853609  0.37581373  1  0.082666  0.000635  0.983293  0.0  0.087773  0.000369  1.058885  0.0  0.089547  0.000431  1.056942  0.0  0.126779  0.086465  0.000293  1.060171  0.0
H  H2  1  0.34432477  0.21146303  0.62418564  1  0.08273  0.000627  0.983227  0.0  0.087803  0.000369  1.058871  0.0  0.089561  0.000431  1.056941  0.0  0.126825  0.086521  0.000293  1.06013  0.0
H  H3  1  0.38053286  0.64203070  0.46954929  1  0.096774  0.000247  0.9734  0.0  0.106336  -1.5e-05  1.037506  0.0  0.108243  9.4e-05  1.037014  0.0  0.113682  0.104929  -0.000136  1.038028  0.0
H  H4  1  0.61945669  0.35798419  0.53044957  1  0.096701  0.000246  0.973451  0.0  0.106261  -1.6e-05  1.037577  0.0  0.108166  9.4e-05  1.03708  0.0  0.113666  0.104854  -0.000137  1.038101  0.0
H  H5  1  0.28280504  0.39196288  0.36244489  1  0.116621  -0.000122  0.977051  0.0  0.124188  -0.000234  1.04309  0.0  0.126607  -0.000127  1.041738  0.0  0.118827  0.122346  -0.000352  1.044258  0.0
H  H6  1  0.71719722  0.60803868  0.63755925  1  0.116757  -0.000115  0.977053  0.0  0.124228  -0.000234  1.043228  0.0  0.126647  -0.000127  1.041876  0.0  0.118851  0.122387  -0.000352  1.044394  0.0
H  H7  1  0.61092281  0.54813501  0.29259102  1  0.072042  3.8e-05  0.949032  0.0  0.086328  4.8e-05  1.016142  0.0  0.087086  4.5e-05  1.015999  0.0  0.109857  0.085706  5.1e-05  1.016403  0.0
H  H8  1  0.38907937  0.45185325  0.70741045  1  0.072047  7.2e-05  0.9492  0.0  0.086364  4.8e-05  1.01625  0.0  0.087124  4.5e-05  1.016108  0.0  0.109868  0.085736  5.1e-05  1.016513  0.0
H  H9  1  0.79244218  0.36318443  0.34236118  1  0.080608  0.000322  0.940977  0.0  0.093586  0.000189  1.008864  0.0  0.09364  0.000284  1.009453  0.0  0.107647  0.093486  7.1e-05  1.008556  0.0
H  H10  1  0.20756558  0.63681233  0.65764288  1  0.080698  0.000332  0.940922  0.0  0.093601  0.000189  1.008886  0.0  0.093655  0.000284  1.009478  0.0  0.107662  0.0935  7.1e-05  1.008576  0.0
H  H11  1  0.93679033  0.54213690  0.14514481  1  0.109142  5e-06  0.946622  0.0  0.125399  -6e-06  1.009308  0.0  0.125464  -4e-06  1.012673  0.0  0.103464  0.125356  -9e-06  1.007047  0.0
H  H12  1  0.06320639  0.45785616  0.85485750  1  0.109177  1.5e-05  0.946566  0.0  0.125454  -6e-06  1.009225  0.0  0.125521  -4e-06  1.012587  0.0  0.103449  0.125408  -9e-06  1.006964  0.0
H  H13  1  0.10839007  0.35626026  0.19350270  1  0.112651  -1.3e-05  0.962947  0.0  0.125133  -0.000165  1.032056  0.0  0.127279  -9.4e-05  1.030711  0.0  0.100987  0.123554  -0.000243  1.033176  0.0
H  H14  1  0.89160990  0.64373772  0.80649702  1  0.112565  -2.8e-05  0.963018  0.0  0.12504  -0.000165  1.032162  0.0  0.127192  -9.5e-05  1.030809  0.0  0.10093  0.123458  -0.000243  1.033285  0.0
H  H15  1  0.25396696  0.19713138  0.07604082  1  0.094328  -2.5e-05  0.9757  0.0  0.099372  -0.000186  1.049427  0.0  0.103159  -0.00013  1.046225  0.0  0.100003  0.096631  -0.000244  1.051781  0.0
H  H16  1  0.74604784  0.80286919  0.92395514  1  0.094243  -5.9e-05  0.975832  0.0  0.099336  -0.000186  1.049519  0.0  0.103111  -0.00013  1.046331  0.0  0.099993  0.096597  -0.000244  1.05187  0.0
H  H17  1  0.41315209  0.05612546  0.91269351  1  0.089643  -8.1e-05  0.96422  0.0  0.099858  -0.000209  1.027152  0.0  0.102093  -0.000158  1.027202  0.0  0.099382  0.098236  -0.000263  1.027217  0.0
H  H18  1  0.58686600  0.94388000  0.08730062  1  0.089643  -7.9e-05  0.964128  0.0  0.099827  -0.000209  1.027087  0.0  0.102058  -0.000158  1.027134  0.0  0.099366  0.098205  -0.000263  1.027149  0.0
H  H19  1  0.13484455  0.06166337  0.77330998  1  0.087871  0.000179  0.965449  0.0  0.099004  9.8e-05  1.027324  0.0  0.100723  0.000145  1.027222  0.0  0.097127  0.097666  3.8e-05  1.027615  0.0
H  H20  1  0.86516933  0.93832627  0.22668635  1  0.087953  0.000187  0.965446  0.0  0.099108  9.8e-05  1.027291  0.0  0.100832  0.000145  1.02718  0.0  0.097178  0.097767  3.8e-05  1.02758  0.0
H  H21  1  0.69506351  0.21294679  0.79467638  1  0.081182  6.7e-05  0.977376  0.0  0.088691  -2.1e-05  1.045834  0.0  0.09126  4.1e-05  1.045294  0.0  0.090694  0.086786  -9.6e-05  1.046412  0.0
H  H22  1  0.30494713  0.78704646  0.20531997  1  0.081145  5.9e-05  0.977471  0.0  0.08864  -2.1e-05  1.045925  0.0  0.091212  4e-05  1.045387  0.0  0.090683  0.086726  -9.6e-05  1.046528  0.0
H  H23  1  0.52952961  0.34388551  0.96217100  1  0.09209  8e-06  0.963441  0.0  0.101466  9e-06  1.027802  0.0  0.103977  6e-06  1.027094  0.0  0.101119  0.099659  1.2e-05  1.028358  0.0
H  H24  1  0.47049137  0.65611271  0.03782247  1  0.092126  -1e-06  0.96346  0.0  0.101484  9e-06  1.027816  0.0  0.103996  6e-06  1.027103  0.0  0.101115  0.099666  1.2e-05  1.028403  0.0
C  C25  1  0.84091406  0.71737617  0.38801054  1  0.155218  -0.004497  3.671697  -0.005  0.097932  -0.006245  3.935932  -0.006  0.110812  -0.005382  3.951796  -0.005  0.141191  0.08954  -0.007138  3.924678  -0.007
C  C26  1  0.15907864  0.28262661  0.61198933  1  0.155271  -0.004499  3.671622  -0.005  0.098004  -0.006244  3.935924  -0.006  0.110896  -0.005381  3.951806  -0.005  0.141191  0.08959  -0.007137  3.924661  -0.007
C  C27  1  0.21644654  0.63526401  0.43365267  1  -0.014791  -0.001474  3.760199  -0.002  -0.04818  -0.003055  4.03221  -0.003  -0.046226  -0.002447  4.051881  -0.003  -0.007445  -0.049657  -0.003615  4.018716  -0.003
C  C28  1  0.78353733  0.36474722  0.56634499  1  -0.014645  -0.00144  3.760047  -0.002  -0.048022  -0.003058  4.03203  -0.003  -0.046061  -0.002445  4.051695  -0.003  -0.007352  -0.049503  -0.003616  4.018542  -0.003
C  C29  1  0.17090414  0.51108579  0.38188895  1  -0.045939  0.000542  3.649274  0.0  -0.086474  -0.000272  3.90931  0.0  -0.083623  0.00027  3.926799  0.0  0.00439  -0.088273  -0.000772  3.897719  -0.001
C  C30  1  0.82909536  0.48892672  0.61811189  1  -0.046069  0.000461  3.649338  0.0  -0.08654  -0.000271  3.90934  0.0  -0.083688  0.000268  3.926829  0.0  0.004417  -0.088335  -0.000772  3.89776  -0.001
C  C31  1  0.80003039  0.47424650  0.29735453  1  0.020141  -0.000411  3.634542  0.0  -0.043344  -0.000646  3.888678  -0.001  -0.037878  -0.000453  3.898868  0.0  -0.05484  -0.046985  -0.000844  3.881906  -0.001
C  C32  1  0.19997202  0.52574543  0.70264527  1  0.019991  -0.000499  3.63475  0.0  -0.043465  -0.000645  3.888875  -0.001  -0.037996  -0.000455  3.899054  0.0  -0.054865  -0.0471  -0.000844  3.882091  -0.001
C  C33  1  0.91943767  0.43207427  0.18986360  1  -0.264974  -0.000166  3.675875  0.0  -0.309554  -0.000337  3.920039  0.0  -0.314322  -0.000265  3.929118  0.0  -0.165958  -0.306235  -0.000446  3.913997  0.0
C  C34  1  0.08056305  0.56791762  0.81013781  1  -0.264863  -0.000156  3.675541  0.0  -0.309487  -0.000338  3.919699  0.0  -0.314259  -0.000265  3.928773  0.0  -0.165891  -0.306159  -0.000446  3.913647  0.0
C  C35  1  0.76851111  0.35120021  0.12936513  1  0.451161  -0.000102  3.661564  0.0  0.438007  -0.000241  3.920061  0.0  0.458779  -0.000138  3.923164  0.0  0.166695  0.423749  -0.000388  3.917975  0.0
C  C36  1  0.23150869  0.64879675  0.87063073  1  0.45117  -9.6e-05  3.661277  0.0  0.438026  -0.000241  3.919806  0.0  0.458799  -0.000137  3.922921  0.0  0.166725  0.42377  -0.000388  3.91772  0.0
C  C37  1  0.87914377  0.27805630  0.02956926  1  -0.057235  4e-05  3.777186  0.0  -0.033503  -1.3e-05  4.002613  0.0  -0.040305  -1.5e-05  4.027981  0.0  -0.022737  -0.028928  -2.6e-05  3.985372  0.0
C  C38  1  0.12085919  0.72194294  0.97042876  1  -0.057115  3.1e-05  3.777011  0.0  -0.033465  -1.2e-05  4.002563  0.0  -0.040269  -1.5e-05  4.027933  0.0  -0.022719  -0.028892  -2.6e-05  3.985324  0.0
C  C39  1  0.13022914  0.20011118  0.01496016  1  -0.085516  -0.000145  3.729662  0.0  -0.107645  -0.000134  3.974923  0.0  -0.108649  -9.3e-05  3.996396  0.0  -0.083104  -0.106766  -0.000198  3.96031  0.0
C  C40  1  0.86977421  0.79990021  0.98503671  1  -0.085563  -6.1e-05  3.729967  0.0  -0.107739  -0.000134  3.975247  0.0  -0.108734  -9.4e-05  3.996727  0.0  -0.083207  -0.10686  -0.000198  3.960636  0.0
C  C41  1  0.22011698  0.12109301  0.92315534  1  -0.073921  6e-06  3.760604  0.0  -0.083824  -0.000188  4.0075  0.0  -0.087141  -0.000143  4.030192  0.0  -0.091188  -0.081581  -0.000235  3.992076  0.0
C  C42  1  0.77989306  0.87890629  0.07684239  1  -0.073829  -1.9e-05  3.760597  0.0  -0.083652  -0.000189  4.007446  0.0  -0.086967  -0.000141  4.030145  0.0  -0.091083  -0.081403  -0.000235  3.992  0.0
C  C43  1  0.06342689  0.12456995  0.84443671  1  -0.052838  2.2e-05  3.738408  0.0  -0.070298  -6.8e-05  3.987413  0.0  -0.070876  -1e-05  4.008729  0.0  -0.087262  -0.069755  -0.000143  3.972954  0.0
C  C44  1  0.93658816  0.87542574  0.15556092  1  -0.052997  -2.4e-05  3.738508  0.0  -0.070486  -6.7e-05  3.987484  0.0  -0.071068  -1.2e-05  4.008799  0.0  -0.087355  -0.069933  -0.000143  3.973016  0.0
C  C45  1  0.81559988  0.20824374  0.85699061  1  -0.075177  -4e-06  3.769786  0.0  -0.087065  -0.000118  4.021624  0.0  -0.090097  -5e-05  4.042836  0.0  -0.094404  -0.085066  -0.000198  4.007318  0.0
C  C46  1  0.18441443  0.79175804  0.14300533  1  -0.075042  5e-05  3.769976  0.0  -0.086908  -0.000119  4.021793  0.0  -0.089944  -4.8e-05  4.043011  0.0  -0.094379  -0.084912  -0.000198  4.007477  0.0
C  C47  1  0.72322605  0.28205138  0.94976717  1  -0.069056  -4.9e-05  3.728739  0.0  -0.092387  -6.9e-05  3.973407  0.0  -0.092309  -5e-05  3.993486  0.0  -0.082437  -0.092227  -0.000101  3.959707  0.0
C  C48  1  0.27678490  0.71794552  0.05022906  1  -0.06918  -6.9e-05  3.728882  0.0  -0.092465  -6.9e-05  3.973578  0.0  -0.092384  -5.3e-05  3.993656  0.0  -0.082396  -0.092308  -0.000101  3.959873  0.0
C  C49  1  0.50340850  0.09067833  0.38125192  1  0.295605  -0.025582  3.988951  -0.024  0.276997  -0.034555  4.291565  -0.031  0.300204  -0.029686  4.305327  -0.027  0.16029  0.260363  -0.039757  4.281694  -0.035
C  C50  1  0.49659127  0.90931702  0.61876098  1  0.29575  -0.025614  3.9889  -0.024  0.277151  -0.034573  4.291501  -0.031  0.300367  -0.029701  4.305258  -0.027  0.160317  0.260509  -0.039777  4.281639  -0.035
S  S51  1  0.27018780  0.06371422  0.32536146  1  -0.29395  -0.041196  2.146444  -0.026  -0.267605  -0.056391  2.483605  -0.03  -0.285702  -0.04647  2.475389  -0.024  -0.088643  -0.253262  -0.066685  2.489011  -0.037
S  S52  1  0.72978211  0.93627602  0.67465435  1  -0.293842  -0.041194  2.146952  -0.026  -0.267473  -0.05639  2.484073  -0.03  -0.285564  -0.04647  2.475856  -0.024  -0.088557  -0.253142  -0.066684  2.489487  -0.037
N  N53  1  0.00946631  0.76391818  0.43695788  1  -0.389873  -0.027287  3.291593  -0.014  -0.320967  -0.03  3.581009  -0.013  -0.344188  -0.027009  3.599945  -0.011  -0.352923  -0.303592  -0.032727  3.566939  -0.015
N  N54  1  0.99051819  0.23609180  0.56304288  1  -0.389991  -0.027289  3.291704  -0.014  -0.321114  -0.03  3.581158  -0.013  -0.344338  -0.027012  3.600098  -0.011  -0.353033  -0.303722  -0.032727  3.567052  -0.015
N  N55  1  0.93210963  0.56512419  0.35350945  1  -0.063759  -0.001459  3.572119  -0.002  0.033627  -0.002676  3.783796  -0.003  0.018271  -0.002106  3.810932  -0.002  -0.24321  0.043829  -0.00323  3.765403  -0.003
N  N56  1  0.06788541  0.43487737  0.64649191  1  -0.063842  -0.0014  3.572422  -0.001  0.033537  -0.002676  3.78403  -0.003  0.018183  -0.002107  3.811164  -0.002  -0.243279  0.043732  -0.003229  3.765644  -0.003
N  N57  1  0.67535171  0.10855443  0.42238027  1  -0.540992  -0.021149  2.922468  -0.004  -0.489107  -0.030654  3.217022  -0.007  -0.511599  -0.023126  3.220172  -0.001  -0.388043  -0.472501  -0.038089  3.214997  -0.013
N  N58  1  0.32462017  0.89144325  0.57762599  1  -0.541268  -0.02112  2.921989  -0.004  -0.489351  -0.030644  3.216482  -0.007  -0.511848  -0.023112  3.219628  -0.001  -0.38811  -0.472743  -0.038083  3.214464  -0.013
O  O59  1  0.55569494  0.35011248  0.15943587  1  -0.470719  -8.1e-05  1.918187  0.0  -0.427501  -0.00034  2.128269  0.0  -0.445234  -0.000214  2.126087  0.0  -0.259892  -0.415381  -0.00047  2.129731  0.0
O  O60  1  0.44431073  0.64988811  0.84055430  1  -0.470782  -7.6e-05  1.918304  0.0  -0.427472  -0.000341  2.1283  0.0  -0.445214  -0.000211  2.126129  0.0  -0.259886  -0.41534  -0.00047  2.12974  0.0
