# generated using pymatgen
data_ZnH6C12(SO5)2
_symmetry_space_group_name_H-M   'P 1'
_cell_length_a   10.47658188
_cell_length_b   18.62188118
_cell_length_c   18.73987235
_cell_angle_alpha   89.67467062
_cell_angle_beta   93.24578884
_cell_angle_gamma   86.84563540
_symmetry_Int_Tables_number   1
_chemical_formula_structural   ZnH6C12(SO5)2
_chemical_formula_sum   'Zn4 H24 C48 S8 O40'
_cell_volume   3644.49333019
_cell_formula_units_Z   4
loop_
 _symmetry_equiv_pos_site_id
 _symmetry_equiv_pos_as_xyz
  1  'x, y, z'
loop_
 _atom_site_type_symbol
 _atom_site_label
 _atom_site_symmetry_multiplicity
 _atom_site_fract_x
 _atom_site_fract_y
 _atom_site_fract_z
 _atom_site_occupancy
 _atom_site_pbe_bader_charge
 _atom_site_pbe_bader_spin_density
 _atom_site_pbe_cm5_charge
 _atom_site_pbe_ddec_charge
 _atom_site_pbe_ddec_spin_density
 _atom_site_pbe_ddec_sum_bond_order
 _atom_site_pbe_magmom
Zn  Zn0  1  0.38255658  0.00910805  0.49340247  1  1.300804  0  0.742966  0.974803  0  2.022132  0
Zn  Zn1  1  0.62898965  0.99210686  0.50960102  1  1.30843  0  0.749765  0.983828  0  2.10735  0
Zn  Zn2  1  0.61748217  0.49292074  0.00953288  1  1.301366  0  0.743576  0.975862  0  2.019933  0
Zn  Zn3  1  0.37108866  0.50923148  0.99251138  1  1.309388  0  0.749812  0.983848  0  2.106463  0
H  H4  1  0.68042899  0.67253785  0.17253284  1  0.141967  0  0.115196  0.127179  0  1.014482  0
H  H5  1  0.27484045  0.65609645  0.14068908  1  0.145971  0  0.119207  0.139007  0  0.999559  0
H  H6  1  0.32166985  0.83448970  0.32520789  1  0.155593  0  0.115933  0.129171  0  1.011729  0
H  H7  1  0.72627990  0.85942397  0.34837024  1  0.183873  0  0.120438  0.140601  0  0.995751  0
H  H8  1  0.67890521  0.32398704  0.83560861  1  0.151786  0  0.116209  0.12934  0  1.013703  0
H  H9  1  0.27446810  0.34664777  0.86067565  1  0.164262  0  0.12016  0.14023  0  0.995947  0
H  H10  1  0.31939607  0.17168749  0.67308118  1  0.135351  0  0.115633  0.128204  0  1.01325  0
H  H11  1  0.72486227  0.14044020  0.65630524  1  0.149318  0  0.119088  0.13908  0  0.999236  0
H  H12  1  0.66450245  0.33206632  0.17508435  1  0.154325  0  0.115242  0.128753  0  1.018604  0
H  H13  1  0.25559128  0.36153130  0.15216884  1  0.140932  0  0.120416  0.139665  0  0.992518  0
H  H14  1  0.33477214  0.17489262  0.33251061  1  0.146605  0  0.115389  0.129629  0  1.016858  0
H  H15  1  0.74371645  0.15203451  0.36187009  1  0.125508  0  0.120442  0.139472  0  0.992476  0
H  H16  1  0.32866500  0.67387833  0.82668172  1  0.158321  0  0.114419  0.127256  0  1.023032  0
H  H17  1  0.73609407  0.64702652  0.86311683  1  0.176452  0  0.120684  0.141382  0  0.984579  0
H  H18  1  0.67130948  0.82627678  0.67434749  1  0.159155  0  0.114733  0.127378  0  1.022255  0
H  H19  1  0.26386583  0.86238808  0.64711114  1  0.160548  0  0.120856  0.142652  0  0.984605  0
H  H20  1  0.94010122  0.73269269  0.17767656  1  0.668934  0  0.320619  0.398293  0  0.916589  0
H  H21  1  0.05142008  0.82490850  0.27025868  1  0.672159  0  0.322741  0.401419  0  0.911287  0
H  H22  1  0.94899732  0.26867150  0.82579101  1  0.681595  0  0.322488  0.400049  0  0.912422  0
H  H23  1  0.05976404  0.17607145  0.73342497  1  0.669742  0  0.320835  0.39837  0  0.91617  0
H  H24  1  0.93551323  0.32252514  0.23026836  1  0.681968  0  0.322223  0.399636  0  0.913015  0
H  H25  1  0.06390967  0.23044014  0.32261935  1  0.678504  0  0.322322  0.399836  0  0.912823  0
H  H26  1  0.06807436  0.73094075  0.82147521  1  0.669752  0  0.321395  0.397173  0  0.91427  0
H  H27  1  0.93210199  0.82129905  0.73106695  1  0.667661  0  0.320794  0.396495  0  0.915229  0
C  C28  1  0.48882942  0.90255990  0.59838680  1  1.530873  0  0.227149  0.599247  0  4.154587  0
C  C29  1  0.50573518  0.90646471  0.39980700  1  1.557916  0  0.227067  0.601069  0  4.150812  0
C  C30  1  0.52683502  0.10167987  0.40784592  1  1.560772  0  0.226867  0.600728  0  4.150833  0
C  C31  1  0.50339010  0.09600362  0.60232582  1  1.560223  0  0.225218  0.598602  0  4.156084  0
C  C32  1  0.47250214  0.40747910  0.10190604  1  1.551386  0  0.225939  0.599244  0  4.152632  0
C  C33  1  0.49632295  0.60252192  0.09594541  1  1.557027  0  0.224616  0.596914  0  4.157339  0
C  C34  1  0.51104872  0.59800743  0.90308144  1  1.556177  0  0.227601  0.601104  0  4.15169  0
C  C35  1  0.49534524  0.39834316  0.90778052  1  1.557368  0  0.228067  0.601904  0  4.150144  0
C  C36  1  0.58404036  0.69067978  0.18538811  1  0.065673  0  -0.05752  -0.103356  0  3.864998  0
C  C37  1  0.35477730  0.68162391  0.16761395  1  0.001971  0  -0.066203  -0.088821  0  3.940399  0
C  C38  1  0.33371911  0.73197583  0.21958188  1  -0.157702  0  -0.006534  -0.124893  0  3.930614  0
C  C39  1  0.43663080  0.76679486  0.25591325  1  -0.025359  0  0.015628  0.084658  0  3.924111  0
C  C40  1  0.41764858  0.81950883  0.30923574  1  0.033134  0  -0.056966  -0.103987  0  3.859525  0
C  C41  1  0.64625611  0.83357467  0.32190064  1  -0.015498  0  -0.063937  -0.085548  0  3.934233  0
C  C42  1  0.66733768  0.78137159  0.27174221  1  -0.167099  0  -0.006467  -0.12392  0  3.930708  0
C  C43  1  0.56458073  0.74547514  0.23657577  1  0.026733  0  0.016374  0.08418  0  3.92554  0
C  C44  1  0.48089307  0.66009629  0.15076771  1  -0.027909  0  -0.004428  -0.004441  0  3.94446  0
C  C45  1  0.52055269  0.85239983  0.34151363  1  -0.039459  0  -0.003473  -0.004899  0  3.941123  0
C  C46  1  0.58285260  0.30794727  0.82061982  1  0.014053  0  -0.0574  -0.104595  0  3.864741  0
C  C47  1  0.35437396  0.32035357  0.83474972  1  8e-06  0  -0.064193  -0.086655  0  3.933045  0
C  C48  1  0.33302459  0.27038910  0.78236565  1  -0.169837  0  -0.005839  -0.120852  0  3.925177  0
C  C49  1  0.43556339  0.23544155  0.74631193  1  0.041219  0  0.015632  0.08371  0  3.925838  0
C  C50  1  0.41586005  0.18455786  0.69124508  1  0.058035  0  -0.057971  -0.105349  0  3.865102  0
C  C51  1  0.64507152  0.16712255  0.68199881  1  0.045398  0  -0.065797  -0.088681  0  3.938695  0
C  C52  1  0.66634081  0.21873963  0.73272990  1  -0.185189  0  -0.006812  -0.123902  0  3.928732  0
C  C53  1  0.56358313  0.25479096  0.76771638  1  0.008456  0  0.01637  0.083724  0  3.926755  0
C  C54  1  0.48016250  0.34002778  0.85364863  1  -0.029526  0  -0.003006  -0.003875  0  3.941514  0
C  C55  1  0.51889672  0.15032489  0.66035773  1  -0.064265  0  -0.004845  -0.004274  0  3.944896  0
C  C56  1  0.57133835  0.31790503  0.19175060  1  0.025341  0  -0.057914  -0.102441  0  3.864721  0
C  C57  1  0.33997441  0.33470016  0.17900627  1  0.103967  0  -0.062735  -0.084996  0  3.93282  0
C  C58  1  0.32813115  0.28207799  0.22965110  1  -0.20773  0  -0.004576  -0.120151  0  3.91759  0
C  C59  1  0.43741717  0.24561760  0.26566469  1  0.072662  0  0.015711  0.08398  0  3.926821  0
C  C60  1  0.42793274  0.19156207  0.31829642  1  0.010252  0  -0.058635  -0.104013  0  3.863383  0
C  C61  1  0.65931513  0.17883109  0.33501696  1  0.012492  0  -0.062447  -0.084268  0  3.931901  0
C  C62  1  0.67114078  0.22940241  0.28234204  1  -0.142714  0  -0.005003  -0.121502  0  3.917588  0
C  C63  1  0.56184752  0.26535881  0.24586717  1  0.013038  0  0.015586  0.084653  0  3.927459  0
C  C64  1  0.46274300  0.35242571  0.15954795  1  -0.088317  0  -0.004613  -0.01  0  3.949344  0
C  C65  1  0.53654813  0.15938274  0.35280188  1  -0.026834  0  -0.004337  -0.009483  0  3.949859  0
C  C66  1  0.42301323  0.68990966  0.81409994  1  -0.018727  0  -0.058442  -0.102998  0  3.872942  0
C  C67  1  0.65384451  0.67459974  0.83481825  1  0.066578  0  -0.061658  -0.085587  0  3.924777  0
C  C68  1  0.67011870  0.72568860  0.78318562  1  -0.188904  0  -0.004858  -0.12039  0  3.907986  0
C  C69  1  0.56331057  0.76230490  0.74485284  1  -0.027304  0  0.015308  0.083407  0  3.929265  0
C  C70  1  0.57696429  0.81363708  0.69030832  1  -0.010491  0  -0.058887  -0.103221  0  3.869749  0
C  C71  1  0.34612025  0.83419797  0.67479567  1  0.090073  0  -0.062419  -0.086674  0  3.926531  0
C  C72  1  0.32987278  0.78265714  0.72599040  1  -0.23398  0  -0.004092  -0.120863  0  3.9107  0
C  C73  1  0.43670489  0.74443348  0.76271340  1  0.054922  0  0.01493  0.08322  0  3.933028  0
C  C74  1  0.52894091  0.65595355  0.84954978  1  -0.033147  0  -0.004883  -0.007402  0  3.944851  0
C  C75  1  0.47100145  0.84898516  0.65624649  1  -0.002176  0  -0.00445  -0.006957  0  3.944392  0
S  S76  1  0.83026438  0.75152080  0.26670014  1  3.061391  0  0.54772  1.169203  0  5.976315  0
S  S77  1  0.17545393  0.73628267  0.24890131  1  3.068733  0  0.547193  1.167217  0  5.979941  0
S  S78  1  0.82474114  0.24819535  0.73745763  1  3.081842  0  0.547552  1.167018  0  5.977739  0
S  S79  1  0.16999496  0.26549437  0.75257267  1  3.044331  0  0.548764  1.169179  0  5.97574  0
S  S80  1  0.82804183  0.23356861  0.25197926  1  3.060571  0  0.547419  1.166228  0  5.981253  0
S  S81  1  0.17119338  0.25155683  0.23401515  1  3.062834  0  0.548087  1.167116  0  5.980192  0
S  S82  1  0.17022778  0.75546751  0.73099545  1  3.049129  0  0.547675  1.162502  0  5.96932  0
S  S83  1  0.82975226  0.73047928  0.75616855  1  3.052013  0  0.546859  1.160934  0  5.970612  0
O  O84  1  0.38635699  0.93183543  0.56761457  1  -1.138559  0  -0.310856  -0.547654  0  2.302901  0
O  O85  1  0.60305823  0.91483333  0.58422553  1  -1.142732  0  -0.306535  -0.533907  0  2.267172  0
O  O86  1  0.61169373  0.92219019  0.43202209  1  -1.147688  0  -0.312281  -0.549339  0  2.33655  0
O  O87  1  0.39484397  0.93212425  0.41352008  1  -1.146721  0  -0.304824  -0.534173  0  2.225276  0
O  O88  1  0.63170723  0.07270407  0.43483358  1  -1.152051  0  -0.308557  -0.54243  0  2.268162  0
O  O89  1  0.41401858  0.08573342  0.42299021  1  -1.140777  0  -0.309055  -0.540417  0  2.28996  0
O  O90  1  0.39227272  0.08405881  0.57574291  1  -1.141022  0  -0.3061  -0.533863  0  2.224662  0
O  O91  1  0.60911903  0.06553980  0.58388644  1  -1.149755  0  -0.31395  -0.553537  0  2.344731  0
O  O92  1  0.58532929  0.42197467  0.08541778  1  -1.137375  0  -0.308345  -0.539905  0  2.291716  0
O  O93  1  0.36765353  0.43515116  0.07353905  1  -1.139606  0  -0.308253  -0.541519  0  2.269384  0
O  O94  1  0.39072033  0.58497751  0.06458194  1  -1.146335  0  -0.313597  -0.552395  0  2.342361  0
O  O95  1  0.60728819  0.57542753  0.08450132  1  -1.139439  0  -0.306626  -0.534033  0  2.224937  0
O  O96  1  0.39681739  0.58320165  0.91468651  1  -1.141582  0  -0.306709  -0.534504  0  2.265407  0
O  O97  1  0.61347915  0.56778164  0.93297218  1  -1.14018  0  -0.311098  -0.548597  0  2.301946  0
O  O98  1  0.60643567  0.41261423  0.93277540  1  -1.141049  0  -0.306001  -0.534713  0  2.223091  0
O  O99  1  0.38942349  0.43007158  0.92424730  1  -1.147872  0  -0.312683  -0.550794  0  2.337146  0
O  O100  1  0.84887634  0.75236672  0.18315906  1  -1.247241  0  -0.358003  -0.538941  0  2.168903  0
O  O101  1  0.90803469  0.80668689  0.29933172  1  -1.307363  0  -0.312809  -0.564414  0  2.186523  0
O  O102  1  0.84648109  0.67941867  0.29459371  1  -1.26431  0  -0.29966  -0.504251  0  2.082328  0
O  O103  1  0.13921587  0.82016370  0.24987449  1  -1.244297  0  -0.355616  -0.535657  0  2.169059  0
O  O104  1  0.09360773  0.70438951  0.19321967  1  -1.312745  0  -0.314195  -0.565361  0  2.187086  0
O  O105  1  0.17905211  0.70642762  0.31985414  1  -1.263374  0  -0.300698  -0.50532  0  2.083584  0
O  O106  1  0.86112305  0.24823233  0.82086609  1  -1.262394  0  -0.355369  -0.534347  0  2.169182  0
O  O107  1  0.90626187  0.19249276  0.70521518  1  -1.316022  0  -0.314509  -0.565794  0  2.187377  0
O  O108  1  0.82145160  0.31991078  0.70860590  1  -1.263929  0  -0.300329  -0.504504  0  2.08283  0
O  O109  1  0.15105621  0.18141805  0.75304304  1  -1.231928  0  -0.358994  -0.539455  0  2.167005  0
O  O110  1  0.09242889  0.29810800  0.80748383  1  -1.312489  0  -0.31249  -0.564266  0  2.189108  0
O  O111  1  0.15378400  0.29384636  0.68101348  1  -1.258593  0  -0.300575  -0.50501  0  2.082441  0
O  O112  1  0.84894343  0.31731496  0.25099880  1  -1.257882  0  -0.353371  -0.531155  0  2.169781  0
O  O113  1  0.91704651  0.20013302  0.30690692  1  -1.312118  0  -0.312863  -0.563241  0  2.184192  0
O  O114  1  0.82812136  0.20523626  0.18082531  1  -1.262567  0  -0.305329  -0.511623  0  2.084244  0
O  O115  1  0.15047529  0.25127487  0.31724515  1  -1.257303  0  -0.353952  -0.531991  0  2.170059  0
O  O116  1  0.08221528  0.30653648  0.20032548  1  -1.312408  0  -0.313301  -0.563448  0  2.184424  0
O  O117  1  0.17095198  0.17972004  0.20644819  1  -1.265372  0  -0.304892  -0.511605  0  2.083067  0
O  O118  1  0.15197649  0.75403925  0.81475068  1  -1.229104  0  -0.358162  -0.537622  0  2.173737  0
O  O119  1  0.08326292  0.81266587  0.69963181  1  -1.307112  0  -0.314038  -0.560535  0  2.16367  0
O  O120  1  0.16437529  0.68425888  0.70246558  1  -1.260058  0  -0.298192  -0.501554  0  2.087363  0
O  O121  1  0.84821206  0.81475036  0.75406463  1  -1.250069  0  -0.357483  -0.536738  0  2.174241  0
O  O122  1  0.91672471  0.69937581  0.81326999  1  -1.306565  0  -0.313836  -0.559792  0  2.163109  0
O  O123  1  0.83547234  0.70118990  0.68563759  1  -1.256706  0  -0.297439  -0.50095  0  2.08826  0
