# generated using pymatgen
data_TlH16C11SNO2
_symmetry_space_group_name_H-M   'P 1'
_cell_length_a   8.95703102
_cell_length_b   11.58568947
_cell_length_c   12.99682230
_cell_angle_alpha   90.00005810
_cell_angle_beta   90.00006210
_cell_angle_gamma   90.00001766
_symmetry_Int_Tables_number   1
_chemical_formula_structural   TlH16C11SNO2
_chemical_formula_sum   'Tl4 H64 C44 S4 N4 O8'
_cell_volume   1348.72417954
_cell_formula_units_Z   4
loop_
 _symmetry_equiv_pos_site_id
 _symmetry_equiv_pos_as_xyz
  1  'x, y, z'
loop_
 _atom_site_type_symbol
 _atom_site_label
 _atom_site_symmetry_multiplicity
 _atom_site_fract_x
 _atom_site_fract_y
 _atom_site_fract_z
 _atom_site_occupancy
 _atom_site_hle17_bader_spin_density
 _atom_site_hle17_ddec_charge
 _atom_site_hle17_ddec_spin_density
 _atom_site_hle17_ddec_sum_bond_order
 _atom_site_hle17_magmom
 _atom_site_hse06_10hf_bader_spin_density
 _atom_site_hse06_10hf_ddec_charge
 _atom_site_hse06_10hf_ddec_spin_density
 _atom_site_hse06_10hf_ddec_sum_bond_order
 _atom_site_hse06_10hf_magmom
 _atom_site_hse06_bader_spin_density
 _atom_site_hse06_ddec_charge
 _atom_site_hse06_ddec_spin_density
 _atom_site_hse06_ddec_sum_bond_order
 _atom_site_hse06_magmom
 _atom_site_pbe_bader_spin_density
 _atom_site_pbe_cm5_charge
 _atom_site_pbe_ddec_charge
 _atom_site_pbe_ddec_spin_density
 _atom_site_pbe_ddec_sum_bond_order
 _atom_site_pbe_magmom
Tl  Tl0  1  0.46648578  0.72658572  0.90275579  1  0  0.949369  0  2.244384  0  0  0.831625  0  2.720171  0  0  0.866918  0  2.702251  0  0  0.436658  0.812024  0  2.727157  0
Tl  Tl1  1  0.03351482  0.27341253  0.40275628  1  0  0.949369  0  2.244397  0  0  0.831616  0  2.720215  0  0  0.866907  0  2.702289  0  0  0.436651  0.812013  0  2.727211  0
Tl  Tl2  1  0.96648566  0.77341379  0.09724371  1  0  0.949368  0  2.244388  0  0  0.831614  0  2.720197  0  0  0.866908  0  2.702274  0  0  0.436655  0.812018  0  2.727179  0
Tl  Tl3  1  0.53351547  0.22658510  0.59724398  1  0  0.949395  0  2.244345  0  0  0.831643  0  2.720148  0  0  0.866938  0  2.702216  0  0  0.436667  0.812041  0  2.727134  0
H  H4  1  0.63454750  0.02215254  0.23386741  1  0  0.104882  0  0.974785  0  0  0.109278  0  1.041827  0  0  0.113425  0  1.040111  0  0  0.096296  0.106584  0  1.043086  0
H  H5  1  0.86545049  0.97784910  0.73386631  1  0  0.104857  0  0.974772  0  0  0.109219  0  1.041864  0  0  0.113365  0  1.040148  0  0  0.096247  0.106523  0  1.043125  0
H  H6  1  0.13454863  0.47784771  0.76613446  1  0  0.104833  0  0.97482  0  0  0.10922  0  1.041882  0  0  0.113366  0  1.040165  0  0  0.096245  0.10652  0  1.043147  0
H  H7  1  0.36545177  0.52215125  0.26613389  1  0  0.104835  0  0.974807  0  0  0.10922  0  1.041872  0  0  0.113365  0  1.040158  0  0  0.096255  0.106524  0  1.043134  0
H  H8  1  0.65638514  0.91710220  0.06347772  1  0  0.055567  0  1.003759  0  0  0.064902  0  1.074367  0  0  0.06753  0  1.071588  0  0  0.101276  0.063061  0  1.075823  0
H  H9  1  0.84361482  0.08289751  0.56347732  1  0  0.055569  0  1.003753  0  0  0.064928  0  1.074342  0  0  0.067533  0  1.071587  0  0  0.101281  0.063082  0  1.075802  0
H  H10  1  0.15638526  0.58289724  0.93652309  1  0  0.05559  0  1.00375  0  0  0.064951  0  1.074337  0  0  0.067557  0  1.071579  0  0  0.101293  0.063104  0  1.0758  0
H  H11  1  0.34361428  0.41710106  0.43652164  1  0  0.055606  0  1.003759  0  0  0.064948  0  1.07435  0  0  0.067571  0  1.07158  0  0  0.101295  0.063101  0  1.075811  0
H  H12  1  0.42962051  0.96048431  0.35343545  1  0  0.096871  0  0.948386  0  0  0.110266  0  1.007958  0  0  0.113012  0  1.005797  0  0  0.110013  0.107619  0  1.010833  0
H  H13  1  0.07038002  0.03951821  0.85343481  1  0  0.096875  0  0.948372  0  0  0.110263  0  1.007957  0  0  0.113004  0  1.005794  0  0  0.110003  0.107618  0  1.010833  0
H  H14  1  0.92962227  0.53951692  0.64656402  1  0  0.096793  0  0.948396  0  0  0.110229  0  1.007931  0  0  0.112974  0  1.005769  0  0  0.110007  0.107579  0  1.010812  0
H  H15  1  0.57037894  0.46048289  0.14656548  1  0  0.096848  0  0.948373  0  0  0.110235  0  1.00796  0  0  0.112978  0  1.005795  0  0  0.109999  0.107588  0  1.010837  0
H  H16  1  0.48128424  0.51421775  0.98805039  1  0  0.141549  0  1.014873  0  0  0.157083  0  1.079318  0  0  0.159297  0  1.080972  0  0  0.07848  0.155177  0  1.07914  0
H  H17  1  0.01871650  0.48578147  0.48805106  1  0  0.141531  0  1.014893  0  0  0.157074  0  1.079326  0  0  0.159286  0  1.080985  0  0  0.078471  0.155169  0  1.079153  0
H  H18  1  0.98128518  0.98578177  0.01194989  1  0  0.141529  0  1.014859  0  0  0.157059  0  1.079318  0  0  0.159275  0  1.080971  0  0  0.078475  0.155155  0  1.07914  0
H  H19  1  0.51871581  0.01421789  0.51194919  1  0  0.141542  0  1.014873  0  0  0.157077  0  1.079312  0  0  0.159291  0  1.080968  0  0  0.078478  0.155174  0  1.079131  0
H  H20  1  0.66395635  0.55507936  0.94235239  1  0  0.149478  0  1.001776  0  0  0.166023  0  1.060776  0  0  0.168009  0  1.063462  0  0  0.084031  0.164724  0  1.058914  0
H  H21  1  0.83604532  0.44491992  0.44235249  1  0  0.149481  0  1.001751  0  0  0.166016  0  1.060769  0  0  0.168001  0  1.063455  0  0  0.084035  0.16472  0  1.058902  0
H  H22  1  0.16395635  0.94492008  0.05764766  1  0  0.149495  0  1.001766  0  0  0.166035  0  1.060767  0  0  0.168022  0  1.063452  0  0  0.084041  0.164735  0  1.058909  0
H  H23  1  0.33604260  0.05507951  0.55764723  1  0  0.149467  0  1.001742  0  0  0.166004  0  1.060762  0  0  0.16799  0  1.063446  0  0  0.084017  0.164706  0  1.058901  0
H  H24  1  0.52562695  0.50387388  0.85297431  1  0  0.150996  0  0.983063  0  0  0.17046  0  1.037856  0  0  0.173222  0  1.038543  0  0  0.086382  0.168554  0  1.037263  0
H  H25  1  0.97437458  0.49612444  0.35297456  1  0  0.150922  0  0.983127  0  0  0.170427  0  1.03788  0  0  0.173189  0  1.038569  0  0  0.086382  0.168526  0  1.037286  0
H  H26  1  0.02562711  0.99612552  0.14702640  1  0  0.150952  0  0.983118  0  0  0.170443  0  1.03788  0  0  0.173205  0  1.038569  0  0  0.086378  0.168541  0  1.037285  0
H  H27  1  0.47437421  0.00387417  0.64702603  1  0  0.150963  0  0.983086  0  0  0.170425  0  1.037885  0  0  0.173187  0  1.038575  0  0  0.08637  0.168525  0  1.037295  0
H  H28  1  0.33844663  0.87560309  0.76805673  1  0  0.147699  0  0.996496  0  0  0.167582  0  1.051415  0  0  0.17014  0  1.052816  0  0  0.084244  0.166136  0  1.050041  0
H  H29  1  0.16155377  0.12439588  0.26805564  1  0  0.147787  0  0.996411  0  0  0.167639  0  1.051369  0  0  0.170197  0  1.052768  0  0  0.084269  0.166193  0  1.04999  0
H  H30  1  0.83844666  0.62439725  0.23194422  1  0  0.147771  0  0.996437  0  0  0.167631  0  1.051384  0  0  0.170189  0  1.052783  0  0  0.084262  0.166184  0  1.050008  0
H  H31  1  0.66155468  0.37560352  0.73194318  1  0  0.147769  0  0.996433  0  0  0.167642  0  1.051362  0  0  0.1702  0  1.05276  0  0  0.084271  0.166192  0  1.049984  0
H  H32  1  0.38041712  0.95030308  0.88572246  1  0  0.148562  0  0.991605  0  0  0.166064  0  1.049337  0  0  0.168548  0  1.050827  0  0  0.082579  0.164538  0  1.048104  0
H  H33  1  0.11958123  0.04969602  0.38572204  1  0  0.14858  0  0.991677  0  0  0.166089  0  1.049385  0  0  0.168574  0  1.050874  0  0  0.082587  0.164564  0  1.048149  0
H  H34  1  0.88041693  0.54969728  0.11427851  1  0  0.14853  0  0.991705  0  0  0.166035  0  1.04943  0  0  0.168519  0  1.050918  0  0  0.082562  0.164511  0  1.048195  0
H  H35  1  0.61958199  0.45030336  0.61427751  1  0  0.14856  0  0.991625  0  0  0.166062  0  1.04936  0  0  0.168545  0  1.05085  0  0  0.08258  0.164535  0  1.04812  0
H  H36  1  0.21854761  0.85793047  0.87813512  1  0  0.146651  0  0.999369  0  0  0.163078  0  1.059928  0  0  0.164801  0  1.062857  0  0  0.083172  0.161133  0  1.059715  0
H  H37  1  0.28145296  0.14206775  0.37813491  1  0  0.146659  0  0.999353  0  0  0.163112  0  1.059882  0  0  0.164835  0  1.06281  0  0  0.083188  0.161167  0  1.05967  0
H  H38  1  0.71854636  0.64206811  0.12186650  1  0  0.146641  0  0.999378  0  0  0.163095  0  1.059903  0  0  0.164817  0  1.062831  0  0  0.083183  0.16115  0  1.059687  0
H  H39  1  0.78145258  0.35793167  0.62186554  1  0  0.146644  0  0.999374  0  0  0.163093  0  1.059912  0  0  0.164815  0  1.06284  0  0  0.083176  0.161143  0  1.059703  0
H  H40  1  0.08355944  0.69886761  0.46162088  1  0  0.032291  0  0.927429  0  0  0.044988  0  0.985492  0  0  0.045453  0  0.984738  0  0  0.106428  0.044361  0  0.986443  0
H  H41  1  0.41644014  0.30113244  0.96162073  1  0  0.032312  0  0.92742  0  0  0.045008  0  0.985479  0  0  0.045473  0  0.984728  0  0  0.106426  0.044379  0  0.986429  0
H  H42  1  0.58356114  0.80113267  0.53837834  1  0  0.032322  0  0.927412  0  0  0.045018  0  0.98546  0  0  0.045482  0  0.984711  0  0  0.106444  0.044387  0  0.986409  0
H  H43  1  0.91643990  0.19886874  0.03837981  1  0  0.032315  0  0.927403  0  0  0.04501  0  0.985461  0  0  0.045475  0  0.98471  0  0  0.106423  0.044379  0  0.986412  0
H  H44  1  0.36665335  0.69164416  0.59707486  1  0  0.122723  0  0.963052  0  0  0.142446  0  1.024268  0  0  0.144742  0  1.022962  0  0  0.092143  0.140574  0  1.025412  0
H  H45  1  0.13334678  0.30835462  0.09707469  1  0  0.122723  0  0.963072  0  0  0.142437  0  1.024289  0  0  0.144732  0  1.022983  0  0  0.092148  0.140562  0  1.025436  0
H  H46  1  0.86665260  0.80835619  0.40292380  1  0  0.122717  0  0.96304  0  0  0.142442  0  1.024256  0  0  0.144738  0  1.022949  0  0  0.092124  0.140566  0  1.025405  0
H  H47  1  0.63334677  0.19164391  0.90292565  1  0  0.122736  0  0.963057  0  0  0.142446  0  1.024277  0  0  0.144741  0  1.022972  0  0  0.092142  0.140571  0  1.025424  0
H  H48  1  0.30026854  0.57803930  0.51642430  1  0  0.104925  0  0.965979  0  0  0.12558  0  1.028963  0  0  0.126693  0  1.028885  0  0  0.085163  0.124525  0  1.029214  0
H  H49  1  0.19972923  0.42196111  0.01642428  1  0  0.105008  0  0.9659  0  0  0.125631  0  1.028919  0  0  0.126743  0  1.02884  0  0  0.085181  0.124575  0  1.029171  0
H  H50  1  0.80026909  0.92196017  0.48357431  1  0  0.104928  0  0.966012  0  0  0.125575  0  1.029011  0  0  0.126686  0  1.028932  0  0  0.085154  0.124518  0  1.029262  0
H  H51  1  0.69973042  0.07804002  0.98357611  1  0  0.105021  0  0.965929  0  0  0.125642  0  1.028946  0  0  0.126753  0  1.028868  0  0  0.085181  0.124582  0  1.029201  0
H  H52  1  0.19588360  0.62109332  0.62549248  1  0  0.106996  0  0.985295  0  0  0.127628  0  1.049127  0  0  0.127587  0  1.051605  0  0  0.087301  0.127811  0  1.046778  0
H  H53  1  0.30411769  0.37890634  0.12549250  1  0  0.107007  0  0.985313  0  0  0.127641  0  1.049132  0  0  0.1276  0  1.051608  0  0  0.087309  0.127822  0  1.046786  0
H  H54  1  0.69588284  0.87890699  0.37450682  1  0  0.107029  0  0.985313  0  0  0.127679  0  1.04912  0  0  0.127638  0  1.051597  0  0  0.087311  0.127858  0  1.046773  0
H  H55  1  0.80411649  0.12109395  0.87450797  1  0  0.106979  0  0.985353  0  0  0.127639  0  1.049141  0  0  0.127598  0  1.051617  0  0  0.087303  0.12782  0  1.046795  0
H  H56  1  0.22982680  0.88620830  0.59531293  1  0  0.106182  0  0.966981  0  0  0.129753  0  1.025879  0  0  0.130772  0  1.02665  0  0  0.08867  0.128904  0  1.025365  0
H  H57  1  0.27017444  0.11379133  0.09531191  1  0  0.10618  0  0.967018  0  0  0.129756  0  1.025909  0  0  0.130777  0  1.02668  0  0  0.088661  0.128907  0  1.025395  0
H  H58  1  0.72982710  0.61379115  0.40468717  1  0  0.106176  0  0.966992  0  0  0.129749  0  1.025886  0  0  0.130769  0  1.026656  0  0  0.088662  0.128901  0  1.02537  0
H  H59  1  0.77017228  0.38620895  0.90468853  1  0  0.106192  0  0.966985  0  0  0.129764  0  1.025871  0  0  0.130785  0  1.02664  0  0  0.08866  0.128909  0  1.025362  0
H  H60  1  0.05378075  0.81961753  0.61926715  1  0  0.11689  0  0.955685  0  0  0.135287  0  1.020459  0  0  0.135963  0  1.022149  0  0  0.09159  0.134653  0  1.019648  0
H  H61  1  0.44622053  0.18038300  0.11926556  1  0  0.11691  0  0.955641  0  0  0.135312  0  1.020416  0  0  0.13599  0  1.022102  0  0  0.091586  0.134679  0  1.019605  0
H  H62  1  0.55377992  0.68038189  0.38073281  1  0  0.116905  0  0.95567  0  0  0.135297  0  1.020455  0  0  0.135974  0  1.022143  0  0  0.09159  0.134663  0  1.019644  0
H  H63  1  0.94621943  0.31961819  0.88073425  1  0  0.116909  0  0.955672  0  0  0.135307  0  1.020441  0  0  0.135984  0  1.022129  0  0  0.091588  0.134675  0  1.019627  0
H  H64  1  0.07711542  0.90801272  0.50928185  1  0  0.104129  0  0.967809  0  0  0.12324  0  1.034276  0  0  0.124228  0  1.035012  0  0  0.088352  0.122209  0  1.034193  0
H  H65  1  0.42288457  0.09198681  0.00928093  1  0  0.104126  0  0.967823  0  0  0.123232  0  1.034306  0  0  0.124221  0  1.03504  0  0  0.088344  0.122197  0  1.034228  0
H  H66  1  0.57711584  0.59198670  0.49071890  1  0  0.10414  0  0.967841  0  0  0.123248  0  1.034311  0  0  0.124237  0  1.035045  0  0  0.088338  0.122213  0  1.03423  0
H  H67  1  0.92288367  0.40801437  0.99071962  1  0  0.104162  0  0.96779  0  0  0.123264  0  1.034257  0  0  0.124254  0  1.03499  0  0  0.088353  0.122228  0  1.034181  0
C  C68  1  0.55644367  0.95417301  0.21214173  1  0  -0.142945  0  3.76446  0  0  -0.146938  0  4.011989  0  0  -0.154476  0  4.031228  0  0  -0.097066  -0.145504  0  3.999623  0
C  C69  1  0.94355541  0.04582774  0.71214137  1  0  -0.142835  0  3.764311  0  0  -0.146797  0  4.011835  0  0  -0.154332  0  4.031068  0  0  -0.097014  -0.145359  0  3.999467  0
C  C70  1  0.05644577  0.54582641  0.78785824  1  0  -0.142907  0  3.764374  0  0  -0.146896  0  4.011918  0  0  -0.154432  0  4.031151  0  0  -0.097041  -0.145459  0  3.999549  0
C  C71  1  0.44355466  0.45417258  0.28785843  1  0  -0.142872  0  3.764373  0  0  -0.146853  0  4.011903  0  0  -0.154389  0  4.031139  0  0  -0.097031  -0.145423  0  3.999536  0
C  C72  1  0.36117799  0.77820845  0.15148136  1  0  0.261308  0  3.800547  0  0  0.249195  0  4.063291  0  0  0.263765  0  4.081109  0  0  0.119604  0.240629  0  4.050241  0
C  C73  1  0.13882111  0.22179038  0.65147940  1  0  0.261242  0  3.800705  0  0  0.249136  0  4.063407  0  0  0.263704  0  4.081228  0  0  0.119558  0.240573  0  4.05035  0
C  C74  1  0.86118126  0.72179190  0.84851960  1  0  0.261255  0  3.800583  0  0  0.249138  0  4.063322  0  0  0.263706  0  4.081141  0  0  0.119557  0.240585  0  4.050262  0
C  C75  1  0.63882027  0.27820901  0.34851940  1  0  0.261319  0  3.800713  0  0  0.249227  0  4.063388  0  0  0.263797  0  4.081206  0  0  0.119603  0.240661  0  4.050341  0
C  C76  1  0.56804899  0.89675384  0.11861577  1  0  0.125021  0  3.773151  0  0  0.094315  0  4.023517  0  0  0.10247  0  4.04096  0  0  0.045064  0.091248  0  4.007963  0
C  C77  1  0.93194882  0.10324594  0.61861392  1  0  0.125004  0  3.773044  0  0  0.094263  0  4.023395  0  0  0.102434  0  4.040848  0  0  0.045029  0.0912  0  4.007839  0
C  C78  1  0.06805238  0.60324644  0.88138497  1  0  0.12499  0  3.773111  0  0  0.09425  0  4.023471  0  0  0.10242  0  4.040922  0  0  0.045021  0.091189  0  4.007916  0
C  C79  1  0.43194708  0.39675352  0.38138434  1  0  0.124988  0  3.773135  0  0  0.094263  0  4.0235  0  0  0.102418  0  4.040942  0  0  0.045026  0.091205  0  4.007939  0
C  C80  1  0.44230321  0.91985656  0.27833862  1  0  -0.006781  0  3.721437  0  0  -0.036712  0  3.96695  0  0  -0.029546  0  3.982262  0  0  -0.06436  -0.040393  0  3.959354  0
C  C81  1  0.05769608  0.08014415  0.77833724  1  0  -0.006861  0  3.721484  0  0  -0.036792  0  3.96699  0  0  -0.029622  0  3.982294  0  0  -0.064337  -0.040482  0  3.959397  0
C  C82  1  0.94230623  0.58014381  0.72166086  1  0  -0.006676  0  3.721358  0  0  -0.036626  0  3.966854  0  0  -0.029461  0  3.982163  0  0  -0.064314  -0.040305  0  3.959267  0
C  C83  1  0.55769510  0.41985609  0.22166150  1  0  -0.006751  0  3.721426  0  0  -0.036669  0  3.966928  0  0  -0.029497  0  3.98223  0  0  -0.064323  -0.040351  0  3.959336  0
C  C84  1  0.34353049  0.83273871  0.24908293  1  0  -0.163373  0  3.726316  0  0  -0.139257  0  3.964898  0  0  -0.152319  0  3.985648  0  0  -0.018291  -0.135236  0  3.954446  0
C  C85  1  0.15646988  0.16726110  0.74908170  1  0  -0.163299  0  3.726427  0  0  -0.139163  0  3.965023  0  0  -0.152218  0  3.98576  0  0  -0.018267  -0.13513  0  3.954554  0
C  C86  1  0.84353358  0.66726336  0.75091648  1  0  -0.16333  0  3.726326  0  0  -0.139231  0  3.964939  0  0  -0.15229  0  3.985678  0  0  -0.018277  -0.135222  0  3.954499  0
C  C87  1  0.65646779  0.33273829  0.25091788  1  0  -0.16339  0  3.726497  0  0  -0.139275  0  3.965089  0  0  -0.152336  0  3.985833  0  0  -0.018301  -0.135255  0  3.95464  0
C  C88  1  0.22383686  0.79760056  0.32233770  1  0  0.620035  0  3.805228  0  0  0.56321  0  4.107581  0  0  0.598501  0  4.097246  0  0  0.240708  0.539691  0  4.114894  0
C  C89  1  0.27616362  0.20239933  0.82233582  1  0  0.620018  0  3.805187  0  0  0.563134  0  4.10765  0  0  0.598423  0  4.097314  0  0  0.240672  0.539611  0  4.114962  0
C  C90  1  0.72383985  0.70239976  0.67766162  1  0  0.620028  0  3.805162  0  0  0.563249  0  4.107503  0  0  0.598546  0  4.09716  0  0  0.240727  0.53973  0  4.11482  0
C  C91  1  0.77616252  0.29760095  0.17766385  1  0  0.620058  0  3.805138  0  0  0.563215  0  4.107555  0  0  0.598507  0  4.097216  0  0  0.240717  0.539693  0  4.114872  0
C  C92  1  0.54484767  0.55165874  0.92446720  1  0  -0.628852  0  3.520722  0  0  -0.674749  0  3.770457  0  0  -0.688455  0  3.77865  0  0  -0.33925  -0.666211  0  3.7649  0
C  C93  1  0.95515397  0.44833966  0.42446816  1  0  -0.628733  0  3.520746  0  0  -0.67467  0  3.770466  0  0  -0.68837  0  3.778659  0  0  -0.339222  -0.666138  0  3.764911  0
C  C94  1  0.04484770  0.94833981  0.07553276  1  0  -0.628796  0  3.520746  0  0  -0.674708  0  3.770452  0  0  -0.688414  0  3.778644  0  0  -0.339239  -0.666174  0  3.7649  0
C  C95  1  0.45515351  0.05165807  0.57553241  1  0  -0.628791  0  3.52069  0  0  -0.674679  0  3.770419  0  0  -0.688382  0  3.778609  0  0  -0.339216  -0.666152  0  3.76487  0
C  C96  1  0.33332000  0.87180276  0.85208188  1  0  -0.620342  0  3.510187  0  0  -0.665152  0  3.755668  0  0  -0.679669  0  3.765444  0  0  -0.336472  -0.655321  0  3.748375  0
C  C97  1  0.16668053  0.12819544  0.35208157  1  0  -0.620483  0  3.510208  0  0  -0.665299  0  3.755693  0  0  -0.679818  0  3.765475  0  0  -0.33653  -0.655461  0  3.748395  0
C  C98  1  0.83331878  0.62819586  0.14791906  1  0  -0.620391  0  3.510262  0  0  -0.665206  0  3.75574  0  0  -0.67973  0  3.765533  0  0  -0.336494  -0.655374  0  3.748438  0
C  C99  1  0.66668131  0.37180309  0.64791879  1  0  -0.620433  0  3.510197  0  0  -0.665256  0  3.755663  0  0  -0.679783  0  3.765465  0  0  -0.33652  -0.655414  0  3.748358  0
C  C100  1  0.18056260  0.73916218  0.49883772  1  0  0.309397  0  3.56562  0  0  0.292062  0  3.82096  0  0  0.301462  0  3.82993  0  0  0.002236  0.285452  0  3.814938  0
C  C101  1  0.31943704  0.26083532  0.99883670  1  0  0.309355  0  3.565688  0  0  0.292046  0  3.821012  0  0  0.301445  0  3.82998  0  0  0.002269  0.285439  0  3.814982  0
C  C102  1  0.68056422  0.76083726  0.50116156  1  0  0.309372  0  3.5656  0  0  0.292098  0  3.820905  0  0  0.301497  0  3.829875  0  0  0.002233  0.285496  0  3.814872  0
C  C103  1  0.81943675  0.23916325  0.00116301  1  0  0.309381  0  3.56565  0  0  0.292077  0  3.820973  0  0  0.301476  0  3.829942  0  0  0.002299  0.285473  0  3.81494  0
C  C104  1  0.26664473  0.65269090  0.56277565  1  0  -0.359683  0  3.667438  0  0  -0.440195  0  3.90343  0  0  -0.443097  0  3.911905  0  0  -0.252233  -0.437336  0  3.897376  0
C  C105  1  0.23335534  0.34730870  0.06277482  1  0  -0.359816  0  3.667467  0  0  -0.44028  0  3.903436  0  0  -0.44319  0  3.911926  0  0  -0.252308  -0.437421  0  3.897385  0
C  C106  1  0.76664517  0.84730943  0.43722293  1  0  -0.359742  0  3.66749  0  0  -0.440273  0  3.903462  0  0  -0.443173  0  3.911933  0  0  -0.252241  -0.437413  0  3.89741  0
C  C107  1  0.73335426  0.15269071  0.93722482  1  0  -0.359822  0  3.667499  0  0  -0.440297  0  3.903448  0  0  -0.443207  0  3.911942  0  0  -0.252303  -0.437436  0  3.897396  0
C  C108  1  0.13299110  0.84493235  0.55899938  1  0  -0.362348  0  3.682848  0  0  -0.445886  0  3.925816  0  0  -0.449739  0  3.935965  0  0  -0.250348  -0.442944  0  3.919347  0
C  C109  1  0.36701008  0.15506638  0.05899771  1  0  -0.362349  0  3.682879  0  0  -0.445882  0  3.925815  0  0  -0.449737  0  3.935959  0  0  -0.250321  -0.442942  0  3.919349  0
C  C110  1  0.63299036  0.65506708  0.44100141  1  0  -0.362367  0  3.682916  0  0  -0.445889  0  3.92583  0  0  -0.449745  0  3.935977  0  0  -0.250316  -0.442954  0  3.919363  0
C  C111  1  0.86700908  0.34493393  0.94100281  1  0  -0.362418  0  3.682902  0  0  -0.445923  0  3.925796  0  0  -0.449775  0  3.935939  0  0  -0.250342  -0.442979  0  3.919337  0
S  S112  1  0.25123525  0.66462864  0.10924325  1  0  -0.529016  0  2.023849  0  0  -0.494498  0  2.353393  0  0  -0.514473  0  2.350486  0  0  -0.195051  -0.480272  0  2.35537  0
S  S113  1  0.24876266  0.33537187  0.60923994  1  0  -0.529035  0  2.023839  0  0  -0.494522  0  2.35337  0  0  -0.514501  0  2.350467  0  0  -0.195083  -0.480298  0  2.355345  0
S  S114  1  0.75123640  0.83537082  0.89075840  1  0  -0.529005  0  2.023858  0  0  -0.494472  0  2.353387  0  0  -0.51445  0  2.350487  0  0  -0.195046  -0.480254  0  2.355362  0
S  S115  1  0.74876407  0.16463013  0.39075818  1  0  -0.529078  0  2.023916  0  0  -0.494566  0  2.353439  0  0  -0.514544  0  2.350532  0  0  -0.195098  -0.48034  0  2.355416  0
N  N116  1  0.47489085  0.81240579  0.08918158  1  0  -0.382344  0  3.195426  0  0  -0.311206  0  3.44964  0  0  -0.329974  0  3.467711  0  0  -0.314062  -0.296553  0  3.43483  0
N  N117  1  0.02510815  0.18759297  0.58917950  1  0  -0.38234  0  3.195467  0  0  -0.311167  0  3.449648  0  0  -0.329932  0  3.467707  0  0  -0.313999  -0.296519  0  3.434842  0
N  N118  1  0.97489309  0.68759458  0.91081947  1  0  -0.382374  0  3.195439  0  0  -0.311198  0  3.449626  0  0  -0.329968  0  3.467694  0  0  -0.314033  -0.296555  0  3.43482  0
N  N119  1  0.52510742  0.31240553  0.41081922  1  0  -0.38236  0  3.195473  0  0  -0.311188  0  3.449638  0  0  -0.329956  0  3.467705  0  0  -0.31401  -0.296538  0  3.434828  0
O  O120  1  0.28273033  0.77534213  0.41563975  1  0  -0.356104  0  2.217492  0  0  -0.278857  0  2.445838  0  0  -0.302413  0  2.445172  0  0  -0.157369  -0.262735  0  2.445915  0
O  O121  1  0.21726919  0.22465787  0.91563708  1  0  -0.356007  0  2.217399  0  0  -0.278817  0  2.44585  0  0  -0.302369  0  2.445178  0  0  -0.157362  -0.2627  0  2.445931  0
O  O122  1  0.78273430  0.72465907  0.58436038  1  0  -0.35599  0  2.217422  0  0  -0.278878  0  2.445862  0  0  -0.30243  0  2.445182  0  0  -0.157364  -0.262757  0  2.445933  0
O  O123  1  0.71726681  0.27534240  0.08436178  1  0  -0.356044  0  2.21735  0  0  -0.278892  0  2.445814  0  0  -0.302444  0  2.44514  0  0  -0.157407  -0.262768  0  2.445887  0
O  O124  1  0.09002576  0.79080422  0.30222119  1  0  -0.549736  0  2.003229  0  0  -0.500624  0  2.22928  0  0  -0.522378  0  2.221301  0  0  -0.265875  -0.487097  0  2.234988  0
O  O125  1  0.40997357  0.20919651  0.80222019  1  0  -0.549745  0  2.003211  0  0  -0.500597  0  2.229284  0  0  -0.52235  0  2.221303  0  0  -0.265851  -0.487068  0  2.234988  0
O  O126  1  0.59002767  0.70919607  0.69777880  1  0  -0.549796  0  2.003135  0  0  -0.50068  0  2.229171  0  0  -0.522438  0  2.221188  0  0  -0.265911  -0.487152  0  2.234876  0
O  O127  1  0.90997362  0.29080467  0.19778036  1  0  -0.549732  0  2.003185  0  0  -0.500587  0  2.229229  0  0  -0.522342  0  2.221247  0  0  -0.265852  -0.487059  0  2.234934  0
