# generated using pymatgen
data_Cu2H32C39(N2O5)2
_symmetry_space_group_name_H-M   'P 1'
_cell_length_a   12.82188907
_cell_length_b   13.69719918
_cell_length_c   18.80437252
_cell_angle_alpha   103.99598631
_cell_angle_beta   99.88834009
_cell_angle_gamma   113.63495735
_symmetry_Int_Tables_number   1
_chemical_formula_structural   Cu2H32C39(N2O5)2
_chemical_formula_sum   'Cu4 H64 C78 N8 O20'
_cell_volume   2798.34221426
_cell_formula_units_Z   2
loop_
 _symmetry_equiv_pos_site_id
 _symmetry_equiv_pos_as_xyz
  1  'x, y, z'
loop_
 _atom_site_type_symbol
 _atom_site_label
 _atom_site_symmetry_multiplicity
 _atom_site_fract_x
 _atom_site_fract_y
 _atom_site_fract_z
 _atom_site_occupancy
 _atom_site_pbe_bader_charge
 _atom_site_pbe_bader_spin_density
 _atom_site_pbe_cm5_charge
 _atom_site_pbe_ddec_charge
 _atom_site_pbe_ddec_spin_density
 _atom_site_pbe_ddec_sum_bond_order
 _atom_site_pbe_magmom
Cu  Cu0  1  0.94713559  0.89157598  0.96875203  1  1.063617  -0.560085  0.687172  0.760409  -0.716748  2.421703  -0.557
Cu  Cu1  1  0.43601366  0.52568159  0.45427942  1  1.080452  0.556195  0.687012  0.771065  0.711889  2.414582  0.554
Cu  Cu2  1  0.05286417  0.10842213  0.03124734  1  1.06207  0.560088  0.687146  0.760277  0.716751  2.421926  0.557
Cu  Cu3  1  0.56398858  0.47432162  0.54572117  1  1.07746  -0.556192  0.687014  0.771134  -0.711886  2.414529  -0.554
H  H4  1  0.77545871  0.70220092  0.00571004  1  0.491115  3.7e-05  0.345871  0.284423  3.8e-05  0.907074  0.0
H  H5  1  0.74889543  0.38616813  0.56426303  1  0.485206  3.6e-05  0.35021  0.28576  3.8e-05  0.897951  0.0
H  H6  1  0.70170798  0.33985614  0.82691829  1  0.041089  4e-06  0.097539  0.093281  2e-06  0.97885  0.0
H  H7  1  0.85166555  0.39690713  0.82878247  1  0.054173  7e-06  0.097423  0.09432  4e-06  0.97479  0.0
H  H8  1  0.98869509  0.75466809  0.83481810  1  0.041467  3.9e-05  0.098829  0.149737  3.5e-05  1.021563  0.0
H  H9  1  0.98936889  0.62053694  0.80820328  1  0.016909  2.8e-05  0.08962  0.124852  1.2e-05  0.99619  0.0
H  H10  1  0.87182858  0.63649953  0.75642460  1  0.070024  2.6e-05  0.096869  0.141665  9e-06  0.992381  0.0
H  H11  1  0.59327787  0.48219974  0.97154800  1  0.041869  2.1e-05  0.094391  0.127554  9e-06  0.998428  0.0
H  H12  1  0.62632795  0.37421817  0.92452286  1  0.062442  8e-06  0.098883  0.136661  4e-06  1.009195  0.0
H  H13  1  0.71410246  0.46620006  0.01979719  1  0.046203  3.2e-05  0.097699  0.13543  1.6e-05  0.98233  0.0
H  H14  1  0.48983979  0.44852063  0.68965814  1  0.101746  5e-05  0.098145  0.150647  3.9e-05  1.0165  0.0
H  H15  1  0.52749441  0.40449172  0.76828520  1  0.017914  2.5e-05  0.090233  0.125584  9e-06  0.997383  0.0
H  H16  1  0.60949591  0.54683528  0.77431830  1  0.025869  1.2e-05  0.094183  0.134541  5e-06  1.005424  0.0
H  H17  1  0.94334272  0.38593334  0.64307326  1  0.064211  8e-06  0.097039  0.134216  1e-06  0.993472  0.0
H  H18  1  0.94939764  0.38230491  0.73745450  1  0.074766  1.7e-05  0.098299  0.134435  9e-06  0.998892  0.0
H  H19  1  0.85496437  0.25788689  0.65688609  1  0.078414  2.1e-05  0.097745  0.141813  1.1e-05  0.998621  0.0
H  H20  1  0.43386389  0.81485581  0.61475949  1  0.092113  0.000367  0.103371  0.107768  0.0003  0.998198  0.0
H  H21  1  0.69829451  0.76292620  0.39955852  1  0.089305  0.000238  0.111304  0.12064  0.000208  0.987493  0.0
H  H22  1  0.45899702  0.96992238  0.73040114  1  0.076566  -0.000199  0.107956  0.122408  -0.000106  0.985781  0.0
H  H23  1  0.87280725  0.90195846  0.37410115  1  0.075349  -0.000177  0.109929  0.125384  -9.3e-05  0.990191  0.0
H  H24  1  0.68413718  0.88333652  0.87322445  1  0.117922  0.000193  0.107588  0.136011  0.000101  1.024408  0.0
H  H25  1  0.10778997  0.82135988  0.51347416  1  0.09714  0.000187  0.107358  0.121712  0.000101  0.98736  0.0
H  H26  1  0.65777372  0.72942852  0.75831594  1  0.088085  -0.000296  0.110047  0.115347  -0.000254  1.001512  0.0
H  H27  1  0.93138014  0.68204669  0.53907073  1  0.096299  -0.000426  0.105121  0.110339  -0.000337  0.992499  0.0
H  H28  1  0.20992123  0.83304664  0.88465854  1  0.093395  -0.000291  0.106373  0.111245  -0.000246  1.003895  0.0
H  H29  1  0.16131096  0.15509358  0.27381514  1  0.121274  0.000326  0.110231  0.116522  0.000267  0.998924  0.0
H  H30  1  0.37945077  0.83395616  0.83621931  1  0.091349  0.000165  0.10469  0.118179  8.9e-05  1.007719  0.0
H  H31  1  0.18141390  0.13403486  0.40352754  1  0.084172  -0.000182  0.107136  0.126978  -9.7e-05  1.012218  0.0
H  H32  1  0.58694248  0.19199617  0.96302864  1  0.070115  -0.00019  0.105476  0.118476  -0.0001  0.998048  0.0
H  H33  1  0.98198789  0.77134452  0.29501068  1  0.049931  0.000186  0.10503  0.117046  9.7e-05  1.015623  0.0
H  H34  1  0.41448529  0.19061785  0.00995434  1  0.09032  0.000364  0.101411  0.103511  0.000288  1.002111  0.0
H  H35  1  0.96880738  0.79263352  0.16578235  1  0.088628  -0.000341  0.102188  0.107086  -0.000284  1.002239  0.0
H  H36  1  0.22454099  0.29779552  0.99428690  1  0.491033  -3.7e-05  0.345864  0.284512  -3.8e-05  0.907006  0.0
H  H37  1  0.25110077  0.61383085  0.43573506  1  0.485225  -3.6e-05  0.350221  0.285808  -3.8e-05  0.897905  0.0
H  H38  1  0.29828610  0.66013519  0.17307921  1  0.041207  -4e-06  0.097569  0.093269  -2e-06  0.978914  0.0
H  H39  1  0.14833014  0.60308590  0.17121499  1  0.05419  -7e-06  0.097412  0.094325  -4e-06  0.974775  0.0
H  H40  1  0.01130891  0.24532582  0.16517830  1  0.041211  -3.9e-05  0.0988  0.149688  -3.5e-05  1.021505  0.0
H  H41  1  0.01062346  0.37944760  0.19179278  1  0.017051  -2.8e-05  0.089622  0.124821  -1.2e-05  0.996178  0.0
H  H42  1  0.12816743  0.36348924  0.24357317  1  0.069884  -2.6e-05  0.096893  0.141626  -9e-06  0.992237  0.0
H  H43  1  0.40671916  0.51780094  0.02845049  1  0.041958  -2.1e-05  0.094412  0.127574  -9e-06  0.99844  0.0
H  H44  1  0.37366431  0.62578080  0.07547585  1  0.062442  -8e-06  0.098889  0.136704  -4e-06  1.009232  0.0
H  H45  1  0.28589015  0.53379635  0.98020162  1  0.04616  -3.2e-05  0.097703  0.135476  -1.6e-05  0.982434  0.0
H  H46  1  0.51015480  0.55147318  0.31034520  1  0.101593  -5e-05  0.098119  0.1506  -3.9e-05  1.016484  0.0
H  H47  1  0.47250570  0.59550211  0.23171714  1  0.017857  -2.5e-05  0.090258  0.125565  -9e-06  0.997308  0.0
H  H48  1  0.39050108  0.45316023  0.22568508  1  0.025767  -1.2e-05  0.09416  0.134507  -5e-06  1.005416  0.0
H  H49  1  0.05665551  0.61406820  0.35692499  1  0.064237  -8e-06  0.097016  0.134164  -1e-06  0.993518  0.0
H  H50  1  0.05059970  0.61769153  0.26254271  1  0.074767  -1.7e-05  0.098321  0.134495  -9e-06  0.998857  0.0
H  H51  1  0.14503460  0.74211297  0.34310980  1  0.078407  -2.1e-05  0.097723  0.141803  -1.1e-05  0.998661  0.0
H  H52  1  0.56614436  0.18514820  0.38524615  1  0.092049  -0.000367  0.103393  0.107746  -0.0003  0.99837  0.0
H  H53  1  0.30170300  0.23707873  0.60044027  1  0.089377  -0.000238  0.111255  0.120632  -0.000208  0.987617  0.0
H  H54  1  0.54100521  0.03007739  0.26960306  1  0.076635  0.000199  0.107961  0.122454  0.000106  0.985719  0.0
H  H55  1  0.12718910  0.09804903  0.62589639  1  0.075535  0.000177  0.109927  0.125358  9.3e-05  0.990205  0.0
H  H56  1  0.31587664  0.11667092  0.12677925  1  0.118208  -0.000193  0.10762  0.1361  -0.000101  1.024278  0.0
H  H57  1  0.89220358  0.17864506  0.48652368  1  0.097466  -0.000187  0.107329  0.12164  -0.000101  0.987362  0.0
H  H58  1  0.34224332  0.27058234  0.24168714  1  0.088294  0.000296  0.110032  0.115324  0.000254  1.001521  0.0
H  H59  1  0.06861497  0.31795653  0.46092855  1  0.096157  0.000426  0.105191  0.11038  0.000337  0.992448  0.0
H  H60  1  0.79008336  0.16695486  0.11534305  1  0.093335  0.000291  0.10633  0.111206  0.000246  1.00386  0.0
H  H61  1  0.83869355  0.84490627  0.72618188  1  0.121351  -0.000326  0.110211  0.116463  -0.000267  0.998985  0.0
H  H62  1  0.62055385  0.16604532  0.16378388  1  0.091328  -0.000165  0.10468  0.118214  -8.9e-05  1.007747  0.0
H  H63  1  0.81858739  0.86596158  0.59647010  1  0.084142  0.000182  0.10712  0.126966  9.7e-05  1.012205  0.0
H  H64  1  0.41305773  0.80800449  0.03697125  1  0.070149  0.00019  0.105453  0.118444  0.0001  0.998012  0.0
H  H65  1  0.01800400  0.22865528  0.70498868  1  0.049968  -0.000186  0.10505  0.116951  -9.7e-05  1.015517  0.0
H  H66  1  0.58551456  0.80938538  0.99004386  1  0.090062  -0.000364  0.101418  0.103521  -0.000288  1.002097  0.0
H  H67  1  0.03118443  0.20736289  0.83421637  1  0.088635  0.000341  0.102144  0.10704  0.000284  1.002357  0.0
C  C68  1  0.86420045  0.63071538  0.86862351  1  0.47266  0.000623  0.101129  0.212755  0.000389  3.992694  0.0
C  C69  1  0.79463180  0.52151118  0.87163107  1  -0.008882  -6.6e-05  -0.037975  -0.129871  -4.6e-05  3.982466  0.0
C  C70  1  0.74737186  0.54079180  0.93205679  1  0.401889  0.000432  0.087834  0.173865  0.000268  4.029118  0.0
C  C71  1  0.64745574  0.42776866  0.70020708  1  0.452023  0.000541  0.099486  0.212604  0.000332  3.992499  0.0
C  C72  1  0.73698861  0.40294441  0.73467908  1  0.046432  2e-06  -0.038824  -0.130747  -2e-06  3.986136  0.0
C  C73  1  0.79134371  0.38209142  0.67866022  1  0.369687  0.000348  0.090569  0.180445  0.000213  4.030929  0.0
C  C74  1  0.77176987  0.40983041  0.81689155  1  -0.002665  4.9e-05  -0.144054  -0.146188  3e-05  4.029372  0.0
C  C75  1  0.93251982  0.66257654  0.81412552  1  -0.018379  1.6e-05  -0.235442  -0.423528  2.2e-05  3.957467  0.0
C  C76  1  0.66642517  0.46215949  0.96373714  1  -0.051496  1.7e-05  -0.228346  -0.417054  1.6e-05  4.005049  0.0
C  C77  1  0.56357211  0.45839014  0.73476386  1  -0.022439  5e-06  -0.237663  -0.423553  1.7e-05  3.964669  0.0
C  C78  1  0.88960204  0.35051323  0.67873417  1  -0.128442  1.5e-05  -0.230869  -0.42437  1.1e-05  4.003422  0.0
C  C79  1  0.54277869  0.76164718  0.67974836  1  -0.042493  -0.000204  -0.023046  -0.047888  -0.000119  3.981551  0.0
C  C80  1  0.80394023  0.71212200  0.46917740  1  0.000862  -0.000139  -0.028084  -0.056448  -0.000121  3.992481  0.0
C  C81  1  0.48755145  0.83014884  0.67169500  1  -0.001753  -0.001016  -0.085762  -0.07597  -0.000626  3.996879  -0.001
C  C82  1  0.78807107  0.77516539  0.42333609  1  -0.025524  -0.000838  -0.078636  -0.06312  -0.000508  3.978116  -0.001
C  C83  1  0.50185520  0.91637028  0.73557063  1  -0.016008  -0.000599  -0.100856  -0.206357  -0.000437  4.018212  0.0
C  C84  1  0.88482817  0.85251971  0.40934648  1  0.028349  -0.000551  -0.103008  -0.208492  -0.000394  4.016181  0.0
C  C85  1  0.57185606  0.93374585  0.80772549  1  0.373632  -4.9e-05  0.084292  0.259919  -3e-05  4.043997  0.0
C  C86  1  0.99924108  0.86675883  0.44111964  1  0.362983  1.9e-05  0.088035  0.265008  1.5e-05  4.051997  0.0
C  C87  1  0.62878110  0.86780036  0.81681092  1  -0.006064  0.000643  -0.097107  -0.189758  0.000447  3.955078  0.001
C  C88  1  0.01734083  0.80707457  0.48865625  1  -0.057097  0.000523  -0.104996  -0.211071  0.000389  4.011389  0.0
C  C89  1  0.61379784  0.78176175  0.75245676  1  -0.017853  0.0008  -0.077065  -0.064739  0.000468  3.968325  0.001
C  C90  1  0.91947500  0.72986996  0.50250016  1  -0.012846  0.000932  -0.082624  -0.075841  0.00055  4.000919  0.001
C  C91  1  0.30053621  0.01190387  0.94919938  1  -0.029454  -0.000435  -0.029328  -0.054907  -0.000298  3.98551  0.0
C  C92  1  0.06419943  0.97492061  0.21182867  1  -0.025857  0.000143  -0.024988  -0.050148  0.000109  3.97951  0.0
C  C93  1  0.29219955  0.91170304  0.90089283  1  -0.02608  0.00076  -0.08232  -0.063426  0.000457  3.983174  0.001
C  C94  1  0.12421237  0.07117591  0.27874948  1  -0.015673  -0.000986  -0.074515  -0.057534  -0.000608  3.957601  -0.001
C  C95  1  0.38656654  0.91209662  0.87378807  1  -0.033738  0.000579  -0.108927  -0.22144  0.000423  4.021596  0.0
C  C96  1  0.13537649  0.06010011  0.35103882  1  -0.005372  -0.000595  -0.098312  -0.190949  -0.00043  3.967014  0.0
C  C97  1  0.49179092  0.01419863  0.89564924  1  0.404151  -0.000148  0.091164  0.27477  -9.6e-05  4.047466  0.0
C  C98  1  0.08383579  0.95194216  0.35606845  1  0.330189  -1.1e-05  0.087009  0.262256  -9e-06  4.048466  0.0
C  C99  1  0.50285573  0.11453495  0.94544172  1  0.013154  -0.000547  -0.105868  -0.210873  -0.000407  4.013551  0.0
C  C100  1  0.02293369  0.85490948  0.28983159  1  -0.017604  0.000582  -0.109036  -0.225736  0.000417  4.048801  0.0
C  C101  1  0.40738831  0.11303742  0.97157357  1  -0.041274  -0.001059  -0.086616  -0.075206  -0.000636  4.007183  -0.001
C  C102  1  0.01443941  0.86684786  0.21815820  1  0.029425  0.000908  -0.085495  -0.069407  0.000555  4.001112  0.001
C  C103  1  0.52619657  0.66751999  0.61171208  1  1.548743  -0.00047  0.21012  0.574791  -0.000451  4.172064  -0.001
C  C104  1  0.69725515  0.62939621  0.48253766  1  1.527571  0.001068  0.207876  0.57016  0.00095  4.186034  0.002
C  C105  1  0.04888569  0.98561438  0.13410788  1  1.541687  -0.00013  0.20968  0.571892  -9.2e-05  4.172707  0.0
C  C106  1  0.19568170  0.01023205  0.97406280  1  1.542939  -0.000135  0.208489  0.568813  -0.000255  4.180212  0.0
C  C107  1  0.13579966  0.36928018  0.13137597  1  0.472707  -0.000623  0.101154  0.212752  -0.000389  3.992574  0.0
C  C108  1  0.20536349  0.47848099  0.12836725  1  -0.008776  6.7e-05  -0.03796  -0.129891  4.6e-05  3.982204  0.0
C  C109  1  0.25262345  0.45920208  0.06794025  1  0.401859  -0.000432  0.087868  0.17399  -0.000268  4.02895  0.0
C  C110  1  0.35254164  0.57222773  0.29979385  1  0.452093  -0.000541  0.099469  0.212513  -0.000332  3.99253  0.0
C  C111  1  0.26301115  0.59705370  0.26532030  1  0.046287  -2e-06  -0.038781  -0.130706  2e-06  3.986209  0.0
C  C112  1  0.20865163  0.61790416  0.32133714  1  0.36992  -0.000348  0.090484  0.180376  -0.000213  4.030934  0.0
C  C113  1  0.22822434  0.59016599  0.18310850  1  -0.002657  -4.9e-05  -0.144085  -0.146174  -3e-05  4.029341  0.0
C  C114  1  0.06747825  0.33741649  0.18587220  1  -0.018141  -1.6e-05  -0.235455  -0.423388  -2.2e-05  3.957153  0.0
C  C115  1  0.33356785  0.53783778  0.03626134  1  -0.0515  -1.7e-05  -0.228353  -0.417175  -1.5e-05  4.005288  0.0
C  C116  1  0.43642409  0.54160538  0.26523944  1  -0.022409  -5e-06  -0.237601  -0.423379  -1.7e-05  3.964513  0.0
C  C117  1  0.11039334  0.64948577  0.32126171  1  -0.128527  -1.5e-05  -0.230835  -0.424365  -1.1e-05  4.0034  0.0
C  C118  1  0.45723511  0.23835854  0.32025662  1  -0.042389  0.000204  -0.023138  -0.048178  0.00012  3.981645  0.0
C  C119  1  0.19605647  0.28788295  0.53081971  1  0.000806  0.00014  -0.028088  -0.056436  0.000122  3.992313  0.0
C  C120  1  0.51245676  0.16985347  0.32830980  1  -0.001979  0.001015  -0.085748  -0.075743  0.000626  3.997044  0.001
C  C121  1  0.21192676  0.22483528  0.57666301  1  -0.025295  0.000838  -0.078577  -0.063183  0.000508  3.978178  0.001
C  C122  1  0.49815541  0.08363547  0.26443187  1  -0.01614  0.000599  -0.100806  -0.206468  0.000437  4.018362  0.0
C  C123  1  0.11516497  0.14748436  0.59065168  1  0.027867  0.000551  -0.103039  -0.208449  0.000394  4.016149  0.0
C  C124  1  0.42815098  0.06625731  0.19227934  1  0.373437  5e-05  0.084258  0.259975  3e-05  4.044088  0.0
C  C125  1  0.00075525  0.13324696  0.55887812  1  0.362986  -1.9e-05  0.087999  0.265044  -1.5e-05  4.051742  0.0
C  C126  1  0.37123156  0.13220792  0.18319334  1  -0.006284  -0.000643  -0.097088  -0.189872  -0.000447  3.955016  -0.001
C  C127  1  0.98265509  0.19293209  0.51133950  1  -0.05735  -0.000524  -0.104876  -0.210986  -0.00039  4.011253  0.0
C  C128  1  0.38621681  0.21824738  0.24754787  1  -0.017675  -0.000799  -0.077088  -0.064657  -0.000467  3.968214  -0.001
C  C129  1  0.08052213  0.27013583  0.49749822  1  -0.013121  -0.000932  -0.082676  -0.075786  -0.00055  4.000837  -0.001
C  C130  1  0.69946391  0.98809168  0.05080062  1  -0.030021  0.000434  -0.029272  -0.054823  0.000297  3.985506  0.0
C  C131  1  0.93579477  0.02507753  0.78816850  1  -0.025949  -0.000143  -0.024994  -0.050244  -0.000109  3.979508  0.0
C  C132  1  0.70780697  0.08829591  0.09910850  1  -0.025625  -0.000759  -0.08226  -0.063309  -0.000457  3.983061  -0.001
C  C133  1  0.87578979  0.92882391  0.72124941  1  -0.015864  0.000985  -0.074514  -0.057401  0.000608  3.957736  0.001
C  C134  1  0.61344127  0.08790656  0.12621525  1  -0.033778  -0.00058  -0.108911  -0.221578  -0.000423  4.021634  0.0
C  C135  1  0.86462127  0.93989717  0.64895965  1  -0.005372  0.000596  -0.098271  -0.190965  0.00043  3.967015  0.0
C  C136  1  0.50821818  0.98580878  0.10435607  1  0.40391  0.000149  0.091197  0.274898  9.6e-05  4.047296  0.0
C  C137  1  0.91616007  0.04805763  0.64393240  1  0.330181  1e-05  0.087021  0.262308  9e-06  4.048601  0.0
C  C138  1  0.49714613  0.88546739  0.05456080  1  0.013333  0.000547  -0.10583  -0.210843  0.000407  4.013461  0.0
C  C139  1  0.97705931  0.14508781  0.71016530  1  -0.017735  -0.000582  -0.109081  -0.225557  -0.000417  4.048764  0.0
C  C140  1  0.59261113  0.88696323  0.02842784  1  -0.040933  0.001059  -0.086701  -0.075252  0.000636  4.00729  0.001
C  C141  1  0.98555484  0.13315197  0.78183983  1  0.029717  -0.000908  -0.085448  -0.069395  -0.000555  4.001067  -0.001
C  C142  1  0.47381567  0.33248745  0.38829144  1  1.548911  0.000469  0.2102  0.574973  0.000451  4.172038  0.001
C  C143  1  0.30274073  0.37060703  0.51745958  1  1.526916  -0.001071  0.20774  0.570047  -0.000951  4.186082  -0.002
C  C144  1  0.95111366  0.01438288  0.86589130  1  1.541872  0.00013  0.209637  0.571846  9.2e-05  4.172859  0.0
C  C145  1  0.80432090  0.98976859  0.02593895  1  1.542921  0.000135  0.208433  0.56874  0.000255  4.180192  0.0
N  N146  1  0.85981329  0.71051171  0.92371519  1  -0.695157  0.001413  -0.263181  -0.228763  0.000646  3.41911  0.0
N  N147  1  0.78930912  0.65509675  0.96120960  1  -0.82184  0.000296  -0.291352  -0.152116  0.000159  3.736037  0.0
N  N148  1  0.64735337  0.42239325  0.62802433  1  -0.69074  0.001576  -0.263365  -0.238177  0.00075  3.413322  0.0
N  N149  1  0.73439864  0.39476720  0.61621686  1  -0.834838  0.000331  -0.288988  -0.152562  0.00019  3.739939  0.0
N  N150  1  0.14018519  0.28948217  0.07628273  1  -0.69526  -0.001412  -0.263113  -0.228597  -0.000645  3.419209  0.0
N  N151  1  0.21068937  0.34489712  0.03878886  1  -0.821849  -0.000296  -0.291498  -0.152463  -0.000159  3.73625  0.0
N  N152  1  0.35264566  0.57760654  0.37197687  1  -0.690404  -0.001576  -0.263328  -0.238043  -0.00075  3.413244  0.0
N  N153  1  0.26560039  0.60523431  0.38378253  1  -0.835085  -0.000331  -0.289003  -0.152644  -0.000191  3.739952  0.0
O  O154  1  0.45836284  0.65049543  0.54692555  1  -1.113384  0.086149  -0.32243  -0.530042  0.055723  2.333409  0.078
O  O155  1  0.59725250  0.62073757  0.44835624  1  -1.112824  0.077734  -0.314729  -0.533718  0.050524  2.414488  0.07
O  O156  1  0.71337854  0.57558989  0.52648126  1  -1.101194  -0.090274  -0.320959  -0.521191  -0.058409  2.311625  -0.081
O  O157  1  0.58152901  0.61115319  0.62455445  1  -1.110755  -0.084073  -0.311077  -0.517213  -0.054492  2.379026  -0.076
O  O158  1  0.10614516  0.91326299  0.95641981  1  -1.111065  -0.084826  -0.310502  -0.514524  -0.054846  2.371441  -0.077
O  O159  1  0.99269334  0.89322678  0.07646850  1  -1.113615  -0.085217  -0.321085  -0.532684  -0.055223  2.367706  -0.077
O  O160  1  0.20230727  0.10574478  0.01015528  1  -1.121201  0.084087  -0.319224  -0.540899  0.054553  2.35438  0.076
O  O161  1  0.09106693  0.08578920  0.13128776  1  -1.095341  0.088563  -0.307787  -0.51114  0.057259  2.372065  0.08
O  O162  1  0.58964037  0.02142520  0.87212060  1  -1.095332  -9.5e-05  -0.155946  -0.219854  -5.5e-05  2.538288  0.0
O  O163  1  0.09830806  0.94259455  0.42865291  1  -1.099349  2.2e-05  -0.157644  -0.224789  1.5e-05  2.540994  0.0
O  O164  1  0.54164783  0.34951200  0.45307886  1  -1.11293  -0.086153  -0.322408  -0.530044  -0.055725  2.33336  -0.078
O  O165  1  0.40274334  0.37926398  0.55164068  1  -1.112661  -0.07773  -0.31468  -0.533709  -0.050522  2.414507  -0.07
O  O166  1  0.28662102  0.42441756  0.47351982  1  -1.100761  0.090277  -0.320953  -0.521201  0.05841  2.311517  0.081
O  O167  1  0.41847441  0.38884742  0.37545004  1  -1.111413  0.084068  -0.311156  -0.517326  0.054488  2.379137  0.076
O  O168  1  0.89385903  0.08673766  0.04358211  1  -1.111076  0.08482  -0.310446  -0.514484  0.054843  2.371432  0.077
O  O169  1  0.00730288  0.10677219  0.92353065  1  -1.113579  0.085217  -0.321052  -0.532622  0.055222  2.367702  0.077
O  O170  1  0.79768770  0.89425165  0.98984273  1  -1.121169  -0.084094  -0.319257  -0.540967  -0.054557  2.354332  -0.076
O  O171  1  0.90893480  0.91420980  0.86870987  1  -1.09551  -0.088552  -0.307761  -0.511126  -0.057252  2.372178  -0.08
O  O172  1  0.41036667  0.97857797  0.12788423  1  -1.095018  9.5e-05  -0.155957  -0.219951  5.5e-05  2.538375  0.0
O  O173  1  0.90169026  0.05741036  0.57134703  1  -1.098898  -2.2e-05  -0.157658  -0.224904  -1.5e-05  2.540954  0.0
