# generated using pymatgen
data_MnH20C22(NO)4
_symmetry_space_group_name_H-M   'P 1'
_cell_length_a   11.99337429
_cell_length_b   11.99335585
_cell_length_c   16.40837716
_cell_angle_alpha   71.04000402
_cell_angle_beta   71.04031318
_cell_angle_gamma   75.72518314
_symmetry_Int_Tables_number   1
_chemical_formula_structural   MnH20C22(NO)4
_chemical_formula_sum   'Mn4 H80 C88 N16 O16'
_cell_volume   2084.64472552
_cell_formula_units_Z   4
loop_
 _symmetry_equiv_pos_site_id
 _symmetry_equiv_pos_as_xyz
  1  'x, y, z'
loop_
 _atom_site_type_symbol
 _atom_site_label
 _atom_site_symmetry_multiplicity
 _atom_site_fract_x
 _atom_site_fract_y
 _atom_site_fract_z
 _atom_site_occupancy
 _atom_site_pbe_bader_charge
 _atom_site_pbe_bader_spin_density
 _atom_site_pbe_cm5_charge
 _atom_site_pbe_ddec_charge
 _atom_site_pbe_ddec_spin_density
 _atom_site_pbe_ddec_sum_bond_order
 _atom_site_pbe_magmom
Mn  Mn0  1  0.82662574  0.60720458  0.54970854  1  1.508352  4.526009  0.614369  0.932706  4.659006  2.394597  4.448
Mn  Mn1  1  0.39279817  0.17337366  0.95029250  1  1.508375  4.52601  0.614356  0.932687  4.659019  2.39467  4.448
Mn  Mn2  1  0.17337316  0.39279992  0.45029220  1  1.508393  4.526018  0.614404  0.93276  4.659038  2.394539  4.448
Mn  Mn3  1  0.60720074  0.82662820  0.04970886  1  1.508383  4.526005  0.614387  0.932731  4.65903  2.394573  4.447
H  H4  1  0.48837842  0.16342325  0.74578645  1  0.10301  1.8e-05  0.109035  0.122539  -0.000219  1.04567  0.0
H  H5  1  0.83657632  0.51162482  0.75421279  1  0.102997  1.8e-05  0.109054  0.122546  -0.000219  1.045631  0.0
H  H6  1  0.51162407  0.83657719  0.25421075  1  0.102818  1.8e-05  0.109059  0.122579  -0.000218  1.045634  0.0
H  H7  1  0.16342617  0.48837562  0.24578807  1  0.103111  1.7e-05  0.109043  0.122508  -0.000218  1.045633  0.0
H  H8  1  0.43101417  0.18008680  0.53352515  1  0.498887  0.000318  0.299469  0.265242  -0.000147  1.004767  0.0
H  H9  1  0.81991489  0.56898606  0.96647478  1  0.498872  0.000318  0.2995  0.265256  -0.000147  1.004718  0.0
H  H10  1  0.56898298  0.81991357  0.46647516  1  0.498908  0.000318  0.299463  0.265251  -0.000147  1.004718  0.0
H  H11  1  0.18009028  0.43101309  0.03352452  1  0.498925  0.000318  0.299483  0.265254  -0.000147  1.004754  0.0
H  H12  1  0.66234178  0.79979381  0.78193393  1  0.117454  0.000517  0.100571  0.099548  -2.8e-05  1.080486  0.0
H  H13  1  0.20020660  0.33766499  0.71806837  1  0.117517  0.000517  0.100585  0.099558  -2.8e-05  1.080475  0.0
H  H14  1  0.33765537  0.20020567  0.21806841  1  0.117453  0.000517  0.100583  0.099587  -2.8e-05  1.080434  0.0
H  H15  1  0.79979590  0.66233634  0.28192862  1  0.117565  0.000517  0.100573  0.099545  -2.8e-05  1.080449  0.0
H  H16  1  0.55810607  0.98470584  0.53923587  1  0.07461  0.000477  0.102209  0.109994  0.000197  1.036109  0.0
H  H17  1  0.01529275  0.44189833  0.96076511  1  0.074721  0.000477  0.102252  0.110089  0.000196  1.036067  0.0
H  H18  1  0.44189023  0.01528760  0.46076628  1  0.074777  0.000477  0.10222  0.110031  0.000197  1.036082  0.0
H  H19  1  0.98471243  0.55809993  0.03923380  1  0.074811  0.000477  0.102234  0.110089  0.000196  1.036117  0.0
H  H20  1  0.36548728  0.27816982  0.68237487  1  0.114349  0.000458  0.107704  0.091215  1.1e-05  1.037513  0.0
H  H21  1  0.72183080  0.63451339  0.81762554  1  0.114333  0.000458  0.107696  0.091186  1.1e-05  1.03752  0.0
H  H22  1  0.63450987  0.72182967  0.31762442  1  0.114387  0.000458  0.107679  0.091177  1.1e-05  1.037579  0.0
H  H23  1  0.27817258  0.36548691  0.18237513  1  0.114346  0.000458  0.107679  0.091195  1.1e-05  1.037591  0.0
H  H24  1  0.34866470  0.35028429  0.57397392  1  0.083427  0.000663  0.12062  0.110673  0.000199  1.004583  0.0
H  H25  1  0.64971789  0.65133586  0.92602722  1  0.083423  0.000663  0.120633  0.110696  0.000199  1.004642  0.0
H  H26  1  0.65133779  0.64971615  0.42602571  1  0.083412  0.000663  0.120615  0.110683  0.000199  1.004549  0.0
H  H27  1  0.35028818  0.34866315  0.07397374  1  0.083355  0.000663  0.120629  0.110684  0.000199  1.004634  0.0
H  H28  1  0.64617923  0.28435676  0.50134398  1  0.112089  0.000548  0.103664  0.112774  0.000296  1.025222  0.0
H  H29  1  0.71564611  0.35381817  0.99865713  1  0.111797  0.000548  0.103645  0.11273  0.000296  1.025209  0.0
H  H30  1  0.35382150  0.71563953  0.49866010  1  0.111559  0.000548  0.103673  0.11278  0.000296  1.025231  0.0
H  H31  1  0.28435639  0.64618050  0.00134231  1  0.111801  0.000548  0.103666  0.112766  0.000296  1.025207  0.0
H  H32  1  0.39578740  0.47831730  0.68378803  1  0.11215  0.000682  0.110784  0.127057  0.000283  0.997737  0.0
H  H33  1  0.52168541  0.60421626  0.81621272  1  0.112103  0.000683  0.110775  0.127017  0.000283  0.9978  0.0
H  H34  1  0.60421690  0.52167756  0.31621798  1  0.112138  0.000683  0.110762  0.127066  0.000283  0.997621  0.0
H  H35  1  0.47831529  0.39578533  0.18378829  1  0.112107  0.000683  0.110783  0.127104  0.000283  0.997703  0.0
H  H36  1  0.79544595  0.40909452  0.48251278  1  0.099465  0.001547  0.116051  0.082188  0.000875  1.014442  0.001
H  H37  1  0.59090774  0.20455408  0.01748741  1  0.099673  0.001547  0.116046  0.082164  0.000875  1.014472  0.001
H  H38  1  0.20455388  0.59090366  0.51749167  1  0.099715  0.001547  0.116059  0.082167  0.000875  1.014393  0.001
H  H39  1  0.40909297  0.79544751  0.98251238  1  0.09967  0.001547  0.116043  0.082198  0.000875  1.014404  0.001
H  H40  1  0.55661107  0.59343620  0.65920290  1  0.088823  0.001137  0.117434  0.084299  0.000431  1.009007  0.001
H  H41  1  0.40656674  0.44339222  0.84079553  1  0.088883  0.001137  0.117445  0.084197  0.000431  1.009106  0.001
H  H42  1  0.44338876  0.40656287  0.34080013  1  0.089198  0.001137  0.117457  0.084288  0.000431  1.009042  0.001
H  H43  1  0.59343484  0.55661188  0.15920529  1  0.088825  0.001137  0.117428  0.084236  0.000431  1.009028  0.001
H  H44  1  0.10960223  0.89280953  0.55211526  1  0.125817  0.000543  0.115996  0.132879  0.000297  1.032825  0.0
H  H45  1  0.10719125  0.89039974  0.94788213  1  0.125792  0.000543  0.116012  0.132931  0.000297  1.032807  0.0
H  H46  1  0.89039670  0.10719145  0.44788387  1  0.125752  0.000543  0.116017  0.132896  0.000297  1.032852  0.0
H  H47  1  0.89280228  0.10960734  0.05211866  1  0.125775  0.000543  0.116057  0.132955  0.000297  1.032833  0.0
H  H48  1  0.23370914  0.97105950  0.40318847  1  0.111571  0.000179  0.104564  0.089209  8.1e-05  1.035153  0.0
H  H49  1  0.02894076  0.76628823  0.09680849  1  0.111498  0.000179  0.10456  0.089213  8.1e-05  1.035123  0.0
H  H50  1  0.76628890  0.02893985  0.59681064  1  0.111503  0.000179  0.104571  0.089226  8.1e-05  1.035121  0.0
H  H51  1  0.97105815  0.23371451  0.90319327  1  0.111508  0.000179  0.104565  0.089222  8.1e-05  1.035019  0.0
H  H52  1  0.14461427  0.96833015  0.28193507  1  0.06078  0.000525  0.096524  0.129158  0.000313  1.022746  0.0
H  H53  1  0.03167337  0.85537893  0.21806440  1  0.060878  0.000525  0.096518  0.129172  0.000313  1.02265  0.0
H  H54  1  0.85538017  0.03167326  0.71806759  1  0.06083  0.000524  0.096537  0.12918  0.000313  1.022729  0.0
H  H55  1  0.96832912  0.14462062  0.78193910  1  0.060722  0.000525  0.09651  0.129172  0.000313  1.022703  0.0
H  H56  1  0.10800131  0.82271082  0.34525161  1  0.04724  0.000203  0.096821  0.136513  -8.2e-05  1.002778  0.0
H  H57  1  0.17729421  0.89199025  0.15474869  1  0.047373  0.000203  0.096808  0.136531  -8.2e-05  1.002759  0.0
H  H58  1  0.89199223  0.17729450  0.65474898  1  0.047357  0.000203  0.09681  0.136534  -8.2e-05  1.002752  0.0
H  H59  1  0.82271008  0.10800726  0.84525426  1  0.047414  0.000203  0.096842  0.136572  -8.2e-05  1.002722  0.0
H  H60  1  0.25979002  0.84679057  0.29702647  1  0.100645  0.000587  0.104822  0.154496  0.000242  0.983494  0.0
H  H61  1  0.15320987  0.74020196  0.20297259  1  0.10054  0.000587  0.104823  0.154498  0.000242  0.983495  0.0
H  H62  1  0.74020445  0.15321020  0.70297133  1  0.100539  0.000586  0.10482  0.154503  0.000241  0.983578  0.0
H  H63  1  0.84678996  0.25979623  0.79702760  1  0.100571  0.000587  0.104792  0.154467  0.000242  0.983574  0.0
H  H64  1  0.82348664  0.82827101  0.83504465  1  0.102626  0.000157  0.107561  0.100723  -0.000319  1.013647  0.0
H  H65  1  0.17172590  0.17651596  0.66495298  1  0.102613  0.000157  0.107541  0.100702  -0.000319  1.01363  0.0
H  H66  1  0.17650960  0.17173214  0.16495399  1  0.102694  0.000157  0.107572  0.100742  -0.000319  1.013598  0.0
H  H67  1  0.82827304  0.82348237  0.33504677  1  0.102561  0.000157  0.107511  0.10067  -0.000319  1.013671  0.0
H  H68  1  0.89668084  0.74598342  0.70729196  1  0.121381  0.000118  0.113115  0.134665  -0.000265  1.024145  0.0
H  H69  1  0.25402180  0.10331578  0.79270600  1  0.121672  0.000118  0.113149  0.134719  -0.000265  1.024105  0.0
H  H70  1  0.10331185  0.25401498  0.29270926  1  0.121457  0.000118  0.113125  0.134669  -0.000265  1.024235  0.0
H  H71  1  0.74598699  0.89667665  0.20729221  1  0.121389  0.000118  0.113158  0.134683  -0.000265  1.024209  0.0
H  H72  1  0.95849336  0.75927779  0.93697301  1  0.097988  0.00011  0.097783  0.144334  -0.000238  1.016225  0.0
H  H73  1  0.24071463  0.04150700  0.56302656  1  0.115191  0.000109  0.097777  0.144366  -0.000238  1.016254  0.0
H  H74  1  0.04150291  0.24072094  0.06302667  1  0.097952  0.00011  0.097774  0.144341  -0.000238  1.016292  0.0
H  H75  1  0.75928162  0.95849526  0.43697107  1  0.098023  0.00011  0.097785  0.144351  -0.000238  1.016221  0.0
H  H76  1  0.98793416  0.90001294  0.86447319  1  0.017965  5.3e-05  0.091526  0.124329  1.6e-05  1.010108  0.0
H  H77  1  0.09998080  0.01207110  0.63552594  1  0.017865  5.3e-05  0.091536  0.12433  1.6e-05  1.010137  0.0
H  H78  1  0.01206834  0.09998661  0.13552543  1  0.017952  5.3e-05  0.091547  0.124351  1.6e-05  1.010072  0.0
H  H79  1  0.90001453  0.98793396  0.36447186  1  0.017934  5.3e-05  0.091515  0.124309  1.6e-05  1.010117  0.0
H  H80  1  0.08881187  0.76908849  0.84289055  1  0.058277  2.8e-05  0.093141  0.132947  3.2e-05  1.008514  0.0
H  H81  1  0.23090072  0.91118790  0.65710782  1  0.058096  2.8e-05  0.093136  0.132939  3.2e-05  1.008509  0.0
H  H82  1  0.91118353  0.23090686  0.15710648  1  0.058297  2.8e-05  0.093126  0.132953  3.2e-05  1.008562  0.0
H  H83  1  0.76909288  0.08881125  0.34288751  1  0.058211  2.8e-05  0.093141  0.132932  3.2e-05  1.008561  0.0
C  C84  1  0.52268403  0.08544642  0.71968844  1  -0.017624  0.007004  -0.096532  -0.21553  0.005376  3.914739  0.004
C  C85  1  0.91455456  0.47731997  0.78031047  1  -0.017657  0.007004  -0.096483  -0.215463  0.005376  3.91456  0.004
C  C86  1  0.47731668  0.91455341  0.28030993  1  -0.017427  0.007005  -0.096543  -0.215565  0.005376  3.914676  0.004
C  C87  1  0.08544616  0.52267897  0.21968994  1  -0.017653  0.007004  -0.096476  -0.215433  0.005376  3.914532  0.004
C  C88  1  0.61535047  0.88186208  0.65677416  1  -0.010837  -0.001085  -0.027604  -0.027313  -0.001951  4.045449  -0.002
C  C89  1  0.11813917  0.38465843  0.84322479  1  -0.010962  -0.001085  -0.027617  -0.02734  -0.001951  4.045342  -0.002
C  C90  1  0.38464847  0.11813625  0.34322621  1  -0.01086  -0.001085  -0.027545  -0.027252  -0.001951  4.045539  -0.002
C  C91  1  0.88186422  0.61534187  0.15677284  1  -0.010729  -0.001085  -0.02759  -0.027208  -0.001951  4.045385  -0.002
C  C92  1  0.67553040  0.77749793  0.61922783  1  1.533996  0.007221  0.201086  0.549321  0.008631  4.214164  0.005
C  C93  1  0.22250186  0.32448018  0.88077316  1  1.533997  0.007218  0.201077  0.549347  0.00863  4.214017  0.005
C  C94  1  0.32447300  0.22250060  0.38077387  1  1.533971  0.007221  0.201055  0.549291  0.00863  4.214204  0.005
C  C95  1  0.77750331  0.67552074  0.11922329  1  1.533837  0.007218  0.20111  0.549366  0.00863  4.21408  0.005
C  C96  1  0.62120209  0.87961063  0.74119310  1  -0.056576  0.008479  -0.099166  -0.150695  0.006199  3.978862  0.005
C  C97  1  0.12039048  0.37880411  0.75880774  1  -0.056627  0.008477  -0.099138  -0.150747  0.006197  3.978841  0.005
C  C98  1  0.37879505  0.12038973  0.25880964  1  -0.056613  0.008478  -0.099179  -0.150755  0.006198  3.978939  0.005
C  C99  1  0.87961113  0.62119558  0.24119045  1  -0.056681  0.008477  -0.099165  -0.150794  0.006197  3.978905  0.005
C  C100  1  0.51256034  0.08797896  0.63554931  1  0.431879  -0.000495  0.100723  0.237697  -0.000643  4.106642  -0.001
C  C101  1  0.91202126  0.48744499  0.86445128  1  0.431735  -0.000495  0.100611  0.237518  -0.000643  4.106802  -0.001
C  C102  1  0.48743949  0.91201924  0.36445027  1  0.431874  -0.000495  0.100693  0.237636  -0.000643  4.106718  -0.001
C  C103  1  0.08798124  0.51255456  0.13554979  1  0.432096  -0.000495  0.10065  0.237626  -0.000643  4.106748  -0.001
C  C104  1  0.56043502  0.98416897  0.60517570  1  -0.098133  0.00716  -0.097729  -0.212535  0.005498  3.935534  0.004
C  C105  1  0.01583228  0.43957153  0.89482353  1  -0.098069  0.007158  -0.097812  -0.212667  0.005497  3.935558  0.004
C  C106  1  0.43956214  0.01582875  0.39482401  1  -0.09817  0.00716  -0.097802  -0.212636  0.005498  3.935613  0.004
C  C107  1  0.98417290  0.56042761  0.10517516  1  -0.098588  0.007158  -0.097791  -0.212751  0.005497  3.935691  0.004
C  C108  1  0.57441827  0.98136006  0.77246527  1  -0.022592  0.001493  -0.024105  -0.033154  0.000327  4.026522  0.0
C  C109  1  0.01864008  0.42558475  0.72753509  1  -0.022397  0.001493  -0.024162  -0.033101  0.000327  4.026495  0.0
C  C110  1  0.42557976  0.01864105  0.22753465  1  -0.022594  0.001493  -0.024114  -0.033134  0.000327  4.026532  0.0
C  C111  1  0.98135796  0.57441548  0.27246443  1  -0.022489  0.001494  -0.024156  -0.033148  0.000328  4.026503  0.0
C  C112  1  0.57904934  0.97863355  0.86355287  1  1.549448  0.030636  0.22671  0.595128  0.02995  4.15844  0.026
C  C113  1  0.02136698  0.42095142  0.63644794  1  1.549456  0.030633  0.226651  0.595044  0.029947  4.158699  0.026
C  C114  1  0.42095048  0.02136729  0.13644730  1  1.549456  0.030635  0.226654  0.595047  0.02995  4.158628  0.026
C  C115  1  0.97863282  0.57905119  0.36355242  1  1.549412  0.030634  0.226692  0.595091  0.029947  4.158555  0.026
C  C116  1  0.41406782  0.29638733  0.61088864  1  0.321928  0.00049  -0.057765  -0.082898  0.000346  3.938999  0.0
C  C117  1  0.70361374  0.58593420  0.88911262  1  0.321827  0.00049  -0.057824  -0.082901  0.000346  3.939105  0.0
C  C118  1  0.58593201  0.70361175  0.38911012  1  0.321921  0.00049  -0.057767  -0.082881  0.000346  3.939012  0.0
C  C119  1  0.29638965  0.41406609  0.11088927  1  0.321947  0.00049  -0.057747  -0.082863  0.000346  3.938936  0.0
C  C120  1  0.50901477  0.36905073  0.59606679  1  -0.027601  0.005798  0.014342  0.147204  0.004353  3.915189  0.004
C  C121  1  0.63095161  0.49098388  0.90393439  1  -0.027563  0.005797  0.01435  0.147172  0.004353  3.915251  0.004
C  C122  1  0.49098327  0.63094950  0.40393578  1  -0.02761  0.005798  0.014295  0.147142  0.004354  3.915398  0.004
C  C123  1  0.36905178  0.50901641  0.09606628  1  -0.027575  0.005797  0.014343  0.147204  0.004353  3.915281  0.004
C  C124  1  0.62293220  0.35085354  0.53864703  1  -0.007112  1e-06  -0.086541  -0.181986  -0.000485  3.954928  0.0
C  C125  1  0.64914809  0.37706783  0.96135239  1  -0.006535  1e-06  -0.086526  -0.181919  -0.000485  3.955014  0.0
C  C126  1  0.37706942  0.64914438  0.46135584  1  -0.006654  1e-06  -0.086578  -0.182051  -0.000485  3.955107  0.0
C  C127  1  0.35085440  0.62293261  0.03864664  1  -0.006849  1e-06  -0.086539  -0.181972  -0.000485  3.954977  0.0
C  C128  1  0.48409342  0.45863230  0.63977775  1  -0.084131  6.5e-05  -0.080499  -0.176763  -0.000516  3.934202  0.0
C  C129  1  0.54137127  0.51590684  0.86022257  1  -0.08387  6.5e-05  -0.080487  -0.176747  -0.000516  3.934295  0.0
C  C130  1  0.51590552  0.54136514  0.36022648  1  -0.083978  6.5e-05  -0.080433  -0.17673  -0.000516  3.93415  0.0
C  C131  1  0.45863211  0.48409434  0.13977790  1  -0.084138  6.5e-05  -0.080499  -0.176874  -0.000516  3.934277  0.0
C  C132  1  0.70666530  0.41995324  0.52815896  1  0.442944  0.007648  0.048575  0.101474  0.00617  3.94344  0.005
C  C133  1  0.58004923  0.29333490  0.97184085  1  0.44266  0.007648  0.048574  0.101468  0.00617  3.943561  0.005
C  C134  1  0.29333632  0.58004468  0.47184331  1  0.442434  0.007651  0.048636  0.101577  0.006171  3.943354  0.005
C  C135  1  0.41995326  0.70666553  0.02815878  1  0.443033  0.007647  0.048583  0.101453  0.00617  3.943477  0.005
C  C136  1  0.57291515  0.52355225  0.62590861  1  0.492116  0.006832  0.05056  0.099214  0.005357  3.955328  0.005
C  C137  1  0.47644990  0.42708770  0.87409025  1  0.491715  0.006832  0.050599  0.099417  0.005356  3.955444  0.005
C  C138  1  0.42708646  0.47644567  0.37409305  1  0.491644  0.006832  0.050526  0.099194  0.005357  3.955351  0.005
C  C139  1  0.52355169  0.57291464  0.12590915  1  0.492027  0.006831  0.050569  0.099314  0.005357  3.955272  0.005
C  C140  1  0.10312426  0.87088439  0.49461277  1  0.05459  -0.002162  -0.090544  -0.229106  -0.002149  4.069293  -0.002
C  C141  1  0.12911635  0.89687603  0.00538638  1  0.055031  -0.002162  -0.090581  -0.229266  -0.002149  4.069251  -0.002
C  C142  1  0.89687734  0.12911618  0.50538643  1  0.054813  -0.002162  -0.090558  -0.229204  -0.002148  4.069186  -0.002
C  C143  1  0.87087807  0.10313091  0.99461606  1  0.054856  -0.002162  -0.090628  -0.229367  -0.002149  4.069505  -0.002
C  C144  1  0.02119886  0.79357996  0.51232038  1  0.808187  0.023049  0.220759  0.343448  0.017925  4.013608  0.019
C  C145  1  0.20642156  0.97879991  0.98767943  1  0.808006  0.023045  0.220862  0.343653  0.01792  4.013541  0.019
C  C146  1  0.97880006  0.20642189  0.48768037  1  0.808146  0.023039  0.2209  0.343608  0.017916  4.013609  0.019
C  C147  1  0.79357555  0.02120574  0.01232207  1  0.808193  0.023047  0.220903  0.343705  0.017923  4.013372  0.019
C  C148  1  0.17173679  0.91258226  0.41141747  1  -0.000586  0.009756  -0.043058  0.088821  0.007756  3.879299  0.006
C  C149  1  0.08741812  0.82826100  0.08858058  1  -0.000641  0.009755  -0.043058  0.088865  0.007754  3.879236  0.006
C  C150  1  0.82826304  0.08741681  0.58858190  1  -0.000718  0.009753  -0.043055  0.088869  0.007753  3.879125  0.006
C  C151  1  0.91257900  0.17174200  0.91142215  1  -0.000488  0.009756  -0.043064  0.088893  0.007755  3.879009  0.006
C  C152  1  0.16976370  0.88494628  0.33037461  1  -0.078197  0.000229  -0.239749  -0.400808  0.000131  3.984091  0.0
C  C153  1  0.11505526  0.83022640  0.16962503  1  -0.078147  0.000229  -0.239694  -0.400856  0.000131  3.984033  0.0
C  C154  1  0.83022719  0.11505591  0.66962736  1  -0.078223  0.000229  -0.239754  -0.400911  0.000131  3.984182  0.0
C  C155  1  0.88494636  0.16977064  0.83037622  1  -0.078042  0.000229  -0.239685  -0.400839  0.000131  3.983956  0.0
C  C156  1  0.91934835  0.79735422  0.81290489  1  -0.055792  0.000125  -0.057662  0.061954  7.8e-05  3.887227  0.0
C  C157  1  0.20264589  0.08064871  0.68709290  1  -0.055759  0.000125  -0.057613  0.062048  7.8e-05  3.887171  0.0
C  C158  1  0.08064521  0.20264934  0.18709368  1  -0.055765  0.000125  -0.057707  0.061977  7.8e-05  3.887277  0.0
C  C159  1  0.79735575  0.91934657  0.31290694  1  -0.055992  0.000125  -0.05766  0.061898  7.8e-05  3.887283  0.0
C  C160  1  0.95866781  0.75211162  0.74135428  1  0.100487  0.000124  -0.092733  -0.214474  0.000102  4.060515  0.0
C  C161  1  0.24789270  0.04132916  0.75864329  1  0.100291  0.000124  -0.092778  -0.214621  0.000102  4.060684  0.0
C  C162  1  0.04132932  0.24789052  0.25864440  1  0.100534  0.000124  -0.092719  -0.214531  0.000102  4.06058  0.0
C  C163  1  0.75211252  0.95866470  0.24135543  1  0.100651  0.000124  -0.092755  -0.214439  0.000102  4.060587  0.0
C  C164  1  0.99444997  0.80589923  0.86637280  1  -0.073664  0.000147  -0.241894  -0.383644  7.6e-05  3.964407  0.0
C  C165  1  0.19409444  0.00555090  0.63362634  1  -0.090729  0.000147  -0.24189  -0.38372  7.6e-05  3.964532  0.0
C  C166  1  0.00554807  0.19410100  0.13362489  1  -0.07376  0.000147  -0.241891  -0.383729  7.6e-05  3.96456  0.0
C  C167  1  0.80590182  0.99444872  0.36637191  1  -0.073717  0.000147  -0.241845  -0.383563  7.6e-05  3.96452  0.0
C  C168  1  0.08043892  0.70622239  0.70778866  1  0.780037  9.3e-05  0.175895  0.292686  4.5e-05  4.081983  0.0
C  C169  1  0.29377799  0.91955919  0.79220695  1  0.780077  9.3e-05  0.175909  0.292723  4.5e-05  4.081884  0.0
C  C170  1  0.91955020  0.29377654  0.29221205  1  0.780013  9.3e-05  0.175947  0.292789  4.5e-05  4.081993  0.0
C  C171  1  0.70622543  0.08043582  0.20778948  1  0.780147  9.3e-05  0.17589  0.292592  4.5e-05  4.082165  0.0
N  N172  1  0.45939869  0.18752867  0.58365556  1  -1.259261  3.7e-05  -0.443158  -0.332824  -0.000194  3.601163  0.0
N  N173  1  0.81247245  0.54060514  0.91634491  1  -1.259135  3.7e-05  -0.443053  -0.332656  -0.000193  3.601226  0.0
N  N174  1  0.54060202  0.81247292  0.41634240  1  -1.259252  3.7e-05  -0.443094  -0.332766  -0.000194  3.601118  0.0
N  N175  1  0.18753004  0.45939529  0.08365655  1  -1.259312  3.7e-05  -0.443096  -0.332737  -0.000193  3.601106  0.0
N  N176  1  0.68333356  0.50468254  0.57145089  1  -1.248136  0.052573  -0.32563  -0.263415  0.035239  3.520936  0.018
N  N177  1  0.49531999  0.31666780  0.92854846  1  -1.248304  0.052567  -0.325683  -0.263507  0.035241  3.521023  0.018
N  N178  1  0.31666627  0.49531565  0.42855174  1  -1.247864  0.052576  -0.325661  -0.263385  0.035241  3.520896  0.018
N  N179  1  0.50468160  0.68333365  0.07145115  1  -1.248443  0.052575  -0.325651  -0.263428  0.035241  3.520923  0.018
N  N180  1  0.95350952  0.72963273  0.52725331  1  -1.233089  0.039783  -0.292973  -0.376436  0.025829  3.059283  0.005
N  N181  1  0.27036708  0.04648842  0.97274573  1  -1.233077  0.039784  -0.293088  -0.376608  0.025834  3.05937  0.005
N  N182  1  0.04648404  0.27036994  0.47274608  1  -1.23309  0.039784  -0.293131  -0.376584  0.025835  3.059411  0.005
N  N183  1  0.72963184  0.95351255  0.02725645  1  -1.233237  0.039782  -0.293147  -0.376663  0.025833  3.059138  0.005
N  N184  1  0.18062606  0.67049344  0.67733115  1  -1.177435  0.000191  -0.316891  -0.399089  3.7e-05  2.738765  0.0
N  N185  1  0.32950227  0.81937080  0.82266304  1  -1.177533  0.000191  -0.316931  -0.39908  3.7e-05  2.73851  0.0
N  N186  1  0.81936939  0.32949485  0.32266632  1  -1.177552  0.000191  -0.316928  -0.399121  3.7e-05  2.739039  0.0
N  N187  1  0.67050115  0.18062510  0.17733257  1  -1.177451  0.000191  -0.316895  -0.399003  3.7e-05  2.738849  0.0
O  O188  1  0.72907607  0.68577830  0.66631344  1  -1.193763  0.05341  -0.311595  -0.558242  0.03829  2.247046  0.029
O  O189  1  0.31422516  0.27094003  0.83368746  1  -1.193645  0.053416  -0.311562  -0.558161  0.038285  2.246845  0.029
O  O190  1  0.27093442  0.31422532  0.33368843  1  -1.193678  0.053412  -0.311567  -0.558177  0.038284  2.246996  0.029
O  O191  1  0.68577914  0.72905837  0.16630796  1  -1.193585  0.053418  -0.311582  -0.558213  0.038285  2.246993  0.029
O  O192  1  0.67800421  0.78286654  0.53953665  1  -1.202565  0.046689  -0.308052  -0.565194  0.034442  2.229048  0.027
O  O193  1  0.21712998  0.32200089  0.96046641  1  -1.202743  0.046685  -0.3081  -0.565248  0.034439  2.229021  0.027
O  O194  1  0.32199475  0.21712826  0.46046698  1  -1.202636  0.046684  -0.308066  -0.565204  0.034439  2.229025  0.027
O  O195  1  0.78287518  0.67800179  0.03952901  1  -1.202816  0.046683  -0.308115  -0.565247  0.034436  2.229014  0.027
O  O196  1  0.61916270  0.87873683  0.91156839  1  -1.205116  0.080477  -0.30771  -0.555697  0.056981  2.34144  0.04
O  O197  1  0.12126400  0.38083940  0.58843349  1  -1.205141  0.080478  -0.307637  -0.55563  0.056981  2.341473  0.04
O  O198  1  0.38083979  0.12126448  0.08843164  1  -1.205161  0.080481  -0.307672  -0.555676  0.056982  2.341524  0.04
O  O199  1  0.87873669  0.61916395  0.41156588  1  -1.205145  0.080477  -0.307696  -0.555674  0.056981  2.341482  0.04
O  O200  1  0.54436719  0.07473936  0.88830598  1  -1.22038  0.079365  -0.3208  -0.574595  0.055811  2.374266  0.036
O  O201  1  0.92526333  0.45563255  0.61169359  1  -1.220346  0.079361  -0.320797  -0.574603  0.055809  2.374422  0.036
O  O202  1  0.45563173  0.92526249  0.11169417  1  -1.220345  0.079363  -0.320775  -0.574542  0.055813  2.374334  0.036
O  O203  1  0.07473913  0.54437318  0.38830541  1  -1.220284  0.079359  -0.320811  -0.574602  0.055811  2.374286  0.036
