# generated using pymatgen
data_CuH7C7NO6
_symmetry_space_group_name_H-M   'P 1'
_cell_length_a   6.50281834
_cell_length_b   7.17364102
_cell_length_c   18.71687626
_cell_angle_alpha   89.99270418
_cell_angle_beta   90.00545122
_cell_angle_gamma   105.21149831
_symmetry_Int_Tables_number   1
_chemical_formula_structural   CuH7C7NO6
_chemical_formula_sum   'Cu4 H28 C28 N4 O24'
_cell_volume   842.53058279
_cell_formula_units_Z   4
loop_
 _symmetry_equiv_pos_site_id
 _symmetry_equiv_pos_as_xyz
  1  'x, y, z'
loop_
 _atom_site_type_symbol
 _atom_site_label
 _atom_site_symmetry_multiplicity
 _atom_site_fract_x
 _atom_site_fract_y
 _atom_site_fract_z
 _atom_site_occupancy
 _atom_site_hle17_ddec_charge
 _atom_site_hle17_ddec_spin_density
 _atom_site_hle17_ddec_sum_bond_order
 _atom_site_hle17_magmom
 _atom_site_hse06_10hf_bader_charge
 _atom_site_hse06_10hf_bader_spin_density
 _atom_site_hse06_10hf_ddec_charge
 _atom_site_hse06_10hf_ddec_spin_density
 _atom_site_hse06_10hf_ddec_sum_bond_order
 _atom_site_hse06_10hf_magmom
 _atom_site_hse06_ddec_charge
 _atom_site_hse06_ddec_spin_density
 _atom_site_hse06_ddec_sum_bond_order
 _atom_site_hse06_magmom
 _atom_site_pbe_cm5_charge
 _atom_site_pbe_ddec_charge
 _atom_site_pbe_ddec_spin_density
 _atom_site_pbe_ddec_sum_bond_order
 _atom_site_pbe_magmom
Cu  Cu0  1  0.63510860  0.26491421  0.31113898  1  0.959806  0.728694  1.719474  0.536  1.173936  0.659738  0.955765  0.813054  2.095719  0.656  1.041079  0.878748  2.034203  0.741  0.73894  0.897722  0.763528  2.145121  0.597
Cu  Cu1  1  0.86473330  0.73510216  0.81126483  1  0.959716  -0.787338  1.719047  -0.531  1.171593  -0.658362  0.955179  -0.861219  2.095901  -0.654  1.040669  -0.941993  2.034116  -0.741  0.738974  0.897077  -0.79468  2.145096  -0.591
Cu  Cu2  1  0.36468601  0.73509750  0.68872299  1  0.959622  0.722648  1.719113  0.531  1.171656  0.658332  0.955095  0.811091  2.096041  0.654  1.040591  0.878201  2.034166  0.741  0.739045  0.897085  0.755727  2.14508  0.591
Cu  Cu3  1  0.13510623  0.26495518  0.18884237  1  0.959648  0.728381  1.71919  0.535  1.173638  0.659568  0.955282  0.812876  2.095848  0.656  1.040943  0.878648  2.03392  0.741  0.738719  0.897347  0.763164  2.145033  0.597
H  H4  1  0.12873618  0.86484507  0.48374324  1  0.13759  0.001029  0.959107  0.001  0.18527  0.001514  0.140424  0.000855  1.0272  0.001  0.144706  0.000555  1.024487  0.001  0.115707  0.137147  0.001116  1.029355  0.001
H  H5  1  0.37150698  0.13497463  0.98379343  1  0.137429  -0.000941  0.959251  -0.001  0.184033  -0.001392  0.140416  -0.000738  1.027114  -0.001  0.144741  -0.00051  1.024318  -0.001  0.115507  0.137079  -0.0009  1.029365  -0.001
H  H6  1  0.87142786  0.13504825  0.51621276  1  0.137366  0.001032  0.959367  0.001  0.184112  0.001516  0.140362  0.000856  1.027157  0.001  0.144738  0.000555  1.024303  0.001  0.115561  0.137015  0.001121  1.029427  0.001
H  H7  1  0.62865894  0.86506387  0.01626301  1  0.137592  0.000847  0.958778  0.001  0.184596  0.001388  0.14046  0.000682  1.026771  0.001  0.144839  0.000469  1.023906  0.001  0.115594  0.137102  0.000835  1.029037  0.001
H  H8  1  0.31587670  0.60084091  0.48727414  1  0.113924  0.000201  0.934162  0.0  0.129894  -9.1e-05  0.125005  -4.2e-05  0.989603  0.0  0.127803  -3.6e-05  0.987709  0.0  0.113226  0.122717  -3.5e-05  0.991464  0.0
H  H9  1  0.18448493  0.39916449  0.98735614  1  0.11351  -0.000202  0.933878  0.0  0.12976  0.00011  0.124621  6.5e-05  0.989275  0.0  0.127403  5.4e-05  0.987387  0.0  0.113308  0.12235  6.5e-05  0.99114  0.0
H  H10  1  0.68444671  0.39921951  0.51263645  1  0.113745  0.000196  0.933664  0.0  0.129442  -9.7e-05  0.124825  -4.7e-05  0.989137  0.0  0.127617  -3.9e-05  0.987225  0.0  0.113338  0.122547  -4.4e-05  0.990999  0.0
H  H11  1  0.81576895  0.60101912  0.01271046  1  0.113761  0.000167  0.934376  0.0  0.131077  -0.000103  0.124864  -7.5e-05  0.989855  0.0  0.127641  -6.4e-05  0.987976  0.0  0.11316  0.1226  -7.3e-05  0.991702  0.0
H  H12  1  0.64271240  0.62820864  0.41109721  1  0.133281  0.000945  0.97037  0.001  0.192275  0.001413  0.138161  0.000737  1.036724  0.001  0.140986  0.000469  1.035139  0.001  0.114463  0.135851  0.000964  1.03815  0.001
H  H13  1  0.85753645  0.37184222  0.91116955  1  0.132987  -0.001015  0.970808  -0.001  0.19241  -0.001414  0.138048  -0.000793  1.03703  -0.001  0.140861  -0.000509  1.035482  -0.001  0.114555  0.135768  -0.001027  1.038413  -0.001
H  H14  1  0.35754258  0.37191399  0.58880430  1  0.133203  0.000943  0.970593  0.001  0.191855  0.001413  0.138248  0.000743  1.036906  0.001  0.141059  0.000472  1.035344  0.001  0.114725  0.135963  0.000973  1.038303  0.001
H  H15  1  0.14265202  0.62829898  0.08888850  1  0.133542  0.000936  0.970394  0.001  0.192815  0.001417  0.1384  0.000742  1.036698  0.001  0.141233  0.000472  1.035106  0.001  0.114617  0.136096  0.000968  1.038097  0.001
H  H16  1  0.78189191  0.60632180  0.26390501  1  0.42494  -1.8e-05  0.87692  -0.001  0.665818  -1.9e-05  0.400038  0.000372  0.932185  0.0  0.411598  0.000202  0.915954  0.0  0.296537  0.391929  0.000525  0.943543  0.0
H  H17  1  0.71804081  0.39379333  0.76400172  1  0.424622  -6.1e-05  0.877456  0.001  0.666554  1.3e-05  0.399731  -0.000417  0.932726  0.0  0.411257  -0.000245  0.91653  0.0  0.296426  0.39162  -0.000566  0.944089  0.0
H  H18  1  0.21804821  0.39381221  0.73599488  1  0.424757  -2e-05  0.87728  -0.001  0.666788  -1.4e-05  0.399937  0.000375  0.932399  0.0  0.411451  0.000209  0.916223  0.0  0.296572  0.391829  0.000524  0.943758  0.0
H  H19  1  0.28184889  0.60628200  0.23612044  1  0.42502  -1.8e-05  0.876913  -0.001  0.664196  -1.9e-05  0.400164  0.00037  0.9321  0.0  0.411713  0.000201  0.915879  0.0  0.296644  0.392066  0.000523  0.943448  0.0
H  H20  1  0.76803473  0.44565552  0.20143409  1  0.426102  -0.000407  0.880972  -0.001  0.675161  -0.000296  0.39856  0.000146  0.93989  0.0  0.411262  7e-06  0.921898  0.0  0.295011  0.389645  0.000258  0.952549  0.0
H  H21  1  0.73184026  0.55440554  0.70152925  1  0.425815  9.8e-05  0.881342  0.001  0.676356  0.000119  0.398267  -0.000197  0.94024  0.0  0.410933  -0.000122  0.922308  0.0  0.295072  0.389406  -0.000246  0.952798  0.0
H  H22  1  0.23187686  0.55439623  0.79844764  1  0.426016  -0.00017  0.881128  -0.001  0.676766  -0.000119  0.39846  0.000159  0.940015  0.0  0.411115  8.9e-05  0.922094  0.0  0.295215  0.389605  0.000207  0.952569  0.0
H  H23  1  0.26799920  0.44564164  0.29856726  1  0.426086  -0.000405  0.881089  -0.001  0.675855  -0.000295  0.398551  0.000145  0.939978  0.0  0.411231  7e-06  0.922017  0.0  0.295059  0.389658  0.000258  0.952604  0.0
H  H24  1  0.97616263  0.38540160  0.40650144  1  0.416738  -0.000114  0.890173  0.0  0.641737  -8.3e-05  0.385776  -5e-05  0.9555  0.0  0.398071  -5e-05  0.937602  0.0  0.282941  0.37718  -2.5e-05  0.967974  0.0
H  H25  1  0.52353542  0.61413605  0.90655545  1  0.416667  0.000119  0.890306  0.0  0.642512  8.1e-05  0.385602  6.8e-05  0.955747  0.0  0.397881  6.5e-05  0.937863  0.0  0.283034  0.376999  5.1e-05  0.968236  0.0
H  H26  1  0.02348132  0.61414804  0.59343319  1  0.416535  -0.000125  0.890456  0.0  0.642349  -8e-05  0.385402  -6.7e-05  0.955964  0.0  0.397687  -6.4e-05  0.938087  0.0  0.283022  0.376797  -4.7e-05  0.968454  0.0
H  H27  1  0.47618058  0.38556187  0.09352504  1  0.416774  -0.000119  0.890211  0.0  0.642201  -8.5e-05  0.385795  -5.8e-05  0.955512  0.0  0.398068  -5.7e-05  0.937641  0.0  0.283058  0.377203  -3.5e-05  0.96798  0.0
H  H28  1  0.95240723  0.57437565  0.36638878  1  0.412282  0.000185  0.866035  0.0  0.62159  0.000119  0.38835  0.000192  0.935001  0.0  0.39834  0.000118  0.920357  0.0  0.29608  0.381281  0.000284  0.945323  0.0
H  H29  1  0.54755634  0.42518740  0.86649181  1  0.412551  -3.3e-05  0.866133  0.0  0.622214  3.1e-05  0.388402  2.5e-05  0.935219  0.0  0.398399  3.9e-05  0.920568  0.0  0.295951  0.381279  -1.2e-05  0.945634  0.0
H  H30  1  0.04753042  0.42516879  0.63349243  1  0.41251  1.6e-05  0.866068  0.0  0.621954  -3.1e-05  0.388325  -3.6e-05  0.935291  0.0  0.398324  -4.5e-05  0.920637  0.0  0.295928  0.381208  -1e-06  0.945697  0.0
H  H31  1  0.45237535  0.57450669  0.13364051  1  0.412273  0.000187  0.866515  0.0  0.622332  0.00012  0.388327  0.000193  0.935149  0.0  0.398329  0.000119  0.92049  0.0  0.296023  0.381254  0.000286  0.945481  0.0
C  C32  1  0.26738516  0.20594332  0.40031232  1  0.626006  -0.00197  3.878334  -0.003  1.65138  0.000271  0.572153  0.001002  4.182651  0.001  0.607895  0.00088  4.175586  0.001  0.222983  0.547735  0.001131  4.18647  0.0
C  C33  1  0.23252961  0.79394624  0.90033700  1  0.626979  0.001377  3.877949  0.002  1.65037  -0.000336  0.573001  -0.0013  4.182486  -0.001  0.608739  -0.001155  4.175418  -0.001  0.223114  0.548559  -0.001412  4.18628  0.0
C  C34  1  0.73248182  0.79397413  0.59965971  1  0.626492  -0.00187  3.877605  -0.002  1.651052  0.000327  0.572475  0.001067  4.18227  0.001  0.608217  0.000936  4.175202  0.001  0.222892  0.548036  0.00119  4.186078  0.0
C  C35  1  0.76739958  0.20608774  0.09967563  1  0.626785  -0.001947  3.876743  -0.003  1.647988  0.000267  0.57262  0.001006  4.181455  0.001  0.608379  0.000892  4.174388  0.001  0.223049  0.548189  0.00113  4.185285  0.0
C  C36  1  0.35468273  0.03286499  0.40888296  1  0.102126  -0.00736  3.746994  -0.008  0.41136  -0.00226  0.10605  -0.000939  3.994132  -0.002  0.109367  -0.002095  4.013076  -0.003  0.116449  0.103422  -0.000111  3.982008  -0.001
C  C37  1  0.14539000  0.96708472  0.90894872  1  0.101738  0.006402  3.74702  0.008  0.414713  0.002322  0.105685  0.000624  3.994164  0.002  0.109021  0.001724  4.013125  0.003  0.116555  0.103027  -0.000154  3.982039  0.001
C  C38  1  0.64534292  0.96711791  0.59105541  1  0.102159  -0.007404  3.746867  -0.008  0.412396  -0.002332  0.105937  -0.000993  3.994232  -0.002  0.109264  -0.002123  4.013201  -0.003  0.116716  0.103291  -0.000179  3.982118  -0.001
C  C39  1  0.85469985  0.03301612  0.09111895  1  0.102253  -0.007364  3.746429  -0.008  0.411447  -0.002243  0.106101  -0.000911  3.993629  -0.002  0.109408  -0.002089  4.012619  -0.003  0.1168  0.103456  -7.1e-05  3.981501  -0.001
C  C40  1  0.27094049  0.87243788  0.45185487  1  -0.088187  0.00949  3.639605  0.01  0.025729  0.005451  -0.113054  0.003701  3.890474  0.004  -0.116563  0.003554  3.908034  0.004  -0.063568  -0.110763  0.00389  3.879526  0.004
C  C41  1  0.22924875  0.12746577  0.95191155  1  -0.088565  -0.010145  3.640233  -0.009  -0.009419  -0.005163  -0.113606  -0.003761  3.891002  -0.004  -0.117135  -0.003766  3.908577  -0.004  -0.063973  -0.111263  -0.003772  3.880085  -0.004
C  C42  1  0.72917908  0.12750560  0.54808884  1  -0.08847  0.009502  3.640324  0.01  -0.007376  0.005468  -0.113363  0.003705  3.890997  0.004  -0.116929  0.003569  3.908534  0.004  -0.06395  -0.111025  0.003867  3.8801  0.004
C  C43  1  0.77091568  0.87264246  0.04815291  1  -0.088941  0.009332  3.63984  0.009  0.026129  0.005148  -0.113586  0.003533  3.890527  0.004  -0.117141  0.003498  3.90806  0.004  -0.06406  -0.111236  0.003594  3.87962  0.004
C  C44  1  0.37684871  0.72626370  0.45309487  1  0.002896  -0.011294  3.640582  -0.01  0.006483  -0.00489  -0.014967  -0.00327  3.893885  -0.003  -0.011856  -0.003618  3.908958  -0.003  -0.059857  -0.017893  -0.003056  3.885074  -0.003
C  C45  1  0.12346551  0.27375938  0.95317143  1  0.00369  0.010568  3.639171  0.01  0.039302  0.005122  -0.014058  0.003212  3.892416  0.003  -0.010918  0.003494  3.907471  0.004  -0.059543  -0.017014  0.003045  3.883632  0.003
C  C46  1  0.62341198  0.27379782  0.54682053  1  0.003833  -0.011433  3.639257  -0.01  0.03826  -0.005097  -0.013886  -0.003431  3.892533  -0.003  -0.010741  -0.003744  3.907589  -0.003  -0.059453  -0.016842  -0.003234  3.883754  -0.003
C  C47  1  0.87673220  0.72639183  0.04690852  1  0.003816  -0.011345  3.640221  -0.01  0.005367  -0.004932  -0.014287  -0.003264  3.893604  -0.003  -0.011149  -0.003633  3.90867  -0.003  -0.059385  -0.01725  -0.003039  3.884823  -0.003
C  C48  1  0.55795946  0.74032651  0.41082382  1  -0.076741  0.008962  3.624012  0.009  -0.016987  0.005078  -0.10158  0.003431  3.872299  0.003  -0.103891  0.003407  3.889366  0.004  -0.06295  -0.100224  0.003454  3.862011  0.003
C  C49  1  0.94234684  0.25976117  0.91089102  1  -0.076733  -0.00998  3.623029  -0.009  -0.012862  -0.005159  -0.101834  -0.003669  3.871472  -0.004  -0.104154  -0.003707  3.888485  -0.004  -0.06312  -0.100481  -0.003656  3.8612  -0.003
C  C50  1  0.44229602  0.25977287  0.58910226  1  -0.077345  0.008939  3.62366  0.009  -0.011862  0.004991  -0.102673  0.003347  3.872196  0.003  -0.104978  0.003344  3.889182  0.004  -0.063451  -0.101315  0.003368  3.861927  0.003
C  C51  1  0.05786995  0.74043181  0.08919053  1  -0.077937  0.009224  3.624479  0.009  -0.015123  0.00525  -0.102696  0.003545  3.872853  0.004  -0.105014  0.003528  3.889859  0.004  -0.063439  -0.101332  0.003561  3.862592  0.003
C  C52  1  0.62820112  0.90226637  0.36730945  1  0.109186  -0.007697  3.705429  -0.008  0.478442  -0.002446  0.113638  -0.001126  3.94914  -0.002  0.117523  -0.002287  3.966229  -0.004  0.11867  0.110174  -0.000186  3.938897  -0.001
C  C53  1  0.87194335  0.09780587  0.86741384  1  0.109425  0.007074  3.705166  0.008  0.474201  0.002821  0.11367  0.001094  3.949195  0.002  0.117617  0.002154  3.966217  0.004  0.118553  0.110205  0.000283  3.938935  0.001
C  C54  1  0.37189622  0.09781403  0.63258297  1  0.109333  -0.007932  3.705861  -0.008  0.474424  -0.002772  0.113953  -0.001385  3.949441  -0.002  0.117915  -0.002477  3.966412  -0.004  0.118623  0.110483  -0.00054  3.939207  -0.001
C  C55  1  0.12815722  0.90232963  0.13269603  1  0.11023  -0.007836  3.705882  -0.008  0.476786  -0.002482  0.114701  -0.001162  3.949346  -0.002  0.11865  -0.002347  3.966356  -0.004  0.119092  0.111206  -0.000208  3.939134  -0.001
C  C56  1  0.80985835  0.94235157  0.31415883  1  0.634845  -0.003576  3.86801  -0.005  1.654366  -0.00011  0.589304  0.00102  4.176415  0.0  0.626967  0.000911  4.167238  0.001  0.217602  0.563463  0.001149  4.181018  0.0
C  C57  1  0.69021778  0.05772805  0.81427323  1  0.634597  0.002713  3.869656  0.005  1.656753  -0.000133  0.589253  -0.001352  4.17768  0.0  0.6269  -0.001195  4.168461  -0.001  0.217625  0.563399  -0.001481  4.182416  0.0
C  C58  1  0.19021343  0.05773073  0.68571810  1  0.63476  -0.003358  3.869059  -0.005  1.656382  0.00012  0.589304  0.001097  4.177156  0.0  0.626934  0.000967  4.167941  0.001  0.217647  0.563455  0.001232  4.181899  0.0
C  C59  1  0.30981910  0.94236065  0.18583290  1  0.634422  -0.003585  3.86824  -0.005  1.654729  -0.000119  0.588922  0.001013  4.176587  0.0  0.626559  0.000908  4.167443  0.001  0.217426  0.563093  0.00114  4.181182  0.0
N  N60  1  0.52783320  0.04284828  0.36897713  1  -0.314848  0.100945  3.452799  0.129  -1.259839  0.102602  -0.282855  0.065976  3.73709  0.089  -0.313049  0.053146  3.760309  0.075  -0.357035  -0.264928  0.072405  3.724234  0.094
N  N61  1  0.97219837  0.95715579  0.86906617  1  -0.314308  -0.110126  3.452196  -0.129  -1.258043  -0.102816  -0.282377  -0.070156  3.736702  -0.089  -0.312691  -0.057284  3.75998  -0.076  -0.356763  -0.264241  -0.07623  3.723668  -0.094
N  N62  1  0.47214599  0.95714853  0.63093453  1  -0.314577  0.100918  3.452696  0.129  -1.257828  0.102637  -0.282713  0.065884  3.737274  0.089  -0.313006  0.053118  3.760477  0.075  -0.356975  -0.264619  0.072362  3.724258  0.094
N  N63  1  0.02787295  0.04298459  0.13102607  1  -0.315224  0.101143  3.452935  0.129  -1.259487  0.102788  -0.283167  0.066105  3.737267  0.089  -0.313439  0.053298  3.76046  0.075  -0.357274  -0.265224  0.072488  3.724415  0.094
O  O64  1  0.37699897  0.33742074  0.35764295  1  -0.619924  0.067433  2.105551  0.092  -1.162062  0.074999  -0.576891  0.047536  2.369375  0.071  -0.618559  0.035582  2.362386  0.056  -0.308242  -0.548261  0.055373  2.374069  0.079
O  O65  1  0.12288265  0.66264984  0.85761872  1  -0.620203  -0.073969  2.105074  -0.092  -1.162109  -0.075081  -0.577283  -0.050871  2.369226  -0.071  -0.619088  -0.038827  2.362374  -0.056  -0.308347  -0.548466  -0.058423  2.373737  -0.078
O  O66  1  0.62284291  0.66262932  0.64238410  1  -0.620061  0.067818  2.104841  0.092  -1.162328  0.075119  -0.577029  0.047816  2.368924  0.071  -0.618869  0.036001  2.362103  0.056  -0.308223  -0.54824  0.055544  2.373427  0.078
O  O67  1  0.87698295  0.33754647  0.14237307  1  -0.620378  0.067477  2.104935  0.092  -1.160515  0.075088  -0.577026  0.047588  2.368686  0.071  -0.618843  0.035628  2.361783  0.056  -0.308308  -0.548391  0.0554  2.373388  0.079
O  O68  1  0.10296029  0.21625879  0.43270104  1  -0.560229  0.013402  1.97923  0.017  -1.189473  0.01173  -0.507211  0.007311  2.196827  0.01  -0.534428  0.00339  2.189526  0.005  -0.282121  -0.487626  0.011678  2.200979  0.015
O  O69  1  0.39685263  0.78338098  0.93272725  1  -0.560238  -0.014676  1.978975  -0.017  -1.189005  -0.011553  -0.507321  -0.007666  2.196617  -0.01  -0.534571  -0.003586  2.189377  -0.005  -0.281996  -0.487634  -0.012187  2.200715  -0.015
O  O70  1  0.89678921  0.78341822  0.56727045  1  -0.559982  0.013559  1.979107  0.017  -1.188585  0.011774  -0.507005  0.007329  2.196805  0.01  -0.534207  0.003396  2.189534  0.005  -0.281893  -0.487346  0.011754  2.200917  0.016
O  O71  1  0.60297092  0.21648060  0.06731050  1  -0.560205  0.013215  1.979129  0.017  -1.188736  0.011505  -0.507103  0.007152  2.196863  0.01  -0.534256  0.003276  2.189475  0.005  -0.281924  -0.487548  0.011472  2.201083  0.015
O  O72  1  0.84749573  0.10890237  0.28338303  1  -0.600823  0.08775  2.046352  0.122  -1.142851  0.084432  -0.60147  0.053047  2.356904  0.08  -0.644488  0.037644  2.345623  0.061  -0.31051  -0.570352  0.064949  2.363818  0.094
O  O73  1  0.65261509  0.89124336  0.78350136  1  -0.601752  -0.094953  2.047203  -0.118  -1.143047  -0.083164  -0.601693  -0.055863  2.357207  -0.077  -0.644578  -0.040747  2.345858  -0.059  -0.310967  -0.570969  -0.066608  2.36435  -0.089
O  O74  1  0.15256013  0.89121798  0.71649977  1  -0.601666  0.087125  2.046504  0.118  -1.142928  0.083259  -0.601658  0.052517  2.356627  0.077  -0.644558  0.037776  2.345269  0.059  -0.310936  -0.570914  0.063346  2.363717  0.089
O  O75  1  0.34752615  0.10889432  0.21660904  1  -0.600831  0.087899  2.046132  0.122  -1.142716  0.084563  -0.601322  0.053137  2.356442  0.08  -0.64439  0.037699  2.345162  0.061  -0.310467  -0.570199  0.065044  2.363323  0.094
O  O76  1  0.91092391  0.81826995  0.30223254  1  -0.586665  0.018536  1.939088  0.024  -1.212227  0.013705  -0.538962  0.008482  2.151138  0.012  -0.566771  0.003797  2.142991  0.006  -0.305032  -0.518445  0.013785  2.15555  0.018
O  O77  1  0.58910431  0.18177031  0.80234991  1  -0.586093  -0.020667  1.939815  -0.024  -1.212847  -0.013658  -0.538544  -0.008979  2.151707  -0.012  -0.566356  -0.004105  2.143547  -0.006  -0.30484  -0.517896  -0.014577  2.156095  -0.018
O  O78  1  0.08911342  0.18176069  0.69763850  1  -0.58611  0.018935  1.939523  0.024  -1.212728  0.013663  -0.538572  0.008432  2.151414  0.012  -0.566421  0.00379  2.143366  0.006  -0.304871  -0.517907  0.013853  2.155755  0.018
O  O79  1  0.41092416  0.81833597  0.19776904  1  -0.586371  0.018562  1.938892  0.024  -1.21201  0.013725  -0.538762  0.008494  2.150924  0.012  -0.566568  0.003798  2.142792  0.006  -0.304902  -0.518242  0.013803  2.155318  0.018
O  O80  1  0.69255245  0.48228812  0.24386801  1  -0.804681  0.045175  1.967582  0.059  -1.268265  0.048697  -0.765013  0.031201  2.177407  0.043  -0.795105  0.025079  2.139372  0.036  -0.586413  -0.743917  0.034939  2.20407  0.046
O  O81  1  0.80728485  0.51775591  0.74394015  1  -0.803976  -0.04921  1.968159  -0.058  -1.270013  -0.048744  -0.764115  -0.033373  2.177684  -0.043  -0.794149  -0.027393  2.139721  -0.036  -0.586287  -0.742998  -0.036742  2.204267  -0.045
O  O82  1  0.30725893  0.51771311  0.75606074  1  -0.804111  0.045016  1.968141  0.058  -1.270629  0.048709  -0.764257  0.031336  2.177747  0.043  -0.794274  0.025376  2.139755  0.036  -0.586444  -0.743175  0.034889  2.204304  0.045
O  O83  1  0.19257122  0.48235488  0.25616918  1  -0.804798  0.04505  1.967708  0.059  -1.267515  0.048604  -0.765033  0.03114  2.17741  0.043  -0.795165  0.02503  2.139378  0.036  -0.58643  -0.744005  0.034857  2.204056  0.046
O  O84  1  0.87365672  0.46221746  0.39375807  1  -0.847476  0.00033  1.874208  0.002  -1.26178  0.000436  -0.811204  0.000345  2.069919  0.002  -0.830901  -0.000136  2.033632  0.001  -0.592876  -0.795821  0.001152  2.095065  0.002
O  O85  1  0.62611359  0.53736168  0.89388859  1  -0.848136  0.000415  1.873818  -0.001  -1.263432  0.000127  -0.811276  -6.4e-05  2.069133  -0.001  -0.831022  0.000229  2.032966  -0.001  -0.593052  -0.796039  -0.000242  2.094383  -0.001
O  O86  1  0.12606787  0.53736416  0.60609428  1  -0.848003  -0.000521  1.873702  0.001  -1.26319  -0.000134  -0.811081  -2.9e-05  2.069512  0.001  -0.830841  -0.000323  2.033291  0.001  -0.593046  -0.795858  0.000163  2.094735  0.001
O  O87  1  0.37366387  0.46234095  0.10627150  1  -0.847397  0.000293  1.874546  0.002  -1.262995  0.000428  -0.811079  0.000334  2.070005  0.002  -0.83086  -0.000144  2.033826  0.001  -0.592887  -0.795719  0.001137  2.095146  0.002
