# generated using pymatgen
data_CuH24(C6N)4
_symmetry_space_group_name_H-M   'P 1'
_cell_length_a   13.32187355
_cell_length_b   12.95586918
_cell_length_c   21.07792871
_cell_angle_alpha   80.38402827
_cell_angle_beta   70.90808724
_cell_angle_gamma   59.04680531
_symmetry_Int_Tables_number   1
_chemical_formula_structural   CuH24(C6N)4
_chemical_formula_sum   'Cu4 H96 C96 N16'
_cell_volume   2948.27131826
_cell_formula_units_Z   4
loop_
 _symmetry_equiv_pos_site_id
 _symmetry_equiv_pos_as_xyz
  1  'x, y, z'
loop_
 _atom_site_type_symbol
 _atom_site_label
 _atom_site_symmetry_multiplicity
 _atom_site_fract_x
 _atom_site_fract_y
 _atom_site_fract_z
 _atom_site_occupancy
 _atom_site_pbe_bader_charge
 _atom_site_pbe_bader_spin_density
 _atom_site_pbe_cm5_charge
 _atom_site_pbe_ddec_charge
 _atom_site_pbe_ddec_spin_density
 _atom_site_pbe_ddec_sum_bond_order
 _atom_site_pbe_magmom
Cu  Cu0  1  0.50304837  0.49419719  0.49518042  1  0.602671  0.008598  0.511267  0.245657  0.000421  2.210497  -0.004
Cu  Cu1  1  0.99626312  0.50814553  0.99611755  1  0.60271  0.008787  0.511585  0.244376  0.000845  2.213137  -0.004
Cu  Cu2  1  0.00053372  0.99541353  0.99400109  1  0.592466  0.011731  0.502745  0.231432  0.00403  2.244889  -0.002
Cu  Cu3  1  0.00304909  0.99514491  0.51131883  1  0.593461  0.011759  0.504533  0.234162  0.004874  2.245811  -0.001
H  H4  1  0.49254494  0.69707757  0.64114584  1  0.051346  0.000299  0.106625  0.071666  0.00016  0.98016  0.0
H  H5  1  0.66189138  0.62913211  0.69150025  1  0.045941  0.000414  0.102307  0.107345  0.000303  1.000484  0.0
H  H6  1  0.77506909  0.26346856  0.64993396  1  0.073823  0.000867  0.100369  0.113554  0.000908  1.026074  0.0
H  H7  1  0.60103744  0.34695334  0.60099294  1  0.06924  0.001379  0.102988  0.062703  0.00149  1.022844  0.0
H  H8  1  0.86670841  0.45828911  0.69866685  1  0.035659  0.00046  0.094355  0.09264  0.000221  0.993854  0.0
H  H9  1  0.90404454  0.30707184  0.69372890  1  0.056363  0.003262  0.090348  0.086303  0.003149  1.013566  0.0
H  H10  1  0.86490825  0.20884674  0.07299963  1  0.068587  0.001681  0.104767  0.074842  0.001775  1.022424  -0.001
H  H11  1  0.65879207  0.38715321  0.09067359  1  0.054699  0.0015  0.095702  0.102772  0.000732  1.022008  0.0
H  H12  1  0.61897998  0.25982968  0.92795829  1  0.037478  0.000788  0.092731  0.098776  -4.4e-05  1.043983  0.0
H  H13  1  0.82894057  0.08701740  0.91509752  1  0.047957  0.002672  0.098569  0.064299  0.002507  1.035481  -0.001
H  H14  1  0.43628852  0.42941842  0.00093122  1  0.030577  0.003302  0.087385  0.088711  0.002279  1.010519  0.001
H  H15  1  0.44657231  0.47235090  0.07319580  1  0.033722  0.00389  0.08694  0.088262  0.00253  0.99572  0.002
H  H16  1  0.68162504  0.42647224  0.36504612  1  0.085361  0.002017  0.106503  0.077605  0.002119  1.020827  -0.001
H  H17  1  0.80745884  0.51070204  0.28737573  1  0.065519  0.000994  0.100459  0.108696  0.000149  1.009414  0.0
H  H18  1  0.67804330  0.76509430  0.44379517  1  0.045509  0.001508  0.097901  0.101624  0.000755  1.016914  0.0
H  H19  1  0.56012814  0.67016045  0.51515244  1  0.098504  0.001323  0.104894  0.072994  0.00146  1.036938  0.0
H  H20  1  0.85266537  0.67067128  0.25906528  1  0.042747  0.000766  0.091856  0.094507  9e-06  1.00037  0.0
H  H21  1  0.89141210  0.70199148  0.32298760  1  0.02129  0.009346  0.088312  0.084689  0.007094  1.011275  0.005
H  H22  1  0.78580587  0.00427204  0.08699391  1  0.085272  0.001576  0.102226  0.065697  0.001772  1.024964  0.0
H  H23  1  0.68219304  0.91495357  0.18064244  1  0.077295  0.000509  0.099572  0.105419  0.000269  1.009926  0.0
H  H24  1  0.89233217  0.91445335  0.29941001  1  0.04629  0.001335  0.097377  0.101417  0.001046  1.026144  0.0
H  H25  1  0.98713258  0.00341462  0.20035292  1  0.035602  0.000728  0.101573  0.062057  0.00051  1.029815  0.0
H  H26  1  0.64052772  0.85817803  0.29724179  1  0.00914  0.000254  0.091782  0.090239  0.00013  0.990675  0.0
H  H27  1  0.69548376  0.89098485  0.35280304  1  0.036387  0.001098  0.093129  0.09216  0.000573  0.984124  0.0
H  H28  1  0.81660722  0.68840405  0.86398535  1  0.039755  0.000625  0.106956  0.070893  0.000401  0.985106  0.0
H  H29  1  0.71200152  0.62658952  0.81242340  1  0.046538  0.000337  0.102757  0.107386  0.0002  0.999592  0.0
H  H30  1  0.96306480  0.25706627  0.84863901  1  0.099577  0.001009  0.100262  0.111751  0.00107  1.031377  0.0
H  H31  1  0.05598534  0.33448411  0.89972543  1  0.070175  0.000974  0.104389  0.065429  0.001032  1.010565  0.0
H  H32  1  0.67528782  0.45920355  0.80208431  1  0.026235  0.000695  0.094761  0.092819  0.000427  0.994919  0.0
H  H33  1  0.78755417  0.30686263  0.80588543  1  0.02238  0.00299  0.090826  0.086682  0.00281  1.013974  0.0
H  H34  1  0.92485803  0.20666258  0.43042117  1  0.091251  0.001406  0.104851  0.074133  0.001602  1.025806  -0.001
H  H35  1  0.95313323  0.38478858  0.41037754  1  0.070176  0.001435  0.096684  0.10505  0.000734  1.021106  0.0
H  H36  1  0.12255966  0.26241389  0.57188882  1  0.048012  0.000759  0.092469  0.09722  -2.3e-05  1.046036  0.0
H  H37  1  0.08543327  0.08937872  0.58699911  1  0.039447  0.00276  0.098239  0.063195  0.002509  1.037542  -0.001
H  H38  1  0.13483115  0.42996716  0.49787612  1  0.046235  0.003354  0.087541  0.088383  0.002375  1.006829  0.001
H  H39  1  0.08037994  0.47206551  0.42613124  1  0.02522  0.003762  0.087312  0.088531  0.002419  0.996156  0.002
H  H40  1  0.89313460  0.43356800  0.12685476  1  0.1106  0.001459  0.105389  0.075507  0.001847  1.030848  -0.001
H  H41  1  0.68514494  0.51225946  0.20694711  1  0.051691  0.001092  0.100169  0.108346  0.00023  1.009656  0.0
H  H42  1  0.55024795  0.77717795  0.05681718  1  0.035124  0.001481  0.097959  0.101324  0.000736  1.018716  0.0
H  H43  1  0.76081051  0.68825468  0.98317029  1  0.071675  0.00189  0.10436  0.070861  0.001942  1.035524  0.0
H  H44  1  0.47888324  0.67327398  0.23985695  1  0.059703  0.000889  0.092041  0.095288  8e-05  0.996857  0.0
H  H45  1  0.40638522  0.70308477  0.17728734  1  0.007094  0.010103  0.088229  0.084462  0.007676  1.010539  0.005
H  H46  1  0.20279399  0.00451461  0.41396507  1  0.086649  0.001727  0.101553  0.06428  0.001948  1.030217  0.0
H  H47  1  0.39679389  0.91616911  0.32062950  1  0.064122  0.000466  0.100074  0.106182  0.000208  1.007946  0.0
H  H48  1  0.18957905  0.91783424  0.19958130  1  0.039723  0.001608  0.097228  0.101447  0.001292  1.029468  0.0
H  H49  1  0.00459853  0.00572619  0.29843583  1  0.02588  0.000605  0.101632  0.063201  0.000395  1.029249  0.0
H  H50  1  0.49549733  0.86454814  0.20282777  1  0.043475  0.000243  0.091654  0.089753  0.000155  0.991954  0.0
H  H51  1  0.40804301  0.89494880  0.14753744  1  0.003261  0.00109  0.092771  0.091635  0.000538  0.986216  0.0
H  H52  1  0.50105634  0.31444407  0.36463144  1  0.045991  0.00061  0.106617  0.07011  0.000407  0.985747  0.0
H  H53  1  0.33399970  0.37754996  0.31342414  1  0.053029  0.000307  0.1023  0.10717  0.000162  0.998851  0.0
H  H54  1  0.22019389  0.74649435  0.34799339  1  0.072166  0.0009  0.099994  0.111311  0.000901  1.034511  0.0
H  H55  1  0.39093875  0.66789915  0.39881802  1  0.068097  0.001074  0.10387  0.06412  0.001132  1.012967  0.0
H  H56  1  0.13101731  0.54653025  0.30225473  1  0.015223  0.000636  0.09442  0.092356  0.0004  0.994822  0.0
H  H57  1  0.09284503  0.69843223  0.30549751  1  0.024083  0.002293  0.090988  0.087989  0.002094  1.008637  0.0
H  H58  1  0.14490108  0.77654649  0.91870795  1  0.07248  0.002166  0.104209  0.073468  0.002315  1.022287  -0.001
H  H59  1  0.35328139  0.60370960  0.90541161  1  0.060599  0.001354  0.095947  0.103681  0.000645  1.022919  0.0
H  H60  1  0.36949852  0.74387969  0.07229323  1  0.029171  0.00094  0.091883  0.097234  0.000115  1.042802  0.0
H  H61  1  0.15738473  0.91029009  0.08083749  1  0.092821  0.002001  0.099815  0.067158  0.002157  1.036563  -0.001
H  H62  1  0.56145631  0.57350873  0.00136280  1  0.038132  0.003132  0.086422  0.087105  0.002128  1.008847  0.001
H  H63  1  0.55758675  0.52653289  0.92822811  1  0.011126  0.003863  0.087201  0.08809  0.00253  0.998464  0.003
H  H64  1  0.32582685  0.56924426  0.62625496  1  0.107719  0.001375  0.105417  0.074817  0.001698  1.03188  -0.001
H  H65  1  0.19849791  0.48962292  0.70722435  1  0.067947  0.001118  0.100343  0.108187  0.000254  1.008977  0.0
H  H66  1  0.32978342  0.22233368  0.55788269  1  0.049861  0.001461  0.098699  0.103119  0.000726  1.021461  0.0
H  H67  1  0.44875916  0.31265197  0.48325793  1  0.039433  0.002193  0.104281  0.070607  0.00198  1.034282  0.0
H  H68  1  0.16000162  0.32436207  0.74159591  1  0.038562  0.001233  0.092754  0.095964  0.000352  0.995155  0.0
H  H69  1  0.10762884  0.30278837  0.68110078  1  0.031286  0.010419  0.088399  0.084704  0.007995  1.008442  0.006
H  H70  1  0.22675994  0.98243984  0.90962711  1  0.07733  0.00133  0.104243  0.069655  0.001454  1.016658  0.0
H  H71  1  0.32784961  0.07218210  0.81485618  1  0.055462  0.000862  0.098606  0.103804  0.000541  1.011949  0.0
H  H72  1  0.09631274  0.09329545  0.70413089  1  0.04641  0.001741  0.095624  0.097678  0.001383  1.038146  0.0
H  H73  1  0.00599256  0.00128250  0.80345695  1  0.044708  0.001475  0.100777  0.061987  0.001228  1.028375  0.0
H  H74  1  0.36341953  0.13065182  0.69788305  1  0.028798  0.000454  0.091733  0.089818  0.000233  0.99118  0.0
H  H75  1  0.29541729  0.10842848  0.64584239  1  0.038451  0.001544  0.092878  0.091862  0.000928  0.986452  0.001
H  H76  1  0.18808348  0.30646793  0.14059834  1  0.044422  0.000336  0.106501  0.070841  0.000182  0.981286  0.0
H  H77  1  0.29031998  0.37394790  0.19056794  1  0.046638  0.000359  0.10262  0.10752  0.000237  1.001609  0.0
H  H78  1  0.03651103  0.73994541  0.15060472  1  0.069444  0.000848  0.100673  0.113153  0.000854  1.026775  0.0
H  H79  1  0.94518952  0.65693263  0.10199232  1  0.101302  0.001347  0.10217  0.061901  0.001502  1.021769  0.0
H  H80  1  0.32363581  0.54440445  0.19896758  1  0.036929  0.000387  0.094498  0.092687  0.000188  0.994112  0.0
H  H81  1  0.21041252  0.69580214  0.19353040  1  0.042307  0.002632  0.090792  0.087662  0.002497  1.01081  0.0
H  H82  1  0.07810542  0.77419648  0.58447976  1  0.062291  0.002504  0.105024  0.074956  0.002505  1.016561  -0.001
H  H83  1  0.04230017  0.60201769  0.59577971  1  0.051147  0.001316  0.095838  0.103272  0.000544  1.022253  0.0
H  H84  1  0.88871494  0.74536136  0.42810651  1  0.031334  0.000985  0.092139  0.096571  0.000157  1.039043  0.0
H  H85  1  0.93482032  0.91099187  0.42156954  1  0.076093  0.002001  0.099828  0.067224  0.00202  1.037938  -0.001
H  H86  1  0.86520740  0.57480444  0.49814578  1  0.042475  0.003072  0.087284  0.087958  0.002087  1.010823  0.001
H  H87  1  0.91572588  0.52662468  0.57129478  1  0.014634  0.003766  0.087392  0.08872  0.002463  0.997859  0.002
H  H88  1  0.10640720  0.57592998  0.86602014  1  0.087979  0.001821  0.105957  0.075424  0.001993  1.021648  -0.001
H  H89  1  0.31620493  0.49165902  0.78781304  1  0.04222  0.00099  0.100646  0.108806  0.00016  1.008734  0.0
H  H90  1  0.44192693  0.23523118  0.94303463  1  0.03287  0.001538  0.098566  0.102745  0.000801  1.020667  0.0
H  H91  1  0.22957261  0.33070341  0.01496641  1  0.060344  0.001476  0.104814  0.07305  0.001486  1.035796  0.0
H  H92  1  0.51963691  0.32815138  0.75801723  1  0.041575  0.001061  0.091948  0.094997  0.000248  0.998182  0.0
H  H93  1  0.59056603  0.30519718  0.82024977  1  0.025934  0.009673  0.088941  0.085845  0.007375  1.009516  0.005
H  H94  1  0.78636749  0.98470011  0.59083164  1  0.066615  0.001225  0.104234  0.070021  0.001334  1.014262  0.0
H  H95  1  0.59663515  0.07466660  0.68628830  1  0.057275  0.000911  0.097816  0.103353  0.000558  1.01518  0.0
H  H96  1  0.80957299  0.09683964  0.79490023  1  0.051305  0.001652  0.096334  0.098357  0.001271  1.036375  0.0
H  H97  1  0.99055261  0.00516201  0.69485385  1  0.027602  0.001612  0.100382  0.061217  0.001306  1.032048  0.0
H  H98  1  0.50263083  0.13765016  0.80222885  1  0.022752  0.00047  0.091115  0.088576  0.000207  0.991026  0.0
H  H99  1  0.59324169  0.11310769  0.85453029  1  0.019381  0.001923  0.09252  0.090862  0.001226  0.986869  0.001
C  C100  1  0.55693356  0.60105031  0.64395698  1  0.503895  0.004524  0.030917  0.077248  0.004512  4.052231  0.002
C  C101  1  0.65129756  0.56303434  0.67237224  1  -0.048648  0.004879  -0.096344  -0.200817  0.004997  3.982332  0.003
C  C102  1  0.73221229  0.43965417  0.67607215  1  -0.058254  0.003354  0.005267  0.158032  0.003199  3.964168  0.002
C  C103  1  0.71438094  0.36044837  0.64935524  1  0.003941  0.006055  -0.090372  -0.181124  0.006057  3.921312  0.003
C  C104  1  0.61705749  0.40712725  0.62197616  1  0.48047  0.003215  0.036788  0.091552  0.003594  4.012281  0.001
C  C105  1  0.82840074  0.39731833  0.71124200  1  -0.021834  0.002547  -0.154131  -0.191688  0.002949  3.917918  0.002
C  C106  1  0.80761671  0.22418286  0.04179100  1  0.418018  0.069634  0.008333  0.053233  0.070109  4.003241  0.035
C  C107  1  0.69175784  0.32179241  0.05187767  1  -0.041915  0.006628  -0.106655  -0.194295  0.009923  4.006695  -0.005
C  C108  1  0.61639581  0.33678708  0.01303384  1  -0.011279  0.168186  -0.026708  0.119842  0.168895  3.975296  0.105
C  C109  1  0.67024417  0.25131273  0.96151583  1  -0.036408  -0.001681  -0.113368  -0.213473  0.002392  4.043145  -0.01
C  C110  1  0.78713131  0.15532922  0.95360169  1  0.373582  0.07308  -0.001535  0.02911  0.073137  4.040813  0.036
C  C111  1  0.49457146  0.44553356  0.02015410  1  -0.00891  0.014501  -0.161799  -0.193855  0.01728  3.963498  0.002
C  C112  1  0.68511377  0.50036554  0.38045240  1  0.364184  0.084808  0.008306  0.047698  0.085309  3.992875  0.045
C  C113  1  0.75387818  0.54882926  0.33762351  1  -0.057454  -0.006907  -0.103714  -0.199398  -0.001944  4.024561  -0.013
C  C114  1  0.75320209  0.64779157  0.35746255  1  0.00796  0.149003  -0.024466  0.116392  0.149675  3.965301  0.094
C  C115  1  0.68263160  0.68988919  0.42377323  1  0.00144  0.006112  -0.107409  -0.205825  0.009141  4.029996  -0.004
C  C116  1  0.61554610  0.63810774  0.46422488  1  0.350255  0.052405  0.012779  0.05376  0.052215  4.001817  0.025
C  C117  1  0.81400485  0.71135199  0.30918288  1  -0.020963  0.003196  -0.158574  -0.188946  0.005852  3.954407  -0.005
C  C118  1  0.80741739  0.98271392  0.13494858  1  0.476792  0.012621  0.030201  0.086003  0.013155  4.020245  0.005
C  C119  1  0.74961336  0.93317309  0.18728793  1  -0.069928  0.009679  -0.098055  -0.199352  0.009921  3.972406  0.004
C  C120  1  0.77840561  0.90687696  0.24845455  1  -0.014075  0.025372  -0.003265  0.151848  0.025291  3.982454  0.015
C  C121  1  0.86610373  0.93253540  0.25306724  1  -0.070826  0.013296  -0.104371  -0.213971  0.013539  3.989046  0.006
C  C122  1  0.91936624  0.98175648  0.19776200  1  0.487855  0.009193  0.026125  0.072756  0.009326  4.053034  0.004
C  C123  1  0.72333924  0.84770099  0.30463693  1  0.008172  0.009041  -0.15783  -0.194761  0.009559  3.961841  0.005
C  C124  1  0.84680214  0.59302245  0.86001150  1  0.515697  0.01092  0.029386  0.075655  0.010946  4.046095  0.006
C  C125  1  0.78894918  0.55834218  0.83068829  1  -0.049243  0.001665  -0.094351  -0.19779  0.001874  3.982981  0.0
C  C126  1  0.83018262  0.43574292  0.82495127  1  -0.04361  0.009594  0.002572  0.155078  0.009578  3.959608  0.006
C  C127  1  0.92776169  0.35364774  0.85071041  1  -0.038587  0.008755  -0.089325  -0.178966  0.008804  3.924902  0.005
C  C128  1  0.97970665  0.39694417  0.87927887  1  0.485314  0.003183  0.035911  0.091526  0.003699  4.003845  0.001
C  C129  1  0.77439157  0.39684525  0.78912177  1  0.005712  0.00182  -0.153965  -0.191125  0.002287  3.915261  0.001
C  C130  1  0.96747615  0.22297378  0.46080238  1  0.396402  0.067771  0.009861  0.056034  0.068138  3.998797  0.034
C  C131  1  0.98587699  0.32058271  0.44940938  1  -0.050461  0.007097  -0.105712  -0.193999  0.010325  4.003428  -0.004
C  C132  1  0.04686403  0.33690351  0.48727047  1  -0.05937  0.165434  -0.028269  0.116522  0.165928  3.978344  0.103
C  C133  1  0.07915557  0.25282708  0.53912406  1  -0.018985  -0.002133  -0.111615  -0.208648  0.001936  4.041953  -0.01
C  C134  1  0.05822087  0.15676282  0.54829124  1  0.403628  0.071394  3.6e-05  0.030628  0.071566  4.042615  0.035
C  C135  1  0.05990959  0.44576237  0.47925133  1  -0.026998  0.014128  -0.161676  -0.192291  0.016924  3.962666  0.002
C  C136  1  0.81396157  0.50851110  0.11350712  1  0.374446  0.081436  0.010243  0.051728  0.081797  3.986601  0.043
C  C137  1  0.69789185  0.55407298  0.15768043  1  -0.057737  -0.003985  -0.104573  -0.201469  0.000449  4.026231  -0.011
C  C138  1  0.59737693  0.65446711  0.14043496  1  -0.032262  0.15262  -0.025379  0.115029  0.153278  3.963734  0.097
C  C139  1  0.62259401  0.70091987  0.07508370  1  -0.007286  0.003099  -0.107672  -0.203956  0.006107  4.034966  -0.006
C  C140  1  0.74039340  0.65218556  0.03324647  1  0.412311  0.056801  0.010646  0.049067  0.057254  4.013356  0.028
C  C141  1  0.47393333  0.71474135  0.19017317  1  -0.028374  0.003004  -0.158057  -0.188254  0.005609  3.954007  -0.005
C  C142  1  0.20351308  0.98365393  0.36560180  1  0.453137  0.014137  0.030477  0.086906  0.014623  4.018483  0.006
C  C143  1  0.31147270  0.93456192  0.31344165  1  -0.050097  0.007984  -0.097363  -0.198707  0.008186  3.974155  0.003
C  C144  1  0.30987956  0.90925334  0.25177391  1  -0.014598  0.022893  -0.002882  0.151319  0.022778  3.986556  0.014
C  C145  1  0.19689027  0.93515909  0.24640768  1  -0.056098  0.015505  -0.105546  -0.215813  0.015723  3.988978  0.008
C  C146  1  0.09377244  0.98380231  0.30159676  1  0.502393  0.006446  0.02603  0.072332  0.006646  4.05549  0.002
C  C147  1  0.42454966  0.85169563  0.19546787  1  -4.9e-05  0.008698  -0.156997  -0.193601  0.009159  3.963218  0.005
C  C148  1  0.43667399  0.41002507  0.36045293  1  0.486274  0.010873  0.029873  0.077166  0.01087  4.043985  0.006
C  C149  1  0.34372521  0.44541929  0.33134643  1  -0.056777  0.002431  -0.094806  -0.199274  0.002606  3.982714  0.001
C  C150  1  0.26352247  0.56821134  0.32516824  1  0.005658  0.010026  0.003765  0.157664  0.010023  3.958664  0.006
C  C151  1  0.28042194  0.64978147  0.35042040  1  -0.026214  0.008801  -0.091465  -0.183855  0.008933  3.931744  0.004
C  C152  1  0.37588837  0.60588593  0.37884610  1  0.493993  0.004238  0.036067  0.093443  0.004797  4.003376  0.002
C  C153  1  0.16897438  0.60781814  0.28916229  1  0.004474  0.001728  -0.153376  -0.191032  0.002195  3.909925  0.001
C  C154  1  0.19763133  0.76550882  0.95176766  1  0.393217  0.072463  0.008943  0.055147  0.073126  4.004012  0.037
C  C155  1  0.31462665  0.67098089  0.94414335  1  -0.037901  0.003031  -0.106983  -0.195607  0.006371  4.010059  -0.007
C  C156  1  0.38394902  0.66117668  0.98550942  1  -0.063584  0.166949  -0.027776  0.116923  0.167427  3.980035  0.104
C  C157  1  0.32316782  0.74827273  0.03689504  1  0.017016  0.001136  -0.113351  -0.211292  0.005243  4.04433  -0.008
C  C158  1  0.20538032  0.84093248  0.04233057  1  0.327598  0.069511  0.001392  0.030998  0.069113  4.039733  0.034
C  C159  1  0.50641331  0.55459304  0.98085424  1  -0.006635  0.014481  -0.161819  -0.19138  0.017404  3.962695  0.002
C  C160  1  0.32209401  0.49374568  0.61321253  1  0.372449  0.07828  0.010979  0.05314  0.078551  3.988449  0.041
C  C161  1  0.25269911  0.44762871  0.65788756  1  -0.064237  -0.003362  -0.103642  -0.19974  0.001  4.023919  -0.011
C  C162  1  0.25344465  0.34631232  0.64115234  1  0.031651  0.149915  -0.024311  0.116089  0.150548  3.965101  0.095
C  C163  1  0.32473437  0.29961873  0.57575754  1  -0.08723  0.001984  -0.108392  -0.207958  0.005093  4.038562  -0.007
C  C164  1  0.39251881  0.34910638  0.53336018  1  0.425224  0.05809  0.011209  0.050916  0.058611  4.009931  0.029
C  C165  1  0.19081935  0.28623031  0.69147046  1  -0.002493  0.003593  -0.158511  -0.188596  0.006251  3.956368  -0.004
C  C166  1  0.19999657  0.00851020  0.86311458  1  0.449641  0.012932  0.028883  0.084909  0.013681  4.020261  0.005
C  C167  1  0.25620195  0.05845917  0.81022162  1  -0.045463  0.013812  -0.10007  -0.202197  0.014265  3.977872  0.006
C  C168  1  0.22075329  0.09042915  0.75085308  1  -0.03137  0.034912  -0.005727  0.147956  0.034823  3.980898  0.021
C  C169  1  0.12803397  0.07016905  0.74887822  1  -0.051636  0.00931  -0.102181  -0.209606  0.009646  3.991101  0.003
C  C170  1  0.07689151  0.01965389  0.80448378  1  0.483297  0.018896  0.024649  0.071011  0.019066  4.041962  0.01
C  C171  1  0.27575793  0.14821166  0.69366732  1  -0.012985  0.007659  -0.158087  -0.193548  0.008212  3.966304  0.004
C  C172  1  0.15633245  0.40247504  0.14368129  1  0.510947  0.004644  0.030779  0.077629  0.00466  4.051956  0.002
C  C173  1  0.21314279  0.44026348  0.17191870  1  -0.007507  0.005068  -0.095905  -0.200775  0.005197  3.981063  0.003
C  C174  1  0.17047446  0.56360076  0.17605607  1  -0.022675  0.003691  0.005899  0.160212  0.003546  3.959455  0.002
C  C175  1  0.07285353  0.64298561  0.14984140  1  -0.083308  0.006341  -0.09014  -0.180643  0.006337  3.925701  0.003
C  C176  1  0.02182801  0.59658578  0.12256729  1  0.478455  0.0038  0.036684  0.090175  0.004173  4.012653  0.001
C  C177  1  0.22442059  0.60591415  0.21123387  1  -0.02084  0.002497  -0.154637  -0.193353  0.002889  3.912286  0.002
C  C178  1  0.03693576  0.76403938  0.55075900  1  0.431545  0.07178  0.008616  0.054414  0.072546  4.003689  0.037
C  C179  1  0.01435470  0.66984761  0.55726697  1  -0.03612  0.001965  -0.10611  -0.19596  0.005445  4.013987  -0.008
C  C180  1  0.95560052  0.66108709  0.51505746  1  -0.019219  0.162363  -0.026864  0.119056  0.162992  3.979361  0.101
C  C181  1  0.93009184  0.74892452  0.46409520  1  -0.047715  0.00334  -0.113943  -0.211154  0.006717  4.03532  -0.007
C  C182  1  0.95534029  0.84121523  0.45982967  1  0.387757  0.065838  0.00238  0.034054  0.065943  4.035689  0.032
C  C183  1  0.93923370  0.55501876  0.51881990  1  -0.002044  0.014413  -0.162414  -0.193462  0.017134  3.961759  0.002
C  C184  1  0.18399016  0.50174156  0.88105861  1  0.425319  0.081191  0.011754  0.053585  0.081952  3.990851  0.043
C  C185  1  0.30105406  0.45314613  0.83790447  1  -0.059008  -0.005441  -0.103572  -0.199495  -0.001205  4.023425  -0.012
C  C186  1  0.39956965  0.35362154  0.85725084  1  0.023208  0.146547  -0.024638  0.115657  0.147357  3.964028  0.093
C  C187  1  0.37131982  0.31107690  0.92337728  1  -0.009103  0.005514  -0.108486  -0.207854  0.008516  4.03045  -0.004
C  C188  1  0.25257417  0.36320292  0.96417460  1  0.369055  0.052893  0.01266  0.052549  0.0529  4.002718  0.025
C  C189  1  0.52379020  0.29067556  0.80852998  1  -0.027395  0.004553  -0.158715  -0.189698  0.006987  3.95419  -0.004
C  C190  1  0.78776416  0.01121586  0.63703199  1  0.472412  0.014907  0.028482  0.085555  0.01577  4.016965  0.006
C  C191  1  0.68228874  0.06118635  0.69032513  1  -0.017073  0.014431  -0.10051  -0.202965  0.015012  3.98507  0.006
C  C192  1  0.68662157  0.09381331  0.74933084  1  -0.051759  0.044311  -0.006246  0.145377  0.044321  3.982833  0.027
C  C193  1  0.80009193  0.07362873  0.75046609  1  -0.047228  0.007273  -0.103861  -0.208733  0.007778  3.99669  0.001
C  C194  1  0.90104625  0.02320025  0.69449930  1  0.44118  0.022657  0.022451  0.066749  0.022695  4.045966  0.011
C  C195  1  0.57407291  0.15299357  0.80656332  1  0.020073  0.008092  -0.157884  -0.19117  0.008827  3.965481  0.003
N  N196  1  0.53843492  0.52525151  0.61915917  1  -1.210976  0.003153  -0.327448  -0.286088  0.001989  3.422998  0.001
N  N197  1  0.85667057  0.13739934  0.99429669  1  -1.217619  0.097797  -0.421695  -0.236433  0.095123  3.759469  0.072
N  N198  1  0.61248348  0.54533048  0.44362856  1  -1.209655  0.086797  -0.412603  -0.2292  0.084625  3.739657  0.063
N  N199  1  0.89189859  0.00688877  0.13919337  1  -1.205645  0.019124  -0.328895  -0.280647  0.017882  3.410436  0.012
N  N200  1  0.94142447  0.51444081  0.88403240  1  -1.221592  0.00595  -0.33085  -0.279723  0.004556  3.450998  0.002
N  N201  1  0.00581120  0.13746282  0.50862775  1  -1.223471  0.096593  -0.422909  -0.240023  0.094158  3.759109  0.071
N  N202  1  0.83839567  0.55797205  0.05141255  1  -1.203096  0.088556  -0.413569  -0.226535  0.086235  3.739308  0.065
N  N203  1  0.09518735  0.00807585  0.36064600  1  -1.200191  0.017777  -0.328015  -0.283347  0.016557  3.400623  0.012
N  N204  1  0.45407353  0.48813445  0.38396982  1  -1.221042  0.006402  -0.330215  -0.278007  0.004955  3.448932  0.002
N  N205  1  0.14191469  0.85407004  0.99909474  1  -1.191699  0.095381  -0.422792  -0.238747  0.092579  3.760611  0.07
N  N206  1  0.39552341  0.44422622  0.55100817  1  -1.202549  0.087205  -0.412843  -0.226219  0.084923  3.73705  0.063
N  N207  1  0.11113578  0.98871183  0.86125029  1  -1.21097  0.023605  -0.330885  -0.27566  0.022038  3.434304  0.015
N  N208  1  0.06148036  0.47845460  0.11939935  1  -1.223874  0.003348  -0.328307  -0.285642  0.002117  3.423222  0.001
N  N209  1  0.00498146  0.85324255  0.50381115  1  -1.231356  0.093835  -0.421093  -0.239977  0.091234  3.756836  0.069
N  N210  1  0.15663365  0.45663170  0.94409182  1  -1.212101  0.085544  -0.411437  -0.225417  0.083248  3.73962  0.062
N  N211  1  0.89684513  0.99183682  0.63802212  1  -1.191815  0.029581  -0.333749  -0.272608  0.028104  3.44965  0.019
