# generated using pymatgen
data_LaH8C9NO8
_symmetry_space_group_name_H-M   'P 1'
_cell_length_a   8.48471169
_cell_length_b   9.99721895
_cell_length_c   14.99690000
_cell_angle_alpha   90.00000000
_cell_angle_beta   90.00000000
_cell_angle_gamma   98.43992408
_symmetry_Int_Tables_number   1
_chemical_formula_structural   LaH8C9NO8
_chemical_formula_sum   'La4 H32 C36 N4 O32'
_cell_volume   1258.31350396
_cell_formula_units_Z   4
loop_
 _symmetry_equiv_pos_site_id
 _symmetry_equiv_pos_as_xyz
  1  'x, y, z'
loop_
 _atom_site_type_symbol
 _atom_site_label
 _atom_site_symmetry_multiplicity
 _atom_site_fract_x
 _atom_site_fract_y
 _atom_site_fract_z
 _atom_site_occupancy
 _atom_site_hle17_bader_spin_density
 _atom_site_hle17_ddec_charge
 _atom_site_hle17_ddec_spin_density
 _atom_site_hle17_ddec_sum_bond_order
 _atom_site_hle17_magmom
 _atom_site_hse06_10hf_bader_spin_density
 _atom_site_hse06_10hf_ddec_charge
 _atom_site_hse06_10hf_ddec_spin_density
 _atom_site_hse06_10hf_ddec_sum_bond_order
 _atom_site_hse06_10hf_magmom
 _atom_site_hse06_bader_spin_density
 _atom_site_hse06_ddec_charge
 _atom_site_hse06_ddec_spin_density
 _atom_site_hse06_ddec_sum_bond_order
 _atom_site_hse06_magmom
 _atom_site_pbe_bader_charge
 _atom_site_pbe_bader_spin_density
 _atom_site_pbe_cm5_charge
 _atom_site_pbe_ddec_charge
 _atom_site_pbe_ddec_spin_density
 _atom_site_pbe_ddec_sum_bond_order
 _atom_site_pbe_magmom
La  La0  1  0.00253255  0.11839172  0.38177690  1  0  2.137458  0  1.751415  0  0  2.014394  0  2.262206  0  0  2.116424  0  2.160786  0  2.278729  0  1.407979  1.936257  0  2.334836  0
La  La1  1  0.49746614  0.88160807  0.88177757  1  0  2.137475  0  1.751423  0  0  2.01444  0  2.262164  0  0  2.116469  0  2.160743  0  2.278696  0  1.408005  1.936302  0  2.334791  0
La  La2  1  0.99747052  0.88161010  0.61822177  1  0  2.137425  0  1.751459  0  0  2.014423  0  2.262161  0  0  2.116452  0  2.160741  0  2.278726  0  1.407972  1.936294  0  2.334779  0
La  La3  1  0.50253151  0.11838969  0.11822243  1  0  2.137521  0  1.751384  0  0  2.014474  0  2.262152  0  0  2.116502  0  2.160734  0  2.278679  0  1.407995  1.936341  0  2.334778  0
H  H4  1  0.32186401  0.55526814  0.16798405  1  0  0.126483  0  0.925238  0  0  0.135927  0  0.98036  0  0  0.140027  0  0.978393  0  0.132997  0  0.118901  0.133062  0  0.981867  0
H  H5  1  0.17813787  0.44472963  0.66798538  1  0  0.126381  0  0.925384  0  0  0.135906  0  0.980408  0  0  0.14002  0  0.978438  0  0.133034  0  0.118854  0.133039  0  0.98192  0
H  H6  1  0.67813570  0.44473469  0.83201462  1  0  0.12649  0  0.925226  0  0  0.135945  0  0.980337  0  0  0.14005  0  0.978365  0  0.133074  0  0.118905  0.133079  0  0.981846  0
H  H7  1  0.82186231  0.55526915  0.33201595  1  0  0.126424  0  0.925284  0  0  0.135935  0  0.980328  0  0  0.140051  0  0.978358  0  0.133034  0  0.118882  0.133068  0  0.981841  0
H  H8  1  0.26660449  0.77748278  0.23241803  1  0  0.122699  0  0.946263  0  0  0.131247  0  1.007635  0  0  0.135517  0  1.003738  0  0.145744  0  0.119926  0.12794  0  1.010509  0
H  H9  1  0.23339739  0.22251498  0.73241937  1  0  0.122714  0  0.946259  0  0  0.131266  0  1.007635  0  0  0.135539  0  1.003733  0  0.145752  0  0.119919  0.127973  0  1.010494  0
H  H10  1  0.73339151  0.22251903  0.76758063  1  0  0.122742  0  0.946255  0  0  0.131269  0  1.007646  0  0  0.135546  0  1.003742  0  0.145792  0  0.119931  0.12794  0  1.010545  0
H  H11  1  0.76660768  0.77748481  0.26758130  1  0  0.122731  0  0.946346  0  0  0.13128  0  1.007704  0  0  0.135551  0  1.003805  0  0.145744  0  0.119948  0.127973  0  1.010577  0
H  H12  1  0.14360405  0.56308899  0.47858491  1  0  0.131962  0  0.917371  0  0  0.138736  0  0.98022  0  0  0.144018  0  0.974132  0  0.189589  0  0.14259  0.134813  0  0.985035  0
H  H13  1  0.35639783  0.43690878  0.97858624  1  0  0.131896  0  0.917373  0  0  0.138676  0  0.980233  0  0  0.143959  0  0.974144  0  0.189542  0  0.142571  0.134754  0  0.985047  0
H  H14  1  0.85639278  0.43691080  0.52141376  1  0  0.13191  0  0.917497  0  0  0.138708  0  0.980324  0  0  0.143975  0  0.974255  0  0.189583  0  0.142591  0.134788  0  0.985137  0
H  H15  1  0.64360725  0.56309101  0.02141443  1  0  0.131921  0  0.917431  0  0  0.138716  0  0.980261  0  0  0.143983  0  0.974191  0  0.1896  0  0.142583  0.134796  0  0.985074  0
H  H16  1  0.49630590  0.87598260  0.51017544  1  0  0.152877  0  0.929571  0  0  0.171616  0  0.987346  0  0  0.174326  0  0.98627  0  0.059961  0  0.108656  0.169653  0  0.988218  0
H  H17  1  0.00369279  0.12401719  0.01017477  1  0  0.152887  0  0.929579  0  0  0.171624  0  0.987351  0  0  0.174334  0  0.986276  0  0.059988  0  0.108663  0.16966  0  0.988223  0
H  H18  1  0.50369363  0.12401921  0.48982456  1  0  0.152881  0  0.929611  0  0  0.171615  0  0.987387  0  0  0.174324  0  0.986313  0  0.060009  0  0.10866  0.169652  0  0.988259  0
H  H19  1  0.99630386  0.87598159  0.98982456  1  0  0.152869  0  0.929581  0  0  0.17161  0  0.987351  0  0  0.17432  0  0.986274  0  0.059975  0  0.108651  0.169647  0  0.988223  0
H  H20  1  0.61177137  0.74036156  0.51726757  1  0  0.149844  0  0.96229  0  0  0.164347  0  1.023756  0  0  0.168268  0  1.021506  0  0.101879  0  0.10066  0.161624  0  1.02532  0
H  H21  1  0.88822713  0.25963823  0.01726690  1  0  0.149801  0  0.962347  0  0  0.164306  0  1.023811  0  0  0.168228  0  1.021561  0  0.101983  0  0.100657  0.161582  0  1.025375  0
H  H22  1  0.38822681  0.25963924  0.48273243  1  0  0.149815  0  0.962293  0  0  0.16432  0  1.02376  0  0  0.168243  0  1.021507  0  0.101961  0  0.100651  0.161596  0  1.025322  0
H  H23  1  0.11176970  0.74036156  0.98273243  1  0  0.149844  0  0.962283  0  0  0.164343  0  1.023755  0  0  0.168266  0  1.021502  0  0.101888  0  0.100661  0.161619  0  1.025319  0
H  H24  1  0.50537090  0.76908250  0.41681414  1  0  0.127842  0  0.958847  0  0  0.146702  0  1.019807  0  0  0.1476  0  1.021061  0  0.067864  0  0.09423  0.146013  0  1.019045  0
H  H25  1  0.99462742  0.23091628  0.91681281  1  0  0.127822  0  0.958842  0  0  0.146678  0  1.019802  0  0  0.147579  0  1.021052  0  0.067894  0  0.09422  0.145989  0  1.019039  0
H  H26  1  0.49462711  0.23091729  0.58318586  1  0  0.127824  0  0.958838  0  0  0.14668  0  1.019798  0  0  0.147582  0  1.021046  0  0.067879  0  0.094221  0.145991  0  1.019036  0
H  H27  1  0.00537058  0.76908351  0.08318586  1  0  0.127841  0  0.958858  0  0  0.146701  0  1.019815  0  0  0.147598  0  1.021069  0  0.067865  0  0.094227  0.146011  0  1.019054  0
H  H28  1  0.84796965  0.98067418  0.20147097  1  0  0.432845  0  0.865818  0  0  0.403278  0  0.928188  0  0  0.414008  0  0.912664  0  0.65491  0  0.302129  0.395418  0  0.939566  0
H  H29  1  0.65203002  0.01932561  0.70147230  1  0  0.432862  0  0.865803  0  0  0.403301  0  0.928161  0  0  0.41403  0  0.912638  0  0.654923  0  0.302135  0.39544  0  0.939539  0
H  H30  1  0.15202953  0.01932561  0.79852903  1  0  0.432874  0  0.865772  0  0  0.403309  0  0.928141  0  0  0.414037  0  0.912618  0  0.654921  0  0.302146  0.395449  0  0.93952  0
H  H31  1  0.34796781  0.98067317  0.29852836  1  0  0.432847  0  0.865813  0  0  0.403282  0  0.928182  0  0  0.41401  0  0.912658  0  0.65491  0  0.302134  0.395422  0  0.93956  0
H  H32  1  0.03889349  0.99648678  0.19154092  1  0  0.438088  0  0.85908  0  0  0.407478  0  0.922052  0  0  0.41954  0  0.904569  0  0.663051  0  0.297354  0.398729  0  0.934698  0
H  H33  1  0.46110673  0.00351503  0.69154225  1  0  0.438083  0  0.859088  0  0  0.407479  0  0.922047  0  0  0.419541  0  0.904564  0  0.663058  0  0.297353  0.398731  0  0.93469  0
H  H34  1  0.96110451  0.00351301  0.80845775  1  0  0.438134  0  0.859018  0  0  0.407547  0  0.921957  0  0  0.419609  0  0.904473  0  0.663042  0  0.297383  0.398798  0  0.934604  0
H  H35  1  0.53889245  0.99648476  0.30845775  1  0  0.438108  0  0.859057  0  0  0.407509  0  0.922006  0  0  0.41957  0  0.904524  0  0.663056  0  0.297366  0.398763  0  0.934647  0
C  C36  1  0.28936196  0.31128475  0.24635758  1  0  0.669093  0  3.921484  0  0  0.625717  0  4.216763  0  0  0.661818  0  4.206571  0  1.667015  0  0.236085  0.600605  0  4.222849  0
C  C37  1  0.21064345  0.68871301  0.74635758  1  0  0.669157  0  3.921436  0  0  0.625681  0  4.216841  0  0  0.661783  0  4.206647  0  1.66702  0  0.236091  0.60057  0  4.222925  0
C  C38  1  0.71064246  0.68871807  0.75364442  1  0  0.669045  0  3.921548  0  0  0.625664  0  4.216854  0  0  0.661765  0  4.206663  0  1.667062  0  0.236057  0.600552  0  4.222939  0
C  C39  1  0.78935774  0.31128475  0.25364575  1  0  0.668965  0  3.921762  0  0  0.625632  0  4.216963  0  0  0.661733  0  4.206774  0  1.667012  0  0.236083  0.60052  0  4.223048  0
C  C40  1  0.25670369  0.44333818  0.28598377  1  0  0.00302  0  3.585992  0  0  -0.004354  0  3.833569  0  0  -0.001295  0  3.845843  0  0.387785  0  0.115143  -0.00512  0  3.824702  0
C  C41  1  0.24330190  0.55666060  0.78598510  1  0  0.002894  0  3.586131  0  0  -0.004393  0  3.833666  0  0  -0.001333  0  3.84594  0  0.387888  0  0.115062  -0.00516  0  3.824797  0
C  C42  1  0.74329467  0.55666363  0.71401423  1  0  0.002991  0  3.585927  0  0  -0.004416  0  3.833572  0  0  -0.001354  0  3.845845  0  0.387803  0  0.115144  -0.005182  0  3.824705  0
C  C43  1  0.75670200  0.44333919  0.21401623  1  0  0.002968  0  3.586004  0  0  -0.004412  0  3.833582  0  0  -0.001353  0  3.84586  0  0.387858  0  0.115129  -0.005177  0  3.824713  0
C  C44  1  0.27923200  0.56243068  0.23609613  1  0  -0.091897  0  3.724715  0  0  -0.113378  0  3.983473  0  0  -0.117737  0  4.001292  0  -0.076593  0  -0.069595  -0.110613  0  3.970329  0
C  C45  1  0.22077224  0.43756709  0.73609679  1  0  -0.091733  0  3.72481  0  0  -0.113288  0  3.983511  0  0  -0.117663  0  4.001346  0  -0.076879  0  -0.069522  -0.110522  0  3.970369  0
C  C46  1  0.72076736  0.43757013  0.76390187  1  0  -0.091795  0  3.72459  0  0  -0.113277  0  3.983335  0  0  -0.117641  0  4.001162  0  -0.076852  0  -0.069556  -0.110509  0  3.970184  0
C  C47  1  0.77923284  0.56243270  0.26390321  1  0  -0.091698  0  3.724666  0  0  -0.113238  0  3.983385  0  0  -0.117617  0  4.001225  0  -0.076647  0  -0.069538  -0.110471  0  3.970239  0
C  C48  1  0.24943741  0.68481169  0.27153612  1  0  -0.033182  0  3.684002  0  0  -0.070751  0  3.945379  0  0  -0.065091  0  3.958853  0  0.022274  0  -0.0675  -0.072508  0  3.934923  0
C  C49  1  0.25056683  0.31518608  0.77153745  1  0  -0.033303  0  3.684054  0  0  -0.070898  0  3.945477  0  0  -0.065242  0  3.958957  0  0.022479  0  -0.067531  -0.072666  0  3.935014  0
C  C50  1  0.75055741  0.31519012  0.72846055  1  0  -0.033405  0  3.684172  0  0  -0.070945  0  3.945535  0  0  -0.065296  0  3.95901  0  0.022355  0  -0.067598  -0.072683  0  3.935087  0
C  C51  1  0.74944296  0.68481371  0.22846255  1  0  -0.033367  0  3.68414  0  0  -0.070932  0  3.945534  0  0  -0.065274  0  3.959015  0  0.022122  0  -0.067551  -0.072686  0  3.935076  0
C  C52  1  0.20177074  0.68702123  0.36083924  1  0  -0.081494  0  3.754003  0  0  -0.057567  0  3.994992  0  0  -0.065591  0  4.013425  0  -0.011761  0  -0.002189  -0.053381  0  3.983895  0
C  C53  1  0.29823367  0.31297755  0.86084057  1  0  -0.081411  0  3.753995  0  0  -0.057479  0  3.995008  0  0  -0.065501  0  4.013441  0  -0.011859  0  -0.002196  -0.053296  0  3.983915  0
C  C54  1  0.79822673  0.31297553  0.63916076  1  0  -0.081335  0  3.753884  0  0  -0.05743  0  3.994886  0  0  -0.065451  0  4.013318  0  -0.011676  0  -0.002183  -0.053246  0  3.983785  0
C  C55  1  0.70177447  0.68702628  0.13916076  1  0  -0.081399  0  3.753831  0  0  -0.05747  0  3.994871  0  0  -0.065492  0  4.0133  0  -0.011769  0  -0.00219  -0.053288  0  3.983776  0
C  C56  1  0.17234961  0.81319739  0.40992872  1  0  0.689046  0  3.889067  0  0  0.641515  0  4.183645  0  0  0.676884  0  4.176725  0  1.624919  0  0.238079  0.6169  0  4.188224  0
C  C57  1  0.32764991  0.18680038  0.90993005  1  0  0.689092  0  3.889166  0  0  0.641533  0  4.183791  0  0  0.676903  0  4.176869  0  1.625104  0  0.238093  0.616918  0  4.188369  0
C  C58  1  0.82764857  0.18680341  0.59006995  1  0  0.688956  0  3.889192  0  0  0.64142  0  4.18378  0  0  0.676788  0  4.176861  0  1.62489  0  0.238045  0.616807  0  4.188356  0
C  C59  1  0.67235264  0.81319840  0.09006995  1  0  0.689146  0  3.888994  0  0  0.641512  0  4.183718  0  0  0.676881  0  4.176797  0  1.624989  0  0.238075  0.616899  0  4.188296  0
C  C60  1  0.18025056  0.56757682  0.40913989  1  0  0.01626  0  3.549705  0  0  -0.03835  0  3.809222  0  0  -0.029923  0  3.817439  0  0.358809  0  0.054497  -0.045051  0  3.805959  0
C  C61  1  0.31975385  0.43242196  0.90914122  1  0  0.016375  0  3.549745  0  0  -0.03826  0  3.809309  0  0  -0.029833  0  3.817525  0  0.358898  0  0.054523  -0.044962  0  3.806046  0
C  C62  1  0.81974727  0.43242196  0.59085744  1  0  0.016259  0  3.54959  0  0  -0.038369  0  3.809127  0  0  -0.029926  0  3.817344  0  0.35879  0  0.054484  -0.045071  0  3.805865  0
C  C63  1  0.68025493  0.56757885  0.09085878  1  0  0.016252  0  3.549628  0  0  -0.038369  0  3.809156  0  0  -0.029927  0  3.817375  0  0.358806  0  0.054484  -0.045072  0  3.805895  0
C  C64  1  0.71664207  0.91002362  0.43842461  1  0  0.765857  0  3.817341  0  0  0.728258  0  4.111026  0  0  0.76309  0  4.10485  0  1.531764  0  0.221658  0.704188  0  4.114346  0
C  C65  1  0.78335760  0.08997617  0.93842394  1  0  0.765891  0  3.817128  0  0  0.728204  0  4.110946  0  0  0.763034  0  4.104769  0  1.531753  0  0.221643  0.704134  0  4.114265  0
C  C66  1  0.28335729  0.08997718  0.56157539  1  0  0.765969  0  3.817069  0  0  0.728187  0  4.11104  0  0  0.763016  0  4.104868  0  1.531745  0  0.221637  0.704116  0  4.114359  0
C  C67  1  0.21664040  0.91002362  0.06157473  1  0  0.766101  0  3.816992  0  0  0.72835  0  4.110905  0  0  0.76318  0  4.104729  0  1.531737  0  0.221689  0.704279  0  4.114227  0
C  C68  1  0.57444389  0.81706433  0.47310377  1  0  -0.458034  0  3.633256  0  0  -0.528445  0  3.857592  0  0  -0.535321  0  3.858482  0  -0.101924  0  -0.241447  -0.523641  0  3.857098  0
C  C69  1  0.92555325  0.18293445  0.97310311  1  0  -0.458009  0  3.633276  0  0  -0.528388  0  3.857623  0  0  -0.535267  0  3.85851  0  -0.102045  0  -0.241436  -0.523581  0  3.857126  0
C  C70  1  0.42555411  0.18293546  0.52689623  1  0  -0.45803  0  3.6332  0  0  -0.528381  0  3.857587  0  0  -0.535262  0  3.858474  0  -0.102022  0  -0.241422  -0.523575  0  3.857091  0
C  C71  1  0.07444358  0.81706534  0.02689623  1  0  -0.458119  0  3.633207  0  0  -0.528484  0  3.857592  0  0  -0.535361  0  3.858482  0  -0.101934  0  -0.241456  -0.523679  0  3.857099  0
N  N72  1  0.20382214  0.44762175  0.37275304  1  0  0.27765  0  3.713433  0  0  0.329403  0  3.976785  0  0  0.331225  0  3.998646  0  -0.595325  0  -0.094348  0.32712  0  3.96258  0
N  N73  1  0.29617856  0.55237602  0.87275504  1  0  0.277578  0  3.713585  0  0  0.329312  0  3.976927  0  0  0.331135  0  3.998787  0  -0.595472  0  -0.094338  0.327031  0  3.96272  0
N  N74  1  0.79617569  0.55237703  0.62724563  1  0  0.277668  0  3.713399  0  0  0.329432  0  3.976758  0  0  0.331255  0  3.998613  0  -0.595298  0  -0.094323  0.32715  0  3.962554  0
N  N75  1  0.70382552  0.44762478  0.12724630  1  0  0.277644  0  3.713454  0  0  0.329374  0  3.976819  0  0  0.3312  0  3.998673  0  -0.595335  0  -0.09437  0.327093  0  3.962614  0
O  O76  1  0.17798613  0.34047288  0.42395228  1  0  -0.559287  0  1.819585  0  0  -0.533138  0  2.062868  0  0  -0.562284  0  2.063428  0  -0.630486  0  -0.267746  -0.512094  0  2.062186  0
O  O77  1  0.32201239  0.65952590  0.92395495  1  0  -0.559254  0  1.819593  0  0  -0.533087  0  2.062866  0  0  -0.562231  0  2.063428  0  -0.630474  0  -0.267734  -0.512044  0  2.062185  0
O  O78  1  0.82201188  0.65952691  0.57604505  1  0  -0.559297  0  1.81954  0  0  -0.533167  0  2.062823  0  0  -0.562311  0  2.06338  0  -0.630524  0  -0.26776  -0.512125  0  2.062143  0
O  O79  1  0.67798714  0.34047591  0.07604705  1  0  -0.559279  0  1.819621  0  0  -0.533101  0  2.062892  0  0  -0.562246  0  2.063451  0  -0.630422  0  -0.267708  -0.512059  0  2.062212  0
O  O80  1  0.21010910  0.20160984  0.27254233  1  0  -0.662749  0  2.062285  0  0  -0.620015  0  2.315594  0  0  -0.651841  0  2.306111  0  -1.18481  0  -0.366873  -0.595935  0  2.320926  0
O  O81  1  0.28989295  0.79838894  0.77254299  1  0  -0.662797  0  2.062232  0  0  -0.620049  0  2.315592  0  0  -0.651876  0  2.306112  0  -1.184823  0  -0.366904  -0.595966  0  2.320923  0
O  O82  1  0.78989449  0.79839501  0.72745367  1  0  -0.66278  0  2.062214  0  0  -0.620031  0  2.315464  0  0  -0.651867  0  2.305997  0  -1.184915  0  -0.366882  -0.595949  0  2.320795  0
O  O83  1  0.71010470  0.20160882  0.22745567  1  0  -0.662767  0  2.062308  0  0  -0.620051  0  2.315567  0  0  -0.651876  0  2.306085  0  -1.184825  0  -0.366898  -0.595969  0  2.320899  0
O  O84  1  0.39608135  0.32146884  0.18650188  1  0  -0.664216  0  1.988493  0  0  -0.627402  0  2.23563  0  0  -0.659077  0  2.227654  0  -1.184283  0  -0.359423  -0.604668  0  2.240525  0
O  O85  1  0.10392035  0.67852791  0.68650321  1  0  -0.664144  0  1.988457  0  0  -0.627307  0  2.23562  0  0  -0.658984  0  2.227647  0  -1.184216  0  -0.35936  -0.604572  0  2.240512  0
O  O86  1  0.60393232  0.67853297  0.81350146  1  0  -0.664134  0  1.98863  0  0  -0.627299  0  2.235759  0  0  -0.658973  0  2.227787  0  -1.184207  0  -0.35939  -0.604565  0  2.240652  0
O  O87  1  0.89607023  0.32146986  0.31350146  1  0  -0.664087  0  1.988697  0  0  -0.627266  0  2.235781  0  0  -0.658943  0  2.227812  0  -1.184269  0  -0.359405  -0.604532  0  2.240673  0
O  O88  1  0.17743491  0.92255175  0.36573092  1  0  -0.677815  0  2.003764  0  0  -0.622145  0  2.239834  0  0  -0.653281  0  2.230721  0  -1.200635  0  -0.338552  -0.59972  0  2.246193  0
O  O89  1  0.32256461  0.07744602  0.86573158  1  0  -0.677844  0  2.003815  0  0  -0.622168  0  2.239904  0  0  -0.653303  0  2.23079  0  -1.200729  0  -0.338556  -0.599741  0  2.246261  0
O  O90  1  0.82256427  0.07744804  0.63426975  1  0  -0.677795  0  2.00377  0  0  -0.622132  0  2.239838  0  0  -0.653265  0  2.230725  0  -1.200626  0  -0.338546  -0.599704  0  2.246192  0
O  O91  1  0.67743575  0.92255377  0.13426975  1  0  -0.677899  0  2.003685  0  0  -0.6222  0  2.239811  0  0  -0.653336  0  2.230696  0  -1.200657  0  -0.33859  -0.599775  0  2.246168  0
O  O92  1  0.14460261  0.79839804  0.49237709  1  0  -0.677816  0  2.052302  0  0  -0.63932  0  2.311828  0  0  -0.671638  0  2.303681  0  -1.178457  0  -0.370065  -0.615697  0  2.316623  0
O  O93  1  0.35539909  0.20159871  0.99237776  1  0  -0.67786  0  2.052341  0  0  -0.63933  0  2.311865  0  0  -0.671649  0  2.303723  0  -1.17846  0  -0.370052  -0.615708  0  2.31666  0
O  O94  1  0.85539875  0.20160073  0.50762424  1  0  -0.6778  0  2.052371  0  0  -0.639288  0  2.311901  0  0  -0.671606  0  2.303758  0  -1.178468  0  -0.370029  -0.615665  0  2.316692  0
O  O95  1  0.64460110  0.79840007  0.00762491  1  0  -0.677849  0  2.052322  0  0  -0.639303  0  2.311918  0  0  -0.671619  0  2.303773  0  -1.178448  0  -0.370033  -0.615676  0  2.3167  0
O  O96  1  0.70130602  0.99213141  0.37517420  1  0  -0.670315  0  1.965139  0  0  -0.61394  0  2.191166  0  0  -0.644831  0  2.182021  0  -1.193769  0  -0.330239  -0.592196  0  2.19709  0
O  O97  1  0.79869029  0.00786939  0.87517220  1  0  -0.670246  0  1.965033  0  0  -0.61385  0  2.191104  0  0  -0.644742  0  2.181964  0  -1.193777  0  -0.330211  -0.592104  0  2.197026  0
O  O98  1  0.29869116  0.00787040  0.62482713  1  0  -0.670336  0  1.965006  0  0  -0.613899  0  2.191116  0  0  -0.644792  0  2.181975  0  -1.19377  0  -0.330249  -0.592153  0  2.197037  0
O  O99  1  0.20130570  0.99213242  0.12482513  1  0  -0.670408  0  1.965063  0  0  -0.613975  0  2.191166  0  0  -0.644867  0  2.182022  0  -1.193783  0  -0.330265  -0.592228  0  2.197091  0
O  O100  1  0.94950392  0.99854969  0.23458982  1  0  -0.901743  0  1.860095  0  0  -0.859009  0  2.056198  0  0  -0.88554  0  2.022286  0  -1.312111  0  -0.641119  -0.839233  0  2.080215  0
O  O101  1  0.55049510  0.00145314  0.73459115  1  0  -0.901775  0  1.860147  0  0  -0.859049  0  2.056243  0  0  -0.885579  0  2.022331  0  -1.312132  0  -0.641121  -0.839276  0  2.08027  0
O  O102  1  0.05049409  0.00145010  0.76540952  1  0  -0.901818  0  1.860057  0  0  -0.859114  0  2.056129  0  0  -0.885643  0  2.022214  0  -1.312112  0  -0.641153  -0.839343  0  2.080156  0
O  O103  1  0.44950391  0.99854564  0.26540885  1  0  -0.90178  0  1.860106  0  0  -0.859059  0  2.056204  0  0  -0.885589  0  2.022292  0  -1.312127  0  -0.641131  -0.839281  0  2.080216  0
O  O104  1  0.85479836  0.90692016  0.47267902  1  0  -0.762464  0  2.066247  0  0  -0.710823  0  2.323284  0  0  -0.749309  0  2.31679  0  -1.217139  0  -0.40878  -0.682494  0  2.326365  0
O  O105  1  0.64520014  0.09307963  0.97267902  1  0  -0.762519  0  2.066107  0  0  -0.710852  0  2.323201  0  0  -0.749343  0  2.316721  0  -1.217152  0  -0.408802  -0.682521  0  2.326282  0
O  O106  1  0.14520200  0.09307963  0.52732031  1  0  -0.762483  0  2.066142  0  0  -0.710779  0  2.323283  0  0  -0.749271  0  2.316804  0  -1.217132  0  -0.408767  -0.682451  0  2.326364  0
O  O107  1  0.35479651  0.90691915  0.02732098  1  0  -0.762534  0  2.066106  0  0  -0.710838  0  2.323222  0  0  -0.749328  0  2.316741  0  -1.217084  0  -0.408777  -0.68251  0  2.326304  0
