# generated using pymatgen
data_Zn4H20C48SN16O11
_symmetry_space_group_name_H-M   'P 1'
_cell_length_a   15.84648341
_cell_length_b   15.57422345
_cell_length_c   17.61480590
_cell_angle_alpha   106.46902682
_cell_angle_beta   103.26154090
_cell_angle_gamma   113.67728309
_symmetry_Int_Tables_number   1
_chemical_formula_structural   Zn4H20C48SN16O11
_chemical_formula_sum   'Zn4 H20 C48 S1 N16 O11'
_cell_volume   3514.31929430
_cell_formula_units_Z   1
loop_
 _symmetry_equiv_pos_site_id
 _symmetry_equiv_pos_as_xyz
  1  'x, y, z'
loop_
 _atom_site_type_symbol
 _atom_site_label
 _atom_site_symmetry_multiplicity
 _atom_site_fract_x
 _atom_site_fract_y
 _atom_site_fract_z
 _atom_site_occupancy
 _atom_site_pbe_bader_charge
 _atom_site_pbe_bader_spin_density
 _atom_site_pbe_cm5_charge
 _atom_site_pbe_ddec_charge
 _atom_site_pbe_ddec_spin_density
 _atom_site_pbe_ddec_sum_bond_order
 _atom_site_pbe_magmom
Zn  Zn0  1  0.15457705  0.15281402  0.50773752  1  1.2159  0  0.742675  0.642108  0  2.380887  0
Zn  Zn1  1  0.86737600  0.86004431  0.49237721  1  1.222789  0  0.746433  0.628304  0  2.489021  0
Zn  Zn2  1  0.02644930  0.89702071  0.39065709  1  1.218939  0  0.745454  0.634158  0  2.440079  0
Zn  Zn3  1  0.00549543  0.12164804  0.62206249  1  1.237527  0  0.733188  0.644801  0  2.446687  0
H  H4  1  0.97856893  0.80636526  0.63471931  1  0.09406  0  0.123861  0.115624  0  0.990563  0
H  H5  1  0.73943950  0.86331347  0.95373030  1  0.118259  0  0.126177  0.138195  0  0.954035  0
H  H6  1  0.04107756  0.35810628  0.69260437  1  0.103965  0  0.127588  0.125932  0  0.981548  0
H  H7  1  0.23415049  0.40114693  0.55177820  1  0.091409  0  0.115954  0.104237  0  1.01368  0
H  H8  1  0.86502805  0.18854635  0.52192172  1  0.166291  0  0.126033  0.118294  0  0.987745  0
H  H9  1  0.84860655  0.87641474  0.23904237  1  0.130026  0  0.12668  0.121056  0  0.987303  0
H  H10  1  0.33059821  0.14525126  0.62977937  1  0.103335  0  0.121625  0.111146  0  1.00001  0
H  H11  1  0.22442228  0.33399589  0.40138555  1  0.619686  0  0.349862  0.387506  0  0.843265  0
H  H12  1  0.89950539  0.17904657  0.89462324  1  0.67511  0  0.311166  0.384529  0  0.954374  0
H  H13  1  0.04087648  0.15926446  0.97801868  1  0.655053  0  0.32945  0.39242  0  0.897061  0
H  H14  1  0.01112069  0.75723331  0.18185131  1  0.633821  0  0.353226  0.396391  0  0.838975  0
H  H15  1  0.19614728  0.86830634  0.32736563  1  0.107879  0  0.121823  0.11417  0  0.994976  0
H  H16  1  0.62330156  0.67701367  0.44589979  1  0.621404  0  0.349469  0.389525  0  0.846612  0
H  H17  1  0.75436091  0.77849221  0.62508815  1  0.121967  0  0.126862  0.118032  0  0.984886  0
H  H18  1  0.37468397  0.19802410  0.48689467  1  0.07463  0  0.125716  0.117082  0  0.980612  0
H  H19  1  0.15517956  0.12912039  0.78696550  1  0.122701  0  0.120472  0.114801  0  1.003562  0
H  H20  1  0.17606466  0.84059618  0.49728198  1  0.128397  0  0.124653  0.116003  0  0.987538  0
H  H21  1  0.59765615  0.34907109  0.95460554  1  0.107269  0  0.121695  0.125803  0  0.951995  0
H  H22  1  0.44504594  0.33064887  0.04018810  1  0.085724  0  0.11836  0.125421  0  0.961066  0
H  H23  1  0.68503948  0.85741418  0.36722375  1  0.084716  0  0.121073  0.113423  0  0.993097  0
C  C24  1  0.02213896  0.12230599  0.33182119  1  0.456123  0  0.095642  0.007979  0  3.942687  0
C  C25  1  0.31658508  0.11747870  0.45034498  1  0.494334  0  0.020519  -0.045586  0  3.952865  0
C  C26  1  0.18306851  0.12733267  0.73601552  1  0.422342  0  0.028149  -0.019126  0  3.895342  0
C  C27  1  0.74321474  0.93625052  0.41078315  1  0.471629  0  0.016144  -0.043  0  3.936278  0
C  C28  1  0.12014999  0.83976519  0.52339471  1  0.390992  0  0.021294  -0.035818  0  3.919811  0
C  C29  1  0.28030480  0.14996987  0.74024714  1  0.168096  0  -0.024508  0.038214  0  4.178319  0
C  C30  1  0.09674781  0.80297483  0.58467653  1  0.123371  0  -0.025383  0.04043  0  4.194659  0
C  C31  1  0.32329984  0.03335056  0.40075469  1  0.072297  0  -0.029018  0.03644  0  4.215464  0
C  C32  1  0.83245020  0.93760672  0.73324374  1  0.156351  0  -0.01615  0.048997  0  4.186489  0
C  C33  1  0.15607716  0.52224204  0.64213453  1  -0.050313  0  -0.0356  -0.075579  0  4.105607  0
C  C34  1  0.15727375  0.60191937  0.64321615  1  -0.210174  0  -0.055664  -0.057079  0  4.337084  0
C  C35  1  0.73806653  0.02791606  0.42897749  1  0.10142  0  -0.02578  0.036324  0  4.193638  0
C  C36  1  0.14810599  0.68133505  0.63429727  1  0.193791  0  -0.051859  -0.048965  0  4.335355  0
C  C37  1  0.13071859  0.74531293  0.61739328  1  -0.335937  0  -0.038115  -0.082943  0  4.095223  0
C  C38  1  0.65139137  0.03516428  0.40388307  1  -0.214434  0  -0.034518  -0.07557  0  4.087693  0
C  C39  1  0.83996871  0.68293239  0.25194475  1  0.430672  0  0.087252  -0.023143  0  3.962727  0
C  C40  1  0.57232333  0.03604967  0.39211097  1  0.044197  0  -0.052332  -0.052151  0  4.3279  0
C  C41  1  0.48600608  0.03562041  0.38772409  1  -0.0365  0  -0.04937  -0.045273  0  4.333075  0
C  C42  1  0.40865287  0.03389118  0.39059945  1  -0.178082  0  -0.040031  -0.087251  0  4.105714  0
C  C43  1  0.66714448  0.52300822  0.17057362  1  0.25449  0  -0.04735  -0.109557  0  4.139712  0
C  C44  1  0.51801672  0.36084117  0.03538046  1  0.105417  0  -0.076115  -0.079415  0  4.081599  0
C  C45  1  0.52404146  0.31932965  0.95828780  1  0.128891  0  -0.061229  -0.027947  0  4.063857  0
C  C46  1  0.74177861  0.61376699  0.24139475  1  0.112345  0  0.010399  0.060636  0  4.103825  0
C  C47  1  0.44031585  0.24642733  0.88249058  1  -0.241914  0  -0.052217  -0.082196  0  4.186787  0
C  C48  1  0.59934477  0.44502929  0.10761691  1  -0.542391  0  -0.022998  -0.007608  0  4.139892  0
C  C49  1  0.36621143  0.19408979  0.81470275  1  -0.143588  0  -0.037875  -0.080023  0  4.123085  0
C  C50  1  0.80461994  0.92613390  0.80095780  1  0.007524  0  -0.042847  -0.096165  0  4.141013  0
C  C51  1  0.08479238  0.35129632  0.65436138  1  0.450734  0  0.022629  -0.036479  0  3.928952  0
C  C52  1  0.78838258  0.93024640  0.94583886  1  0.129738  0  -0.063135  -0.079254  0  4.015711  0
C  C53  1  0.85710126  0.02088557  0.01750447  1  0.134297  0  0.006814  0.001691  0  4.047199  0
C  C54  1  0.87695295  0.03203313  0.10211828  1  -0.088251  0  -0.040461  -0.090975  0  4.13477  0
C  C55  1  0.78773160  0.92158891  0.86455055  1  -0.340308  0  -0.046367  -0.058474  0  4.189732  0
C  C56  1  0.90230817  0.03922960  0.17573919  1  -0.21079  0  -0.025498  -0.044934  0  4.111364  0
C  C57  1  0.14529747  0.42503651  0.63031536  1  0.156806  0  -0.03152  0.026767  0  4.221597  0
C  C58  1  0.73736361  0.66135279  0.32107383  1  0.471158  0  0.086422  -0.021569  0  3.966231  0
C  C59  1  0.18394130  0.37310510  0.58257210  1  0.429034  0  0.013316  -0.044357  0  3.971418  0
C  C60  1  0.83515304  0.10580103  0.48996438  1  0.386122  0  0.022234  -0.030984  0  3.908197  0
C  C61  1  0.90860206  0.95565160  0.27832731  1  0.436033  0  0.025818  -0.036288  0  3.904581  0
C  C62  1  0.93791201  0.04049364  0.25667003  1  0.157672  0  -0.006158  0.037225  0  4.135079  0
C  C63  1  0.09106199  0.22400359  0.33938168  1  1.507433  0  0.2312  0.558695  0  4.146479  0
C  C64  1  0.92087885  0.10687004  0.99782298  1  1.557212  0  0.267237  0.63178  0  4.038637  0
C  C65  1  0.88858631  0.67933458  0.19103011  1  1.517636  0  0.224777  0.550064  0  4.167469  0
C  C66  1  0.65519950  0.62991404  0.34976564  1  1.469197  0  0.225477  0.551382  0  4.157448  0
C  C67  1  0.27335660  0.13644110  0.65579389  1  0.446617  0  0.021144  -0.035989  0  3.925213  0
C  C68  1  0.01906334  0.82229975  0.59383512  1  0.42744  0  0.018532  -0.038213  0  3.924844  0
C  C69  1  0.22540030  0.94894420  0.36836115  1  0.417304  0  0.014976  -0.051984  0  3.954811  0
C  C70  1  0.89969894  0.02957034  0.73095708  1  0.338186  0  0.081735  -0.081339  0  3.982897  0
C  C71  1  0.80455056  0.86128961  0.65166308  1  0.412388  0  0.02656  -0.041641  0  3.923054  0
S  S72  1  0.97315894  0.15880758  0.80678813  1  3.157723  0  0.558385  1.179897  0  6.052231  0
N  N73  1  0.03883348  0.08665270  0.39195491  1  -0.729757  0  -0.249706  -0.171955  0  3.542127  0
N  N74  1  0.88750205  0.76297536  0.33127230  1  -0.718754  0  -0.232846  -0.152045  0  3.525501  0
N  N75  1  0.08706145  0.26359496  0.62261688  1  -0.790692  0  -0.267223  -0.170773  0  3.537215  0
N  N76  1  0.82578320  0.74996025  0.37265451  1  -0.716571  0  -0.235301  -0.149959  0  3.535572  0
N  N77  1  0.14823144  0.27670303  0.57776861  1  -0.797659  0  -0.270154  -0.18015  0  3.566074  0
N  N78  1  0.89137868  0.06268709  0.50763900  1  -0.7887  0  -0.275534  -0.191716  0  3.595897  0
N  N79  1  0.97051005  0.98495020  0.35898717  1  -0.784256  0  -0.263189  -0.172852  0  3.582378  0
N  N80  1  0.18077691  0.11098050  0.60702458  1  -0.822247  0  -0.276443  -0.198174  0  3.593318  0
N  N81  1  0.99742718  0.86465022  0.54078658  1  -0.802823  0  -0.281434  -0.193979  0  3.635201  0
N  N82  1  0.16653543  0.98086918  0.39652261  1  -0.803502  0  -0.270038  -0.176096  0  3.55733  0
N  N83  1  0.90977498  0.00841240  0.65528124  1  -0.731996  0  -0.239379  -0.17443  0  3.510472  0
N  N84  1  0.85149564  0.90507211  0.60686531  1  -0.758358  0  -0.250154  -0.137961  0  3.547382  0
N  N85  1  0.22327814  0.08531374  0.44753568  1  -0.784564  0  -0.26587  -0.175062  0  3.555866  0
N  N86  1  0.12541326  0.10498713  0.65655814  1  -0.7616  0  -0.276877  -0.179422  0  3.618096  0
N  N87  1  0.05948415  0.87527324  0.49764077  1  -0.780966  0  -0.279294  -0.182567  0  3.64146  0
N  N88  1  0.83462138  0.95852579  0.45892050  1  -0.805189  0  -0.282427  -0.188241  0  3.652706  0
O  O89  1  0.07299458  0.26389166  0.29220547  1  -1.108097  0  -0.28253  -0.459723  0  2.050605  0
O  O90  1  0.57180799  0.55437864  0.30943610  1  -1.11065  0  -0.28136  -0.453515  0  2.051316  0
O  O91  1  0.68316157  0.70040507  0.43271357  1  -1.128804  0  -0.34245  -0.514622  0  2.273357  0
O  O92  1  0.18377714  0.26899933  0.40412431  1  -1.127413  0  -0.335913  -0.500092  0  2.261792  0
O  O93  1  0.04792947  0.16769061  0.87889921  1  -1.318076  0  -0.312611  -0.566218  0  2.166755  0
O  O94  1  0.00857240  0.21658301  0.75828625  1  -1.307443  0  -0.296963  -0.520884  0  2.222407  0
O  O95  1  0.90061929  0.18800763  0.83763192  1  -1.271258  0  -0.336628  -0.506227  0  2.207528  0
O  O96  1  0.88644947  0.15369867  0.96686121  1  -1.145261  0  -0.269553  -0.484786  0  2.186311  0
O  O97  1  0.01148126  0.11958888  0.00981316  1  -1.128262  0  -0.304544  -0.446229  0  2.225774  0
O  O98  1  0.85171541  0.61468051  0.11719922  1  -1.116206  0  -0.282495  -0.45492  0  2.050423  0
O  O99  1  0.98536271  0.76256094  0.22746495  1  -1.146087  0  -0.343137  -0.516013  0  2.259996  0
