# generated using pymatgen
data_HgH11C8SN2ClO3
_symmetry_space_group_name_H-M   'P 1'
_cell_length_a   7.05028750
_cell_length_b   7.34749631
_cell_length_c   23.69871934
_cell_angle_alpha   89.99989514
_cell_angle_beta   90.00027932
_cell_angle_gamma   110.65244714
_symmetry_Int_Tables_number   1
_chemical_formula_structural   HgH11C8SN2ClO3
_chemical_formula_sum   'Hg4 H44 C32 S4 N8 Cl4 O12'
_cell_volume   1148.74839881
_cell_formula_units_Z   4
loop_
 _symmetry_equiv_pos_site_id
 _symmetry_equiv_pos_as_xyz
  1  'x, y, z'
loop_
 _atom_site_type_symbol
 _atom_site_label
 _atom_site_symmetry_multiplicity
 _atom_site_fract_x
 _atom_site_fract_y
 _atom_site_fract_z
 _atom_site_occupancy
 _atom_site_hle17_bader_spin_density
 _atom_site_hle17_ddec_charge
 _atom_site_hle17_ddec_spin_density
 _atom_site_hle17_ddec_sum_bond_order
 _atom_site_hle17_magmom
 _atom_site_hse06_10hf_bader_spin_density
 _atom_site_hse06_10hf_ddec_charge
 _atom_site_hse06_10hf_ddec_spin_density
 _atom_site_hse06_10hf_ddec_sum_bond_order
 _atom_site_hse06_10hf_magmom
 _atom_site_hse06_bader_spin_density
 _atom_site_hse06_ddec_charge
 _atom_site_hse06_ddec_spin_density
 _atom_site_hse06_ddec_sum_bond_order
 _atom_site_hse06_magmom
 _atom_site_pbe_bader_spin_density
 _atom_site_pbe_cm5_charge
 _atom_site_pbe_ddec_charge
 _atom_site_pbe_ddec_spin_density
 _atom_site_pbe_ddec_sum_bond_order
 _atom_site_pbe_magmom
Hg  Hg0  1  0.06339677  0.19770669  0.13653817  1  0  0.832405  0  1.918677  0  0  0.667745  0  2.387913  0  0  0.718369  0  2.350396  0  0  0.601998  0.632877  0  2.413219  0
Hg  Hg1  1  0.43660728  0.30229859  0.63653800  1  0  0.83243  0  1.918693  0  0  0.667747  0  2.387935  0  0  0.718367  0  2.350423  0  0  0.602002  0.632879  0  2.413245  0
Hg  Hg2  1  0.93660276  0.80229676  0.86346399  1  0  0.832498  0  1.918632  0  0  0.667795  0  2.387912  0  0  0.718416  0  2.350393  0  0  0.602022  0.632924  0  2.413219  0
Hg  Hg3  1  0.56339486  0.69770048  0.36346247  1  0  0.832491  0  1.918659  0  0  0.667834  0  2.387884  0  0  0.718455  0  2.350367  0  0  0.602033  0.63296  0  2.413194  0
H  H4  1  0.14640999  0.48227662  0.21715559  1  0  0.280971  0  0.942115  0  0  0.269626  0  0.997661  0  0  0.276247  0  0.994106  0  0  0.293626  0.264902  0  1.000254  0
H  H5  1  0.35359906  0.01772713  0.71715462  1  0  0.280986  0  0.942125  0  0  0.269645  0  0.997663  0  0  0.276258  0  0.99414  0  0  0.293648  0.26493  0  1.000234  0
H  H6  1  0.85359237  0.51772682  0.78284615  1  0  0.281038  0  0.9421  0  0  0.269676  0  0.997669  0  0  0.276292  0  0.994136  0  0  0.293636  0.26496  0  1.000241  0
H  H7  1  0.64640308  0.98227193  0.28284544  1  0  0.281018  0  0.942119  0  0  0.269677  0  0.997653  0  0  0.27629  0  0.99413  0  0  0.293648  0.264962  0  1.000225  0
H  H8  1  0.16939767  0.24910938  0.99432298  1  0  0.073104  0  0.952025  0  0  0.080649  0  1.018607  0  0  0.083143  0  1.016197  0  0  0.104122  0.07885  0  1.020314  0
H  H9  1  0.33060759  0.25089864  0.49432182  1  0  0.073032  0  0.952081  0  0  0.080584  0  1.018674  0  0  0.083087  0  1.016232  0  0  0.104088  0.078787  0  1.020374  0
H  H10  1  0.83060882  0.75088236  0.00568087  1  0  0.073136  0  0.951969  0  0  0.080639  0  1.018605  0  0  0.083136  0  1.016177  0  0  0.104115  0.078846  0  1.020297  0
H  H11  1  0.66939814  0.74910623  0.50567824  1  0  0.07309  0  0.952057  0  0  0.080631  0  1.018668  0  0  0.083127  0  1.016243  0  0  0.104123  0.078838  0  1.020357  0
H  H12  1  0.28291584  0.52308575  0.92432427  1  0  0.112349  0  0.960724  0  0  0.119405  0  1.026627  0  0  0.122443  0  1.025589  0  0  0.100876  0.117213  0  1.027554  0
H  H13  1  0.21707974  0.97692100  0.42432324  1  0  0.112445  0  0.960655  0  0  0.119482  0  1.026587  0  0  0.122518  0  1.025549  0  0  0.100913  0.117287  0  1.027509  0
H  H14  1  0.71708020  0.47690461  0.07567874  1  0  0.112367  0  0.960673  0  0  0.119396  0  1.026617  0  0  0.122433  0  1.025579  0  0  0.100883  0.117204  0  1.027546  0
H  H15  1  0.78291979  0.02308246  0.57567682  1  0  0.112416  0  0.960676  0  0  0.119433  0  1.026625  0  0  0.12247  0  1.025587  0  0  0.100901  0.117243  0  1.027553  0
H  H16  1  0.36716603  0.86234705  0.95896577  1  0  0.093457  0  0.959999  0  0  0.102825  0  1.023703  0  0  0.105144  0  1.0221  0  0  0.103528  0.101099  0  1.02493  0
H  H17  1  0.13282870  0.63765969  0.45896565  1  0  0.093436  0  0.960011  0  0  0.102812  0  1.023701  0  0  0.105129  0  1.022093  0  0  0.103547  0.101087  0  1.02492  0
H  H18  1  0.63282457  0.13764772  0.04103344  1  0  0.093453  0  0.959922  0  0  0.102828  0  1.023618  0  0  0.10515  0  1.022009  0  0  0.103534  0.101104  0  1.024837  0
H  H19  1  0.86716942  0.36234378  0.54103441  1  0  0.093437  0  0.959999  0  0  0.102807  0  1.023699  0  0  0.105129  0  1.022085  0  0  0.103534  0.101081  0  1.024921  0
H  H20  1  0.34000321  0.91914277  0.06385492  1  0  0.120091  0  0.970841  0  0  0.129836  0  1.031786  0  0  0.132758  0  1.031055  0  0  0.105386  0.127729  0  1.032449  0
H  H21  1  0.15999807  0.58086848  0.56385405  1  0  0.120096  0  0.970863  0  0  0.129836  0  1.031797  0  0  0.132755  0  1.031066  0  0  0.10543  0.127731  0  1.032454  0
H  H22  1  0.65999066  0.08086073  0.93614471  1  0  0.120024  0  0.970959  0  0  0.12983  0  1.031825  0  0  0.132752  0  1.031093  0  0  0.105407  0.127723  0  1.032486  0
H  H23  1  0.84000287  0.41913496  0.43614558  1  0  0.120064  0  0.970882  0  0  0.129806  0  1.031822  0  0  0.132724  0  1.031088  0  0  0.105407  0.1277  0  1.032477  0
H  H24  1  0.30437024  0.78095915  0.15906387  1  0  0.101477  0  0.940135  0  0  0.11596  0  1.004267  0  0  0.116591  0  1.004204  0  0  0.111686  0.115376  0  1.004507  0
H  H25  1  0.19563356  0.71904328  0.65906298  1  0  0.101472  0  0.940094  0  0  0.115939  0  1.004215  0  0  0.116569  0  1.00415  0  0  0.111703  0.115355  0  1.004454  0
H  H26  1  0.69562929  0.21904430  0.84093787  1  0  0.101492  0  0.940061  0  0  0.115947  0  1.004206  0  0  0.116578  0  1.00414  0  0  0.111674  0.115362  0  1.004445  0
H  H27  1  0.80437282  0.28095575  0.34093707  1  0  0.101494  0  0.940042  0  0  0.115943  0  1.00419  0  0  0.116573  0  1.004124  0  0  0.111676  0.115358  0  1.004432  0
H  H28  1  0.04577059  0.63304003  0.14977209  1  0  0.104885  0  0.932018  0  0  0.119393  0  0.996321  0  0  0.120495  0  0.995587  0  0  0.108696  0.118558  0  0.996921  0
H  H29  1  0.45423360  0.86696387  0.64977064  1  0  0.104931  0  0.931996  0  0  0.119384  0  0.996317  0  0  0.120486  0  0.995588  0  0  0.108683  0.11855  0  0.996919  0
H  H30  1  0.95422840  0.36696197  0.85022966  1  0  0.104954  0  0.931996  0  0  0.119436  0  0.996291  0  0  0.120539  0  0.995557  0  0  0.108707  0.118599  0  0.996891  0
H  H31  1  0.54577104  0.13303809  0.35022899  1  0  0.104949  0  0.931984  0  0  0.119437  0  0.996267  0  0  0.12054  0  0.995533  0  0  0.1087  0.118602  0  0.996867  0
H  H32  1  0.49121693  0.66206196  0.22017199  1  0  0.072788  0  0.924975  0  0  0.089667  0  0.989843  0  0  0.089851  0  0.98958  0  0  0.104527  0.089331  0  0.990373  0
H  H33  1  0.00879525  0.83793747  0.72017456  1  0  0.072812  0  0.924992  0  0  0.089667  0  0.989902  0  0  0.089852  0  0.98964  0  0  0.104552  0.089319  0  0.990444  0
H  H34  1  0.50878716  0.33793855  0.77982722  1  0  0.072785  0  0.924952  0  0  0.08965  0  0.989845  0  0  0.089832  0  0.989584  0  0  0.104562  0.089315  0  0.990373  0
H  H35  1  0.99120830  0.16206158  0.27982508  1  0  0.07284  0  0.924969  0  0  0.0897  0  0.989876  0  0  0.089883  0  0.989616  0  0  0.104573  0.089363  0  0.990404  0
H  H36  1  0.53311161  0.55596660  0.15696399  1  0  0.081064  0  0.932898  0  0  0.095016  0  0.997374  0  0  0.096251  0  0.996896  0  0  0.103172  0.094049  0  0.997871  0
H  H37  1  0.96688811  0.94402634  0.65696463  1  0  0.08105  0  0.932881  0  0  0.09501  0  0.997367  0  0  0.096247  0  0.99689  0  0  0.103174  0.094043  0  0.997858  0
H  H38  1  0.46688596  0.44403541  0.84303564  1  0  0.081048  0  0.932853  0  0  0.094997  0  0.997343  0  0  0.096229  0  0.996867  0  0  0.103171  0.094028  0  0.997839  0
H  H39  1  0.03311468  0.05596688  0.34303416  1  0  0.081036  0  0.932894  0  0  0.094997  0  0.99739  0  0  0.096231  0  0.996916  0  0  0.103166  0.094029  0  0.997881  0
H  H40  1  0.34282955  0.27798242  0.25399238  1  0  0.125812  0  0.937659  0  0  0.139077  0  0.999599  0  0  0.141191  0  0.999269  0  0  0.104211  0.137564  0  0.999923  0
H  H41  1  0.15717530  0.22201989  0.75399143  1  0  0.125933  0  0.937481  0  0  0.139164  0  0.999473  0  0  0.141278  0  0.999141  0  0  0.104247  0.137651  0  0.999802  0
H  H42  1  0.65718129  0.72202096  0.74600683  1  0  0.125925  0  0.937474  0  0  0.139143  0  0.999498  0  0  0.141259  0  0.999169  0  0  0.104257  0.137631  0  0.999822  0
H  H43  1  0.84281976  0.77797923  0.24600609  1  0  0.125934  0  0.937446  0  0  0.139127  0  0.999504  0  0  0.141241  0  0.999172  0  0  0.104249  0.137615  0  0.999833  0
H  H44  1  0.60265324  0.42260356  0.25945358  1  0  0.126588  0  0.936876  0  0  0.138162  0  1.00271  0  0  0.140786  0  1.001169  0  0  0.105607  0.136242  0  1.00394  0
H  H45  1  0.89735212  0.07739359  0.75945390  1  0  0.126576  0  0.936855  0  0  0.138169  0  1.002668  0  0  0.140793  0  1.001126  0  0  0.105611  0.136249  0  1.003898  0
H  H46  1  0.39735368  0.57739693  0.74054436  1  0  0.126606  0  0.936925  0  0  0.138201  0  1.002734  0  0  0.140825  0  1.0012  0  0  0.10564  0.13628  0  1.003964  0
H  H47  1  0.10264381  0.92260406  0.24054404  1  0  0.126606  0  0.936944  0  0  0.138192  0  1.002759  0  0  0.140817  0  1.001219  0  0  0.10564  0.136272  0  1.003989  0
C  C48  1  0.20918673  0.40009555  0.00763716  1  0  0.126802  0  3.736043  0  0  0.096215  0  3.988854  0  0  0.103196  0  4.00906  0  0  0.041976  0.091744  0  3.975128  0
C  C49  1  0.29081099  0.09990984  0.50763690  1  0  0.127038  0  3.736124  0  0  0.096416  0  3.988921  0  0  0.103406  0  4.00913  0  0  0.042108  0.091944  0  3.975196  0
C  C50  1  0.79081181  0.59989771  0.99236500  1  0  0.126878  0  3.736115  0  0  0.096308  0  3.988919  0  0  0.103298  0  4.009119  0  0  0.042041  0.091837  0  3.975199  0
C  C51  1  0.70919082  0.90009215  0.49236358  1  0  0.126983  0  3.736156  0  0  0.096359  0  3.988945  0  0  0.103348  0  4.009148  0  0  0.042092  0.091889  0  3.975225  0
C  C52  1  0.27291611  0.55190682  0.96903342  1  0  -0.110141  0  3.714657  0  0  -0.126873  0  3.970101  0  0  -0.13394  0  3.992422  0  0  -0.087457  -0.122419  0  3.955272  0
C  C53  1  0.22708052  0.94809698  0.46903242  1  0  -0.110357  0  3.714687  0  0  -0.127085  0  3.970141  0  0  -0.134154  0  3.992461  0  0  -0.087541  -0.122624  0  3.955301  0
C  C54  1  0.72707851  0.44808354  0.03096917  1  0  -0.110175  0  3.714685  0  0  -0.126912  0  3.970175  0  0  -0.133978  0  3.99249  0  0  -0.087485  -0.12246  0  3.955349  0
C  C55  1  0.77292097  0.05190792  0.53096806  1  0  -0.110266  0  3.714693  0  0  -0.126973  0  3.970154  0  0  -0.134042  0  3.992475  0  0  -0.087518  -0.122523  0  3.95533  0
C  C56  1  0.31991123  0.74179979  0.98876485  1  0  0.003175  0  3.713459  0  0  -0.013149  0  3.960742  0  0  -0.009711  0  3.97994  0  0  -0.066076  -0.01507  0  3.947595  0
C  C57  1  0.18008452  0.75820839  0.48876473  1  0  0.003206  0  3.713502  0  0  -0.013116  0  3.960786  0  0  -0.009669  0  3.979976  0  0  -0.066124  -0.015038  0  3.947637  0
C  C58  1  0.68007905  0.25819791  0.01123436  1  0  0.003158  0  3.713424  0  0  -0.013159  0  3.96073  0  0  -0.009717  0  3.979923  0  0  -0.066123  -0.015078  0  3.94758  0
C  C59  1  0.81991359  0.24179507  0.51123490  1  0  0.003184  0  3.713542  0  0  -0.013135  0  3.960816  0  0  -0.009694  0  3.980014  0  0  -0.066124  -0.015059  0  3.947672  0
C  C60  1  0.30424124  0.77396086  0.04622402  1  0  -0.167435  0  3.699772  0  0  -0.185718  0  3.944626  0  0  -0.194265  0  3.966998  0  0  -0.085126  -0.180195  0  3.92959  0
C  C61  1  0.19575812  0.72604604  0.54622482  1  0  -0.167446  0  3.699883  0  0  -0.18575  0  3.944721  0  0  -0.194295  0  3.967089  0  0  -0.085176  -0.180232  0  3.929693  0
C  C62  1  0.69575296  0.22603972  0.95377519  1  0  -0.16741  0  3.699915  0  0  -0.185771  0  3.944746  0  0  -0.194317  0  3.967114  0  0  -0.085155  -0.180248  0  3.92971  0
C  C63  1  0.80424369  0.27395594  0.45377482  1  0  -0.167442  0  3.699914  0  0  -0.185743  0  3.944762  0  0  -0.194286  0  3.967133  0  0  -0.085169  -0.180222  0  3.929728  0
C  C64  1  0.23826459  0.61385705  0.08245509  1  0  0.242393  0  3.717226  0  0  0.242922  0  3.962442  0  0  0.250973  0  3.984286  0  0  0.119536  0.237648  0  3.947511  0
C  C65  1  0.26173503  0.88615275  0.58245378  1  0  0.242431  0  3.717311  0  0  0.242999  0  3.962378  0  0  0.251051  0  3.984227  0  0  0.119545  0.237722  0  3.947449  0
C  C66  1  0.76173233  0.38615080  0.91754623  1  0  0.242434  0  3.717331  0  0  0.243022  0  3.962409  0  0  0.251072  0  3.984256  0  0  0.119533  0.237748  0  3.947476  0
C  C67  1  0.73826569  0.11384633  0.41754585  1  0  0.242465  0  3.717412  0  0  0.243021  0  3.962511  0  0  0.251071  0  3.984359  0  0  0.119562  0.237746  0  3.947577  0
C  C68  1  0.20253989  0.63778060  0.14442423  1  0  -0.068265  0  3.616146  0  0  -0.130467  0  3.861103  0  0  -0.127328  0  3.872878  0  0  -0.06975  -0.132469  0  3.853039  0
C  C69  1  0.29746530  0.86222621  0.64442467  1  0  -0.068293  0  3.616261  0  0  -0.130371  0  3.861019  0  0  -0.127234  0  3.8728  0  0  -0.069707  -0.132374  0  3.852958  0
C  C70  1  0.79745909  0.36222140  0.85557625  1  0  -0.068355  0  3.616238  0  0  -0.130488  0  3.86105  0  0  -0.12735  0  3.87283  0  0  -0.069732  -0.132492  0  3.852988  0
C  C71  1  0.70254076  0.13777574  0.35557580  1  0  -0.068299  0  3.616241  0  0  -0.130413  0  3.861077  0  0  -0.127272  0  3.872855  0  0  -0.069699  -0.132417  0  3.853017  0
C  C72  1  0.44213584  0.52572848  0.19573944  1  0  0.052421  0  3.620621  0  0  -0.007477  0  3.882313  0  0  -0.002131  0  3.894769  0  0  -0.07306  -0.010886  0  3.873724  0
C  C73  1  0.05786832  0.97426957  0.69574117  1  0  0.052493  0  3.620503  0  0  -0.007413  0  3.882245  0  0  -0.002056  0  3.894674  0  0  -0.073044  -0.010814  0  3.873659  0
C  C74  1  0.55786738  0.47427349  0.80426019  1  0  0.052605  0  3.620475  0  0  -0.00729  0  3.882189  0  0  -0.001937  0  3.894647  0  0  -0.073024  -0.010702  0  3.873611  0
C  C75  1  0.94213098  0.02572952  0.30425847  1  0  0.052525  0  3.620548  0  0  -0.007403  0  3.882319  0  0  -0.002049  0  3.894757  0  0  -0.073044  -0.010812  0  3.873734  0
C  C76  1  0.47688367  0.36354903  0.22950379  1  0  -0.336563  0  3.620184  0  0  -0.376899  0  3.883036  0  0  -0.38274  0  3.890874  0  0  -0.163745  -0.372863  0  3.877745  0
C  C77  1  0.02311915  0.13644892  0.72950353  1  0  -0.336702  0  3.620046  0  0  -0.377027  0  3.882952  0  0  -0.382873  0  3.890794  0  0  -0.163818  -0.372995  0  3.877661  0
C  C78  1  0.52311596  0.63644713  0.77049500  1  0  -0.336739  0  3.620145  0  0  -0.377085  0  3.883051  0  0  -0.382914  0  3.890846  0  0  -0.163846  -0.373049  0  3.877758  0
C  C79  1  0.97688408  0.86355305  0.27049483  1  0  -0.336788  0  3.620185  0  0  -0.377093  0  3.88309  0  0  -0.382929  0  3.890914  0  0  -0.163872  -0.373059  0  3.877804  0
S  S80  1  0.55359622  0.20078652  0.18560700  1  0  1.329633  0  5.611552  0  0  1.238221  0  6.13577  0  0  1.284244  0  6.113978  0  0  0.494409  1.206403  0  6.149718  0
S  S81  1  0.94639892  0.29920928  0.68560643  1  0  1.329624  0  5.61149  0  0  1.238181  0  6.135723  0  0  1.284203  0  6.113928  0  0  0.494388  1.206365  0  6.149672  0
S  S82  1  0.44640309  0.79921257  0.81439137  1  0  1.329601  0  5.611597  0  0  1.23821  0  6.1358  0  0  1.284239  0  6.114011  0  0  0.494381  1.206396  0  6.149747  0
S  S83  1  0.05359647  0.70078691  0.31439152  1  0  1.329736  0  5.611641  0  0  1.238344  0  6.135819  0  0  1.284369  0  6.114029  0  0  0.494469  1.206528  0  6.149769  0
N  N84  1  0.19165195  0.43211857  0.06286333  1  0  -0.349267  0  3.267116  0  0  -0.27511  0  3.524272  0  0  -0.296834  0  3.545866  0  0  -0.316129  -0.260326  0  3.509186  0
N  N85  1  0.30835025  0.06789260  0.56286227  1  0  -0.349424  0  3.267211  0  0  -0.275246  0  3.52432  0  0  -0.296973  0  3.545914  0  0  -0.31623  -0.260463  0  3.509235  0
N  N86  1  0.80834986  0.56788342  0.93713925  1  0  -0.349395  0  3.267336  0  0  -0.27521  0  3.524396  0  0  -0.296942  0  3.546004  0  0  -0.316177  -0.260426  0  3.509309  0
N  N87  1  0.69165243  0.93210792  0.43713821  1  0  -0.349461  0  3.267333  0  0  -0.275257  0  3.524416  0  0  -0.296989  0  3.546027  0  0  -0.31624  -0.260472  0  3.509326  0
N  N88  1  0.22684948  0.48276842  0.18038742  1  0  -0.353251  0  3.216495  0  0  -0.261528  0  3.456014  0  0  -0.285588  0  3.473096  0  0  -0.450322  -0.245166  0  3.444006  0
N  N89  1  0.27315472  0.01723538  0.68038717  1  0  -0.353312  0  3.216663  0  0  -0.261615  0  3.456161  0  0  -0.285675  0  3.473236  0  0  -0.450347  -0.245251  0  3.444157  0
N  N90  1  0.77315146  0.51723502  0.81961390  1  0  -0.353404  0  3.216695  0  0  -0.261663  0  3.45613  0  0  -0.285726  0  3.473205  0  0  -0.450327  -0.245299  0  3.444131  0
N  N91  1  0.72684796  0.98276514  0.31961288  1  0  -0.35341  0  3.216681  0  0  -0.261708  0  3.456222  0  0  -0.285768  0  3.473291  0  0  -0.450367  -0.245346  0  3.444224  0
Cl  Cl92  1  0.84767470  0.87899739  0.11561421  1  0  -0.454239  0  0.997629  0  0  -0.392179  0  1.275758  0  0  -0.40962  0  1.257594  0  0  -0.23863  -0.380483  0  1.288245  0
Cl  Cl93  1  0.65232446  0.62100725  0.61561458  1  0  -0.454201  0  0.997646  0  0  -0.392143  0  1.275788  0  0  -0.409582  0  1.257615  0  0  -0.238602  -0.380446  0  1.288274  0
Cl  Cl94  1  0.15232145  0.12100464  0.88438668  1  0  -0.454216  0  0.997587  0  0  -0.392161  0  1.27574  0  0  -0.409599  0  1.25757  0  0  -0.238628  -0.380467  0  1.28823  0
Cl  Cl95  1  0.34767767  0.37899182  0.38438505  1  0  -0.454209  0  0.997635  0  0  -0.392159  0  1.275777  0  0  -0.409595  0  1.257598  0  0  -0.238613  -0.380465  0  1.288264  0
O  O96  1  0.41285820  0.14718128  0.13713383  1  0  -0.690071  0  1.990545  0  0  -0.632477  0  2.261823  0  0  -0.654598  0  2.246241  0  0  -0.352404  -0.616746  0  2.271899  0
O  O97  1  0.08714303  0.35282402  0.63713524  1  0  -0.689979  0  1.990485  0  0  -0.632408  0  2.261797  0  0  -0.65453  0  2.246217  0  0  -0.352376  -0.616676  0  2.271868  0
O  O98  1  0.58713774  0.85281637  0.86286580  1  0  -0.69006  0  1.990525  0  0  -0.632506  0  2.261825  0  0  -0.654633  0  2.246243  0  0  -0.352404  -0.616776  0  2.271898  0
O  O99  1  0.91285933  0.64717942  0.36286439  1  0  -0.690104  0  1.990686  0  0  -0.63252  0  2.261963  0  0  -0.654642  0  2.246379  0  0  -0.352416  -0.616787  0  2.272035  0
O  O100  1  0.53729495  0.03139350  0.22101190  1  0  -0.668813  0  1.971509  0  0  -0.617079  0  2.219752  0  0  -0.637133  0  2.206679  0  0  -0.348609  -0.602865  0  2.22829  0
O  O101  1  0.96268639  0.46859801  0.72101126  1  0  -0.66887  0  1.971571  0  0  -0.617083  0  2.219792  0  0  -0.637138  0  2.206717  0  0  -0.348594  -0.602862  0  2.22831  0
O  O102  1  0.46270827  0.96860847  0.77898731  1  0  -0.66877  0  1.971463  0  0  -0.617027  0  2.219695  0  0  -0.637084  0  2.206617  0  0  -0.348598  -0.602813  0  2.228227  0
O  O103  1  0.03730225  0.53139532  0.27898669  1  0  -0.668901  0  1.971554  0  0  -0.617146  0  2.219771  0  0  -0.637204  0  2.206694  0  0  -0.348655  -0.602922  0  2.22829  0
O  O104  1  0.76148814  0.31779641  0.16848425  1  0  -0.681373  0  1.987858  0  0  -0.625752  0  2.258662  0  0  -0.647792  0  2.243998  0  0  -0.352043  -0.610092  0  2.26806  0
O  O105  1  0.73851194  0.18219061  0.66848091  1  0  -0.681447  0  1.987819  0  0  -0.625789  0  2.258603  0  0  -0.647835  0  2.243952  0  0  -0.352082  -0.610138  0  2.268016  0
O  O106  1  0.23850975  0.68220268  0.83151327  1  0  -0.681441  0  1.987964  0  0  -0.625796  0  2.258744  0  0  -0.647824  0  2.244048  0  0  -0.352059  -0.610127  0  2.268118  0
O  O107  1  0.26148834  0.81779972  0.33151450  1  0  -0.681381  0  1.987822  0  0  -0.625769  0  2.258622  0  0  -0.64781  0  2.243963  0  0  -0.352062  -0.610116  0  2.268035  0
