# generated using pymatgen
data_CuH16C18SN5
_symmetry_space_group_name_H-M   'P 1'
_cell_length_a   9.59283395
_cell_length_b   9.13265116
_cell_length_c   12.21648380
_cell_angle_alpha   101.29944373
_cell_angle_beta   98.12565781
_cell_angle_gamma   118.77334764
_symmetry_Int_Tables_number   1
_chemical_formula_structural   CuH16C18SN5
_chemical_formula_sum   'Cu2 H32 C36 S2 N10'
_cell_volume   884.68336878
_cell_formula_units_Z   2
loop_
 _symmetry_equiv_pos_site_id
 _symmetry_equiv_pos_as_xyz
  1  'x, y, z'
loop_
 _atom_site_type_symbol
 _atom_site_label
 _atom_site_symmetry_multiplicity
 _atom_site_fract_x
 _atom_site_fract_y
 _atom_site_fract_z
 _atom_site_occupancy
 _atom_site_hle17_bader_spin_density
 _atom_site_hle17_ddec_charge
 _atom_site_hle17_ddec_spin_density
 _atom_site_hle17_ddec_sum_bond_order
 _atom_site_hle17_magmom
 _atom_site_hse06_10hf_bader_spin_density
 _atom_site_hse06_10hf_ddec_charge
 _atom_site_hse06_10hf_ddec_spin_density
 _atom_site_hse06_10hf_ddec_sum_bond_order
 _atom_site_hse06_10hf_magmom
 _atom_site_hse06_bader_spin_density
 _atom_site_hse06_ddec_charge
 _atom_site_hse06_ddec_spin_density
 _atom_site_hse06_ddec_sum_bond_order
 _atom_site_hse06_magmom
 _atom_site_pbe_bader_spin_density
 _atom_site_pbe_cm5_charge
 _atom_site_pbe_ddec_charge
 _atom_site_pbe_ddec_spin_density
 _atom_site_pbe_ddec_sum_bond_order
 _atom_site_pbe_magmom
Cu  Cu0  1  0.38737573  0.03992505  0.31231082  1  0  0.449848  0  2.1289  0  0  0.344833  0  2.650303  0  0  0.339544  0  2.607803  0  0  0.508459  0.352282  0  2.676151  0
Cu  Cu1  1  0.61263873  0.96006415  0.68769742  1  0  0.449655  0  2.129005  0  0  0.344663  0  2.65046  0  0  0.339393  0  2.607971  0  0  0.5084  0.352067  0  2.67618  0
H  H2  1  0.76173787  0.26675728  0.33015120  1  0  0.108052  0  0.980896  0  0  0.11531  0  1.049332  0  0  0.118559  0  1.046867  0  0  0.104312  0.112925  0  1.051399  0
H  H3  1  0.23825916  0.73325757  0.66985063  1  0  0.108062  0  0.980824  0  0  0.115291  0  1.04933  0  0  0.118536  0  1.046874  0  0  0.104334  0.112903  0  1.051389  0
H  H4  1  0.02145723  0.44254846  0.27329376  1  0  0.090427  0  0.980523  0  0  0.096687  0  1.049627  0  0  0.098858  0  1.050381  0  0  0.091261  0.095062  0  1.049433  0
H  H5  1  0.97854588  0.55747421  0.72671072  1  0  0.09044  0  0.980546  0  0  0.096691  0  1.049635  0  0  0.098871  0  1.050357  0  0  0.091273  0.095068  0  1.049438  0
H  H6  1  0.00616901  0.49034346  0.08282153  1  0  0.079231  0  0.990281  0  0  0.091341  0  1.052673  0  0  0.093429  0  1.052198  0  0  0.091532  0.0897  0  1.05343  0
H  H7  1  0.99382618  0.50965949  0.91717672  1  0  0.079155  0  0.990255  0  0  0.091257  0  1.052681  0  0  0.093344  0  1.052206  0  0  0.0915  0.089616  0  1.053441  0
H  H8  1  0.73424229  0.36701783  0.93750152  1  0  0.105906  0  0.979758  0  0  0.117162  0  1.044051  0  0  0.120287  0  1.041755  0  0  0.094899  0.114885  0  1.045809  0
H  H9  1  0.26575602  0.63298506  0.06249543  1  0  0.105916  0  0.97964  0  0  0.117145  0  1.043962  0  0  0.120268  0  1.041671  0  0  0.09491  0.114864  0  1.045741  0
H  H10  1  0.21253842  0.99697043  0.04764517  1  0  0.094227  0  0.914934  0  0  0.107753  0  0.970226  0  0  0.110601  0  0.966527  0  0  0.137835  0.104821  0  0.974647  0
H  H11  1  0.78746509  0.00303233  0.95235317  1  0  0.094242  0  0.914872  0  0  0.107779  0  0.970156  0  0  0.110618  0  0.966468  0  0  0.137827  0.104845  0  0.974574  0
H  H12  1  0.22928956  0.02680573  0.85273053  1  0  0.076309  0  0.92565  0  0  0.091877  0  0.985706  0  0  0.092249  0  0.986729  0  0  0.111767  0.09148  0  0.985341  0
H  H13  1  0.77071016  0.97319578  0.14726802  1  0  0.076295  0  0.925639  0  0  0.091861  0  0.985723  0  0  0.092233  0  0.986747  0  0  0.111759  0.091458  0  0.985352  0
H  H14  1  0.42313541  0.10385654  0.82238289  1  0  0.076411  0  0.958464  0  0  0.087004  0  1.033488  0  0  0.088233  0  1.032513  0  0  0.102262  0.085735  0  1.034814  0
H  H15  1  0.57686876  0.89614753  0.17761735  1  0  0.076422  0  0.958472  0  0  0.08703  0  1.033502  0  0  0.088261  0  1.032523  0  0  0.102278  0.085753  0  1.034831  0
H  H16  1  0.49291253  0.41395785  0.89228569  1  0  0.081356  0  0.93312  0  0  0.099689  0  0.994464  0  0  0.100436  0  0.994831  0  0  0.096308  0.099146  0  0.994133  0
H  H17  1  0.50707809  0.58604653  0.10771715  1  0  0.081379  0  0.933038  0  0  0.099693  0  0.994405  0  0  0.100439  0  0.994773  0  0  0.096317  0.099156  0  0.994076  0
H  H18  1  0.30090910  0.34144453  0.92578909  1  0  0.067952  0  0.939613  0  0  0.084749  0  1.004139  0  0  0.085567  0  1.00429  0  0  0.089535  0.083962  0  1.004523  0
H  H19  1  0.69907910  0.65854267  0.07420687  1  0  0.067964  0  0.939611  0  0  0.084784  0  1.004098  0  0  0.085602  0  1.004247  0  0  0.089566  0.083991  0  1.004486  0
H  H20  1  0.29246678  0.40335405  0.73533829  1  0  0.080707  0  0.929097  0  0  0.09607  0  0.99019  0  0  0.095769  0  0.99221  0  0  0.110812  0.096274  0  0.988668  0
H  H21  1  0.70752707  0.59664629  0.26465860  1  0  0.080716  0  0.929107  0  0  0.096109  0  0.99017  0  0  0.095809  0  0.992192  0  0  0.110817  0.096315  0  0.988646  0
H  H22  1  0.35032419  0.25144532  0.68335803  1  0  0.083582  0  0.938881  0  0  0.097654  0  1.003426  0  0  0.097884  0  1.004164  0  0  0.111012  0.098465  0  1.001225  0
H  H23  1  0.64967248  0.74855229  0.31664124  1  0  0.083595  0  0.938842  0  0  0.097684  0  1.003385  0  0  0.097911  0  1.004131  0  0  0.111009  0.098498  0  1.001186  0
H  H24  1  0.24423508  0.95697724  0.57131318  1  0  0.113432  0  0.953061  0  0  0.122569  0  1.017281  0  0  0.12501  0  1.016494  0  0  0.106101  0.120554  0  1.018405  0
H  H25  1  0.75576161  0.04302038  0.42868118  1  0  0.113431  0  0.953059  0  0  0.12256  0  1.017294  0  0  0.125002  0  1.016506  0  0  0.106104  0.120546  0  1.018422  0
H  H26  1  0.05507058  0.64451781  0.45549319  1  0  0.086651  0  0.964241  0  0  0.098883  0  1.025962  0  0  0.10035  0  1.026985  0  0  0.096736  0.097752  0  1.025419  0
H  H27  1  0.94493100  0.35547703  0.54450377  1  0  0.0867  0  0.964179  0  0  0.098907  0  1.025934  0  0  0.100371  0  1.026961  0  0  0.096762  0.097779  0  1.025388  0
H  H28  1  0.75815335  0.48397360  0.45209294  1  0  0.085788  0  0.991267  0  0  0.095489  0  1.057684  0  0  0.097359  0  1.057816  0  0  0.092898  0.094149  0  1.057661  0
H  H29  1  0.24185131  0.51602114  0.54791254  1  0  0.085836  0  0.991218  0  0  0.095556  0  1.057601  0  0  0.097425  0  1.057734  0  0  0.092921  0.094211  0  1.05758  0
H  H30  1  0.63780543  0.63749921  0.55763075  1  0  0.10879  0  0.945669  0  0  0.120416  0  1.003842  0  0  0.123696  0  1.001468  0  0  0.10456  0.118191  0  1.005374  0
H  H31  1  0.36219516  0.36249166  0.44237125  1  0  0.108798  0  0.945696  0  0  0.120441  0  1.003854  0  0  0.123721  0  1.00148  0  0  0.104572  0.118215  0  1.005391  0
H  H32  1  0.00181672  0.27106297  0.78621158  1  0  0.081145  0  0.975617  0  0  0.089696  0  1.045503  0  0  0.091882  0  1.042877  0  0  0.123316  0.087921  0  1.047477  0
H  H33  1  0.99817558  0.72892812  0.21378214  1  0  0.081126  0  0.975547  0  0  0.089701  0  1.045411  0  0  0.09189  0  1.042781  0  0  0.123281  0.087925  0  1.047395  0
C  C34  1  0.60543598  0.22148700  0.16603374  1  0  0.135524  0  3.823664  0  0  0.13608  0  4.0684  0  0  0.138318  0  4.089695  0  0  0.081554  0.134828  0  4.05387  0
C  C35  1  0.39456409  0.77851318  0.83396793  1  0  0.135386  0  3.823823  0  0  0.136  0  4.068476  0  0  0.138241  0  4.089769  0  0  0.081526  0.134744  0  4.053932  0
C  C36  1  0.75739177  0.29097896  0.24640396  1  0  -0.133213  0  3.74515  0  0  -0.151373  0  3.995164  0  0  -0.152297  0  4.013235  0  0  -0.089897  -0.150945  0  3.983093  0
C  C37  1  0.24261009  0.70903710  0.75359860  1  0  -0.133025  0  3.745209  0  0  -0.151223  0  3.995208  0  0  -0.152142  0  4.013268  0  0  -0.089849  -0.150794  0  3.983131  0
C  C38  1  0.89995158  0.38644694  0.21369518  1  0  -0.086131  0  3.790116  0  0  -0.10254  0  4.042948  0  0  -0.105709  0  4.066182  0  0  -0.102141  -0.100458  0  4.027756  0
C  C39  1  0.10005467  0.61357566  0.78630719  1  0  -0.086323  0  3.790369  0  0  -0.102686  0  4.043153  0  0  -0.105853  0  4.066403  0  0  -0.102181  -0.100602  0  4.027941  0
C  C40  1  0.89075650  0.41367597  0.10381331  1  0  -0.096546  0  3.82265  0  0  -0.109336  0  4.07399  0  0  -0.11192  0  4.097446  0  0  -0.107768  -0.107474  0  4.058452  0
C  C41  1  0.10924707  0.58634138  0.89618880  1  0  -0.09639  0  3.822556  0  0  -0.109182  0  4.07386  0  0  -0.111769  0  4.09732  0  0  -0.107717  -0.107321  0  4.058324  0
C  C42  1  0.74025487  0.34639967  0.02260286  1  0  -0.165418  0  3.77855  0  0  -0.185467  0  4.03571  0  0  -0.188624  0  4.056083  0  0  -0.104289  -0.183236  0  4.021495  0
C  C43  1  0.25974886  0.65360972  0.97739648  1  0  -0.165446  0  3.778435  0  0  -0.185493  0  4.035627  0  0  -0.188655  0  4.056015  0  0  -0.104358  -0.183274  0  4.021425  0
C  C44  1  0.59746523  0.24861174  0.05552333  1  0  0.10498  0  3.769671  0  0  0.094865  0  4.010384  0  0  0.098407  0  4.034454  0  0  0.088209  0.092827  0  3.993604  0
C  C45  1  0.40253413  0.75139112  0.94447292  1  0  0.104964  0  3.769872  0  0  0.094867  0  4.010476  0  0  0.098407  0  4.034541  0  0  0.088285  0.092828  0  3.993705  0
C  C46  1  0.34642974  0.08000561  0.07214604  1  0  0.193137  0  3.664617  0  0  0.131489  0  3.936997  0  0  0.148071  0  3.945292  0  0  0.15243  0.120342  0  3.932311  0
C  C47  1  0.65357003  0.91999191  0.92785520  1  0  0.193049  0  3.664655  0  0  0.131381  0  3.937046  0  0  0.147968  0  3.945346  0  0  0.152432  0.120234  0  3.932338  0
C  C48  1  0.35727317  0.13848075  0.87919004  1  0  0.002923  0  3.638476  0  0  -0.058297  0  3.896348  0  0  -0.054418  0  3.908837  0  0  -0.057069  -0.060672  0  3.887772  0
C  C49  1  0.64272683  0.86152342  0.12081056  1  0  0.003026  0  3.638341  0  0  -0.058292  0  3.896309  0  0  -0.05441  0  3.908789  0  0  -0.057078  -0.060626  0  3.887687  0
C  C50  1  0.36366307  0.30468748  0.86701318  1  0  -0.151087  0  3.689629  0  0  -0.19948  0  3.960092  0  0  -0.201283  0  3.972947  0  0  -0.163533  -0.197944  0  3.950855  0
C  C51  1  0.63633418  0.69531542  0.13298856  1  0  -0.151271  0  3.689684  0  0  -0.19961  0  3.960167  0  0  -0.20141  0  3.97302  0  0  -0.163616  -0.198087  0  3.950928  0
C  C52  1  0.28479075  0.28173588  0.74214965  1  0  0.007573  0  3.628335  0  0  -0.050448  0  3.880841  0  0  -0.04609  0  3.892799  0  0  -0.049997  -0.05314  0  3.871156  0
C  C53  1  0.71521410  0.71826950  0.25784923  1  0  0.007605  0  3.628445  0  0  -0.050478  0  3.881011  0  0  -0.046125  0  3.892973  0  0  -0.049978  -0.053174  0  3.871333  0
C  C54  1  0.04511520  0.97056050  0.63115903  1  0  0.093877  0  3.782784  0  0  0.084078  0  4.023922  0  0  0.087512  0  4.047739  0  0  0.088756  0.081442  0  4.008413  0
C  C55  1  0.95488319  0.02943840  0.36883734  1  0  0.093863  0  3.782912  0  0  0.084084  0  4.023961  0  0  0.087519  0  4.04777  0  0  0.088717  0.08145  0  4.008455  0
C  C56  1  0.11400523  0.88862497  0.56995105  1  0  -0.14336  0  3.743876  0  0  -0.161752  0  3.99908  0  0  -0.164409  0  4.019491  0  0  -0.09505  -0.159886  0  3.985671  0
C  C57  1  0.88599487  0.11137522  0.43004571  1  0  -0.143383  0  3.743933  0  0  -0.161783  0  3.99912  0  0  -0.164442  0  4.019535  0  0  -0.095048  -0.159922  0  3.985716  0
C  C58  1  0.00648625  0.71283423  0.50526864  1  0  -0.070123  0  3.762794  0  0  -0.085093  0  4.016409  0  0  -0.087257  0  4.039734  0  0  -0.099276  -0.083549  0  4.000553  0
C  C59  1  0.99351704  0.28716190  0.49472871  1  0  -0.0702  0  3.762818  0  0  -0.085166  0  4.016459  0  0  -0.08733  0  4.039789  0  0  -0.099317  -0.08362  0  4.000594  0
C  C60  1  0.83755071  0.62209129  0.50216239  1  0  -0.090874  0  3.79186  0  0  -0.107295  0  4.046674  0  0  -0.110415  0  4.070687  0  0  -0.104869  -0.105165  0  4.030489  0
C  C61  1  0.16244984  0.37790358  0.49783282  1  0  -0.090806  0  3.791899  0  0  -0.107216  0  4.046653  0  0  -0.110335  0  4.070666  0  0  -0.104838  -0.105085  0  4.030462  0
C  C62  1  0.76886461  0.70518339  0.56157764  1  0  -0.131377  0  3.739521  0  0  -0.149398  0  3.985072  0  0  -0.151091  0  4.004508  0  0  -0.092321  -0.148214  0  3.971923  0
C  C63  1  0.23113554  0.29481281  0.43842100  1  0  -0.131454  0  3.73954  0  0  -0.14954  0  3.985087  0  0  -0.151239  0  4.004525  0  0  -0.092353  -0.148358  0  3.971934  0
C  C64  1  0.87451875  0.88195194  0.62617582  1  0  0.138419  0  3.831221  0  0  0.139565  0  4.075308  0  0  0.141387  0  4.098327  0  0  0.080088  0.137965  0  4.060508  0
C  C65  1  0.12547496  0.11803779  0.37381787  1  0  0.138491  0  3.831104  0  0  0.139733  0  4.075016  0  0  0.141556  0  4.098032  0  0  0.08012  0.13813  0  4.060219  0
C  C66  1  0.98443250  0.14973919  0.73397745  1  0  0.179594  0  3.686885  0  0  0.121891  0  3.954572  0  0  0.137616  0  3.964212  0  0  0.142836  0.11221  0  3.947076  0
C  C67  1  0.01556328  0.85025048  0.26602055  1  0  0.179713  0  3.686542  0  0  0.121991  0  3.954222  0  0  0.13771  0  3.96386  0  0  0.142925  0.112311  0  3.94675  0
C  C68  1  0.41121524  0.78910821  0.43400575  1  0  0.289652  0  3.981996  0  0  0.282523  0  4.270969  0  0  0.299527  0  4.284478  0  0  0.136208  0.271165  0  4.261  0
C  C69  1  0.58880442  0.21089542  0.56601747  1  0  0.289602  0  3.981471  0  0  0.28248  0  4.270512  0  0  0.299497  0  4.284024  0  0  0.136142  0.271127  0  4.260552  0
S  S70  1  0.34290564  0.75551594  0.29512959  1  0  -0.401995  0  2.344724  0  0  -0.378892  0  2.722463  0  0  -0.385161  0  2.70472  0  0  -0.193677  -0.375124  0  2.733438  0
S  S71  1  0.65710372  0.24446941  0.70487178  1  0  -0.401719  0  2.345447  0  0  -0.37861  0  2.723193  0  0  -0.384867  0  2.705435  0  0  -0.193542  -0.374864  0  2.734163  0
N  N72  1  0.44590288  0.11538739  0.17357200  1  0  -0.383606  0  3.330281  0  0  -0.33243  0  3.663674  0  0  -0.341721  0  3.663821  0  0  -0.37992  -0.32691  0  3.663234  0
N  N73  1  0.55409964  0.88461140  0.82643056  1  0  -0.383414  0  3.330337  0  0  -0.332288  0  3.663766  0  0  -0.341587  0  3.663921  0  0  -0.379885  -0.326742  0  3.663237  0
N  N74  1  0.43019005  0.15629877  0.99772759  1  0  -0.121518  0  3.509641  0  0  -0.030506  0  3.730372  0  0  -0.047618  0  3.755989  0  0  -0.243416  -0.019158  0  3.712698  0
N  N75  1  0.56980721  0.84370414  0.00227088  1  0  -0.121503  0  3.50956  0  0  -0.030423  0  3.730239  0  0  -0.047532  0  3.75585  0  0  -0.24342  -0.01909  0  3.71256  0
N  N76  1  0.11151226  0.14085800  0.70155511  1  0  -0.127946  0  3.528964  0  0  -0.035367  0  3.743427  0  0  -0.052558  0  3.769183  0  0  -0.247072  -0.023667  0  3.725303  0
N  N77  1  0.88848791  0.85913820  0.29844189  1  0  -0.127997  0  3.529079  0  0  -0.035463  0  3.743592  0  0  -0.052651  0  3.769349  0  0  -0.247139  -0.02376  0  3.725472  0
N  N78  1  0.84089035  0.99874025  0.69082919  1  0  -0.392368  0  3.319681  0  0  -0.338684  0  3.637485  0  0  -0.349963  0  3.642085  0  0  -0.378384  -0.332097  0  3.633801  0
N  N79  1  0.15910607  0.00125072  0.30917153  1  0  -0.392558  0  3.319462  0  0  -0.338884  0  3.637199  0  0  -0.350154  0  3.64179  0  0  -0.378409  -0.332302  0  3.633574  0
N  N80  1  0.46295360  0.81823032  0.53483006  1  0  -0.519771  0  3.097639  0  0  -0.471166  0  3.423239  0  0  -0.479888  0  3.419844  0  0  -0.434944  -0.466251  0  3.425156  0
N  N81  1  0.53703869  0.18176076  0.46516448  1  0  -0.520103  0  3.096592  0  0  -0.471497  0  3.422235  0  0  -0.480218  0  3.418828  0  0  -0.435115  -0.466607  0  3.424237  0
