# generated using pymatgen
data_V2AsH13C15N3O8
_symmetry_space_group_name_H-M   'P 1'
_cell_length_a   7.86773995
_cell_length_b   10.12342537
_cell_length_c   12.03491003
_cell_angle_alpha   111.89514581
_cell_angle_beta   95.28828570
_cell_angle_gamma   97.30875724
_symmetry_Int_Tables_number   1
_chemical_formula_structural   V2AsH13C15N3O8
_chemical_formula_sum   'V4 As2 H26 C30 N6 O16'
_cell_volume   871.98360927
_cell_formula_units_Z   2
loop_
 _symmetry_equiv_pos_site_id
 _symmetry_equiv_pos_as_xyz
  1  'x, y, z'
loop_
 _atom_site_type_symbol
 _atom_site_label
 _atom_site_symmetry_multiplicity
 _atom_site_fract_x
 _atom_site_fract_y
 _atom_site_fract_z
 _atom_site_occupancy
 _atom_site_hle17_bader_spin_density
 _atom_site_hle17_ddec_charge
 _atom_site_hle17_ddec_spin_density
 _atom_site_hle17_ddec_sum_bond_order
 _atom_site_hle17_magmom
 _atom_site_hse06_10hf_bader_spin_density
 _atom_site_hse06_10hf_ddec_charge
 _atom_site_hse06_10hf_ddec_spin_density
 _atom_site_hse06_10hf_ddec_sum_bond_order
 _atom_site_hse06_10hf_magmom
 _atom_site_hse06_bader_spin_density
 _atom_site_hse06_ddec_charge
 _atom_site_hse06_ddec_spin_density
 _atom_site_hse06_ddec_sum_bond_order
 _atom_site_hse06_magmom
 _atom_site_pbe_bader_spin_density
 _atom_site_pbe_cm5_charge
 _atom_site_pbe_ddec_charge
 _atom_site_pbe_ddec_spin_density
 _atom_site_pbe_ddec_sum_bond_order
 _atom_site_pbe_magmom
V  V0  1  0.49846875  0.23776016  0.69466044  1  0  1.895016  0  2.969031  0  0  1.93143  0  3.380715  0  0  2.020008  0  3.360114  0  0  1.451524  1.866479  0  3.404082  0
V  V1  1  0.50153453  0.76224460  0.30534208  1  0  1.894906  0  2.969179  0  0  1.931389  0  3.380767  0  0  2.019905  0  3.360269  0  0  1.451554  1.866461  0  3.404082  0
V  V2  1  0.08052612  0.17103153  0.37840104  1  0  1.896955  0  2.970562  0  0  1.936162  0  3.37834  0  0  2.023047  0  3.36125  0  0  1.456125  1.871218  0  3.401581  0
V  V3  1  0.91947094  0.82897418  0.62160224  1  0  1.897093  0  2.970438  0  0  1.93635  0  3.378117  0  0  2.023191  0  3.361111  0  0  1.45619  1.871451  0  3.401271  0
As  As4  1  0.76437460  0.05832901  0.51179907  1  0  1.891075  0  4.032533  0  0  1.850189  0  4.503857  0  0  1.923894  0  4.442452  0  0  0.69916  1.798376  0  4.543993  0
As  As5  1  0.23562691  0.94168004  0.48820391  1  0  1.891049  0  4.032428  0  0  1.850156  0  4.503751  0  0  1.923858  0  4.44235  0  0  0.699132  1.798344  0  4.543886  0
H  H6  1  0.09276483  0.20226920  0.71799294  1  0  0.099385  0  0.95569  0  0  0.100646  0  1.028221  0  0  0.104408  0  1.023427  0  0  0.120809  0.097674  0  1.031863  0
H  H7  1  0.90724745  0.79773584  0.28200441  1  0  0.099361  0  0.955746  0  0  0.100718  0  1.028147  0  0  0.104492  0  1.023342  0  0  0.12086  0.097741  0  1.031793  0
H  H8  1  0.54070305  0.35807638  0.96721695  1  0  0.077936  0  0.986471  0  0  0.087229  0  1.051264  0  0  0.089937  0  1.049109  0  0  0.113871  0.08533  0  1.052623  0
H  H9  1  0.45929861  0.64191969  0.03278514  1  0  0.07797  0  0.986361  0  0  0.087262  0  1.05117  0  0  0.089954  0  1.049034  0  0  0.113853  0.085365  0  1.052524  0
H  H10  1  0.90579285  0.26702277  0.87682496  1  0  0.138532  0  0.978324  0  0  0.151038  0  1.03337  0  0  0.156041  0  1.029997  0  0  0.108888  0.147435  0  1.035862  0
H  H11  1  0.09421595  0.73297031  0.12317078  1  0  0.138427  0  0.978324  0  0  0.150931  0  1.033407  0  0  0.155915  0  1.03006  0  0  0.108857  0.147336  0  1.035873  0
H  H12  1  0.77040354  0.28865989  0.02211323  1  0  0.123527  0  0.957278  0  0  0.132643  0  1.018066  0  0  0.136204  0  1.01684  0  0  0.114789  0.130152  0  1.018929  0
H  H13  1  0.22959724  0.71133108  0.97787136  1  0  0.123601  0  0.957441  0  0  0.13269  0  1.018248  0  0  0.13627  0  1.016974  0  0  0.114771  0.130195  0  1.019113  0
H  H14  1  0.61534629  0.37783236  0.20328637  1  0  0.099107  0  0.94251  0  0  0.110427  0  0.999734  0  0  0.112704  0  0.99798  0  0  0.131582  0.108712  0  1.001132  0
H  H15  1  0.38465097  0.62216725  0.79669666  1  0  0.099026  0  0.942415  0  0  0.110372  0  0.999638  0  0  0.112649  0  0.997884  0  0  0.13151  0.108656  0  1.001037  0
H  H16  1  0.25033903  0.51074957  0.26797724  1  0  0.129557  0  0.98588  0  0  0.137001  0  1.045872  0  0  0.141405  0  1.043384  0  0  0.117511  0.133965  0  1.04757  0
H  H17  1  0.74965828  0.48923672  0.73202140  1  0  0.129475  0  0.986044  0  0  0.136952  0  1.046008  0  0  0.141353  0  1.043526  0  0  0.117506  0.133922  0  1.047697  0
H  H18  1  0.46904063  0.15523036  0.35718883  1  0  0.099591  0  0.938314  0  0  0.104227  0  1.004988  0  0  0.107748  0  1.000604  0  0  0.125975  0.10151  0  1.008199  0
H  H19  1  0.53096197  0.84479162  0.64281926  1  0  0.099663  0  0.938356  0  0  0.1043  0  1.00502  0  0  0.107821  0  1.000636  0  0  0.125988  0.10158  0  1.008231  0
H  H20  1  0.04501314  0.09897617  0.10479147  1  0  0.078433  0  0.982184  0  0  0.087804  0  1.047634  0  0  0.090388  0  1.04524  0  0  0.114335  0.086013  0  1.049171  0
H  H21  1  0.95498202  0.90102620  0.89521394  1  0  0.07839  0  0.982287  0  0  0.087774  0  1.047721  0  0  0.090359  0  1.045328  0  0  0.114363  0.085983  0  1.049258  0
H  H22  1  0.65536327  0.07275887  0.20094080  1  0  0.133909  0  0.977603  0  0  0.146346  0  1.03285  0  0  0.15092  0  1.029953  0  0  0.109596  0.143064  0  1.035078  0
H  H23  1  0.34463989  0.92725229  0.79906712  1  0  0.133953  0  0.977605  0  0  0.146379  0  1.032861  0  0  0.150953  0  1.029963  0  0  0.109604  0.143095  0  1.035093  0
H  H24  1  0.37754710  0.43431004  0.14084273  1  0  0.113893  0  0.997546  0  0  0.123736  0  1.059466  0  0  0.128075  0  1.056422  0  0  0.109603  0.12073  0  1.061466  0
H  H25  1  0.62245168  0.56567731  0.85915884  1  0  0.113947  0  0.997475  0  0  0.123747  0  1.059444  0  0  0.128086  0  1.056399  0  0  0.109641  0.12073  0  1.061495  0
H  H26  1  0.21059091  0.00796657  0.93226231  1  0  0.117269  0  0.972687  0  0  0.1288  0  1.031132  0  0  0.132581  0  1.029227  0  0  0.109298  0.126049  0  1.032718  0
H  H27  1  0.78940332  0.99202387  0.06774248  1  0  0.117241  0  0.972651  0  0  0.128747  0  1.031131  0  0  0.132528  0  1.029228  0  0  0.109298  0.125998  0  1.032714  0
H  H28  1  0.07429296  0.58857028  0.43364253  1  0  0.112886  0  0.923443  0  0  0.120202  0  0.982217  0  0  0.123545  0  0.97829  0  0  0.139986  0.117586  0  0.985266  0
H  H29  1  0.92569317  0.41142454  0.56635238  1  0  0.112889  0  0.923408  0  0  0.120171  0  0.982262  0  0  0.123515  0  0.978334  0  0  0.139981  0.117553  0  0.985309  0
H  H30  1  0.77870813  0.53168390  0.39392597  1  0  0.336027  0  0.859533  0  0  0.319603  0  0.913077  0  0  0.329675  0  0.904231  0  0  0.326064  0.312282  0  0.919746  0
H  H31  1  0.22127758  0.46831542  0.60606041  1  0  0.336202  0  0.859285  0  0  0.319779  0  0.912831  0  0  0.329853  0  0.903977  0  0  0.326141  0.312454  0  0.919512  0
C  C32  1  0.14994202  0.25308238  0.81319741  1  0  0.154182  0  3.646883  0  0  0.125488  0  3.909302  0  0  0.134228  0  3.925649  0  0  0.054951  0.119464  0  3.898591  0
C  C33  1  0.85007220  0.74691936  0.18680397  1  0  0.154289  0  3.646584  0  0  0.125526  0  3.908973  0  0  0.134256  0  3.925322  0  0  0.054932  0.119501  0  3.898265  0
C  C34  1  0.39980413  0.34043710  0.95335768  1  0  0.115436  0  3.738555  0  0  0.090197  0  3.991553  0  0  0.097413  0  4.010455  0  0  0.04167  0.085497  0  3.978141  0
C  C35  1  0.60020521  0.65955908  0.04664658  1  0  0.115275  0  3.738804  0  0  0.090033  0  3.991787  0  0  0.097257  0  4.010695  0  0  0.041682  0.085338  0  3.978369  0
C  C36  1  0.04622417  0.28869062  0.90425962  1  0  -0.15357  0  3.636156  0  0  -0.172715  0  3.877577  0  0  -0.180432  0  3.897438  0  0  -0.078285  -0.167702  0  3.864603  0
C  C37  1  0.95377328  0.71130330  0.09573735  1  0  -0.153515  0  3.636446  0  0  -0.172647  0  3.877913  0  0  -0.180365  0  3.897787  0  0  -0.078277  -0.167622  0  3.864931  0
C  C38  1  0.12470569  0.35444167  0.02607370  1  0  0.083054  0  3.746419  0  0  0.097045  0  3.976103  0  0  0.099761  0  3.997845  0  0  0.01176  0.095415  0  3.961074  0
C  C39  1  0.87530561  0.64555129  0.97393047  1  0  0.082997  0  3.746426  0  0  0.096924  0  3.976178  0  0  0.099641  0  3.997918  0  0  0.011688  0.095288  0  3.961157  0
C  C40  1  0.30652520  0.38067816  0.04911680  1  0  -0.150531  0  3.704352  0  0  -0.170816  0  3.950362  0  0  -0.177589  0  3.969782  0  0  -0.079861  -0.166288  0  3.936764  0
C  C41  1  0.69347064  0.61930702  0.95088140  1  0  -0.150354  0  3.703852  0  0  -0.170565  0  3.949839  0  0  -0.177333  0  3.969254  0  0  -0.079818  -0.166051  0  3.936242  0
C  C42  1  0.02469483  0.39576830  0.12822891  1  0  0.11956  0  3.709088  0  0  0.12775  0  3.941742  0  0  0.134057  0  3.961813  0  0  0.030931  0.123725  0  3.928193  0
C  C43  1  0.97529660  0.60421367  0.87176299  1  0  0.119537  0  3.709135  0  0  0.127773  0  3.941769  0  0  0.134077  0  3.961843  0  0  0.030967  0.123751  0  3.928216  0
C  C44  1  0.84305876  0.35553099  0.11135397  1  0  -0.151932  0  3.655297  0  0  -0.172301  0  3.912584  0  0  -0.180972  0  3.932454  0  0  -0.071014  -0.167147  0  3.8997  0
C  C45  1  0.15694867  0.64446856  0.88864213  1  0  -0.15216  0  3.655126  0  0  -0.172504  0  3.91236  0  0  -0.181168  0  3.93223  0  0  -0.070996  -0.167346  0  3.899474  0
C  C46  1  0.75493088  0.40208151  0.20913887  1  0  0.172365  0  3.603979  0  0  0.130009  0  3.857324  0  0  0.139792  0  3.871781  0  0  0.07261  0.12346  0  3.848142  0
C  C47  1  0.24505947  0.59790824  0.79084219  1  0  0.17273  0  3.604122  0  0  0.130349  0  3.857426  0  0  0.140125  0  3.871891  0  0  0.072755  0.123801  0  3.848238  0
C  C48  1  0.01612109  0.52100315  0.34117048  1  0  0.194567  0  3.580259  0  0  0.151311  0  3.83525  0  0  0.16297  0  3.846286  0  0  0.088173  0.143641  0  3.828043  0
C  C49  1  0.98386517  0.47898533  0.65881574  1  0  0.194645  0  3.579859  0  0  0.151364  0  3.834985  0  0  0.163024  0  3.846015  0  0  0.088127  0.143693  0  3.827783  0
C  C50  1  0.11026571  0.47715228  0.24660107  1  0  -0.127607  0  3.625314  0  0  -0.146994  0  3.873824  0  0  -0.155538  0  3.891905  0  0  -0.057485  -0.141603  0  3.861834  0
C  C51  1  0.88973131  0.52283936  0.75340096  1  0  -0.127535  0  3.62539  0  0  -0.146953  0  3.87394  0  0  -0.155504  0  3.892041  0  0  -0.057518  -0.141564  0  3.861939  0
C  C52  1  0.41726465  0.12269973  0.26179529  1  0  0.158602  0  3.654171  0  0  0.129659  0  3.911937  0  0  0.139294  0  3.926066  0  0  0.059651  0.123613  0  3.901524  0
C  C53  1  0.58273794  0.87730828  0.73820659  1  0  0.158427  0  3.654097  0  0  0.129481  0  3.91183  0  0  0.139112  0  3.925956  0  0  0.059584  0.123444  0  3.901412  0
C  C54  1  0.18036477  0.08885586  0.11963788  1  0  0.124007  0  3.725967  0  0  0.097707  0  3.97794  0  0  0.106072  0  3.996124  0  0  0.043517  0.092377  0  3.964873  0
C  C55  1  0.81963562  0.91114020  0.88036330  1  0  0.124062  0  3.725868  0  0  0.097741  0  3.977842  0  0  0.106101  0  3.996025  0  0  0.043509  0.092412  0  3.96478  0
C  C56  1  0.52012415  0.07376719  0.17216267  1  0  -0.151652  0  3.653316  0  0  -0.172039  0  3.899412  0  0  -0.179144  0  3.917432  0  0  -0.076087  -0.167475  0  3.887074  0
C  C57  1  0.47987395  0.92623733  0.82784694  1  0  -0.151787  0  3.653436  0  0  -0.172141  0  3.89954  0  0  -0.179246  0  3.917561  0  0  -0.076114  -0.167575  0  3.887201  0
C  C58  1  0.27418495  0.03847303  0.02473673  1  0  -0.165824  0  3.709005  0  0  -0.183313  0  3.953973  0  0  -0.191074  0  3.974662  0  0  -0.08472  -0.178353  0  3.939792  0
C  C59  1  0.72580733  0.96152062  0.97526815  1  0  -0.165804  0  3.708808  0  0  -0.183255  0  3.953856  0  0  -0.191013  0  3.974543  0  0  -0.084678  -0.178294  0  3.93967  0
C  C60  1  0.44861416  0.02803363  0.04955221  1  0  0.091388  0  3.744706  0  0  0.103686  0  3.975134  0  0  0.1076  0  3.996567  0  0  0.011205  0.101467  0  3.960108  0
C  C61  1  0.55138619  0.97196231  0.95045474  1  0  0.091614  0  3.745061  0  0  0.10377  0  3.975598  0  0  0.107684  0  3.997029  0  0  0.011129  0.10155  0  3.960571  0
N  N62  1  0.32424382  0.27821558  0.83701577  1  0  -0.333475  0  3.269213  0  0  -0.287617  0  3.538267  0  0  -0.309947  0  3.565622  0  0  -0.350162  -0.271922  0  3.519394  0
N  N63  1  0.67575078  0.72178367  0.16298277  1  0  -0.333568  0  3.269081  0  0  -0.287713  0  3.538154  0  0  -0.310033  0  3.565506  0  0  -0.350229  -0.272021  0  3.519283  0
N  N64  1  0.84247773  0.48534296  0.32038608  1  0  -0.205465  0  3.433677  0  0  -0.128295  0  3.646311  0  0  -0.143802  0  3.659222  0  0  -0.330556  -0.118257  0  3.638087  0
N  N65  1  0.15752260  0.51465966  0.67961225  1  0  -0.205783  0  3.433909  0  0  -0.128598  0  3.646569  0  0  -0.144102  0  3.659474  0  0  -0.330629  -0.118561  0  3.63835  0
N  N66  1  0.24893734  0.12884947  0.23606264  1  0  -0.329167  0  3.274508  0  0  -0.280197  0  3.538366  0  0  -0.302182  0  3.564106  0  0  -0.354868  -0.264608  0  3.520149  0
N  N67  1  0.75106011  0.87115838  0.76394219  1  0  -0.329167  0  3.274603  0  0  -0.280153  0  3.538406  0  0  -0.302126  0  3.564144  0  0  -0.354844  -0.264577  0  3.52019  0
O  O68  1  0.60921207  0.16583453  0.55102258  1  0  -0.908561  0  1.730382  0  0  -0.890266  0  2.002881  0  0  -0.926631  0  1.985261  0  0  -0.467763  -0.863378  0  2.014552  0
O  O69  1  0.39079430  0.83418006  0.44897917  1  0  -0.908484  0  1.730369  0  0  -0.890215  0  2.002893  0  0  -0.926565  0  1.985276  0  0  -0.467748  -0.863333  0  2.014562  0
O  O70  1  0.95306923  0.16162679  0.50701508  1  0  -0.92457  0  1.77573  0  0  -0.908479  0  2.060944  0  0  -0.944866  0  2.044109  0  0  -0.471291  -0.881045  0  2.071559  0
O  O71  1  0.04693934  0.83837908  0.49299145  1  0  -0.924578  0  1.775639  0  0  -0.908509  0  2.060867  0  0  -0.944896  0  2.044048  0  0  -0.471274  -0.881088  0  2.071483  0
O  O72  1  0.81369374  0.99294731  0.62061771  1  0  -0.922221  0  1.805616  0  0  -0.910777  0  2.100896  0  0  -0.944791  0  2.083335  0  0  -0.467411  -0.88543  0  2.112301  0
O  O73  1  0.18630649  0.00706172  0.37938519  1  0  -0.922171  0  1.805504  0  0  -0.910696  0  2.100762  0  0  -0.94472  0  2.083197  0  0  -0.467396  -0.885342  0  2.112176  0
O  O74  1  0.68929169  0.92770526  0.37071868  1  0  -0.930492  0  1.816297  0  0  -0.922408  0  2.121623  0  0  -0.95644  0  2.102637  0  0  -0.469718  -0.89707  0  2.133793  0
O  O75  1  0.31071670  0.07229957  0.62928501  1  0  -0.930522  0  1.816293  0  0  -0.922383  0  2.121571  0  0  -0.95642  0  2.102574  0  0  -0.469725  -0.897048  0  2.13375  0
O  O76  1  0.65516427  0.25783353  0.80234468  1  0  -0.771531  0  1.360869  0  0  -0.79056  0  1.632667  0  0  -0.822131  0  1.628987  0  0  -0.600056  -0.768173  0  1.635628  0
O  O77  1  0.34484001  0.74217667  0.19765801  1  0  -0.771457  0  1.360806  0  0  -0.790501  0  1.632597  0  0  -0.822048  0  1.628926  0  0  -0.600059  -0.768124  0  1.635548  0
O  O78  1  0.47773652  0.39595092  0.69177908  1  0  -0.767729  0  1.335097  0  0  -0.781647  0  1.589723  0  0  -0.81202  0  1.582708  0  0  -0.600162  -0.760138  0  1.595352  0
O  O79  1  0.52226164  0.60405378  0.30822144  1  0  -0.767727  0  1.335177  0  0  -0.781674  0  1.589811  0  0  -0.812031  0  1.582806  0  0  -0.600198  -0.760171  0  1.59543  0
O  O80  1  0.18162151  0.33935995  0.44882679  1  0  -0.782124  0  1.336175  0  0  -0.798724  0  1.591717  0  0  -0.830053  0  1.585512  0  0  -0.599666  -0.775798  0  1.597004  0
O  O81  1  0.81839004  0.66064818  0.55117816  1  0  -0.782159  0  1.336178  0  0  -0.798774  0  1.591693  0  0  -0.830088  0  1.5855  0  0  -0.59977  -0.775862  0  1.596966  0
O  O82  1  0.92236228  0.15811373  0.27425902  1  0  -0.779919  0  1.360758  0  0  -0.803273  0  1.63177  0  0  -0.834224  0  1.629079  0  0  -0.604427  -0.780944  0  1.634902  0
O  O83  1  0.07763420  0.84190272  0.72574855  1  0  -0.779888  0  1.360679  0  0  -0.803309  0  1.631776  0  0  -0.834251  0  1.629099  0  0  -0.604402  -0.780973  0  1.634857  0
