# generated using pymatgen
data_CaH6C6SO6
_symmetry_space_group_name_H-M   'P 1'
_cell_length_a   7.52948630
_cell_length_b   8.00333759
_cell_length_c   15.17744128
_cell_angle_alpha   89.99998987
_cell_angle_beta   102.96955372
_cell_angle_gamma   89.99990396
_symmetry_Int_Tables_number   1
_chemical_formula_structural   CaH6C6SO6
_chemical_formula_sum   'Ca4 H24 C24 S4 O24'
_cell_volume   891.27596077
_cell_formula_units_Z   4
loop_
 _symmetry_equiv_pos_site_id
 _symmetry_equiv_pos_as_xyz
  1  'x, y, z'
loop_
 _atom_site_type_symbol
 _atom_site_label
 _atom_site_symmetry_multiplicity
 _atom_site_fract_x
 _atom_site_fract_y
 _atom_site_fract_z
 _atom_site_occupancy
 _atom_site_hle17_bader_spin_density
 _atom_site_hle17_ddec_charge
 _atom_site_hle17_ddec_spin_density
 _atom_site_hle17_ddec_sum_bond_order
 _atom_site_hle17_magmom
 _atom_site_hse06_10hf_bader_spin_density
 _atom_site_hse06_10hf_ddec_charge
 _atom_site_hse06_10hf_ddec_spin_density
 _atom_site_hse06_10hf_ddec_sum_bond_order
 _atom_site_hse06_10hf_magmom
 _atom_site_hse06_bader_spin_density
 _atom_site_hse06_ddec_charge
 _atom_site_hse06_ddec_spin_density
 _atom_site_hse06_ddec_sum_bond_order
 _atom_site_hse06_magmom
 _atom_site_pbe_bader_spin_density
 _atom_site_pbe_cm5_charge
 _atom_site_pbe_ddec_charge
 _atom_site_pbe_ddec_spin_density
 _atom_site_pbe_ddec_sum_bond_order
 _atom_site_pbe_magmom
Ca  Ca0  1  0.97254868  0.39859654  0.87694636  1  0  1.58672  0  1.094538  0  0  1.458676  0  1.448608  0  0  1.50139  0  1.402376  0  0  0.929401  1.426786  0  1.481093  0
Ca  Ca1  1  0.52745264  0.89859592  0.12305424  1  0  1.586717  0  1.094505  0  0  1.458678  0  1.448574  0  0  1.501389  0  1.402347  0  0  0.929397  1.426771  0  1.481091  0
Ca  Ca2  1  0.02745149  0.60140405  0.12305381  1  0  1.586691  0  1.094568  0  0  1.458641  0  1.448641  0  0  1.501361  0  1.402401  0  0  0.929389  1.426724  0  1.481186  0
Ca  Ca3  1  0.47254889  0.10140342  0.87694674  1  0  1.586727  0  1.09453  0  0  1.458681  0  1.448603  0  0  1.501394  0  1.402375  0  0  0.929403  1.426775  0  1.481134  0
H  H4  1  0.93252720  0.14514620  0.06768281  1  0  0.021837  0  0.911037  0  0  0.03041  0  0.979501  0  0  0.031532  0  0.973619  0  0  0.130683  0.029318  0  0.983954  0
H  H5  1  0.56747324  0.64514524  0.93231772  1  0  0.021812  0  0.91108  0  0  0.030391  0  0.979532  0  0  0.031511  0  0.973652  0  0  0.130702  0.029297  0  0.983987  0
H  H6  1  0.06747433  0.85485814  0.93231751  1  0  0.021789  0  0.91109  0  0  0.030366  0  0.979548  0  0  0.031487  0  0.973668  0  0  0.130693  0.029275  0  0.984003  0
H  H7  1  0.43252829  0.35485535  0.06768261  1  0  0.021822  0  0.911075  0  0  0.030394  0  0.979543  0  0  0.031517  0  0.97366  0  0  0.130682  0.029304  0  0.983996  0
H  H8  1  0.05031577  0.70387742  0.78267709  1  0  0.434736  0  0.860937  0  0  0.404289  0  0.92379  0  0  0.414364  0  0.908967  0  0  0.302933  0.397143  0  0.934287  0
H  H9  1  0.44968305  0.20387705  0.21732261  1  0  0.434742  0  0.860934  0  0  0.404296  0  0.923785  0  0  0.414371  0  0.908962  0  0  0.302934  0.39715  0  0.934282  0
H  H10  1  0.94968304  0.29612317  0.21732292  1  0  0.434756  0  0.860916  0  0  0.404307  0  0.92377  0  0  0.414382  0  0.908947  0  0  0.30294  0.397162  0  0.934265  0
H  H11  1  0.55031576  0.79612354  0.78267675  1  0  0.434749  0  0.860922  0  0  0.404305  0  0.923769  0  0  0.41438  0  0.908946  0  0  0.302947  0.397161  0  0.934265  0
H  H12  1  0.23213926  0.60161494  0.78784484  1  0  0.442054  0  0.850253  0  0  0.41132  0  0.912469  0  0  0.421781  0  0.897052  0  0  0.304288  0.403918  0  0.923356  0
H  H13  1  0.26786111  0.10161486  0.21215571  1  0  0.442056  0  0.85025  0  0  0.411323  0  0.912463  0  0  0.421784  0  0.897046  0  0  0.304294  0.403918  0  0.923355  0
H  H14  1  0.76786227  0.39838690  0.21215548  1  0  0.442072  0  0.850233  0  0  0.41133  0  0.912461  0  0  0.421792  0  0.897044  0  0  0.304308  0.403928  0  0.923348  0
H  H15  1  0.73213769  0.89838698  0.78784431  1  0  0.442074  0  0.850228  0  0  0.411337  0  0.912446  0  0  0.421799  0  0.897028  0  0  0.304308  0.403936  0  0.923333  0
H  H16  1  0.33829272  0.07475846  0.47792833  1  0  0.092791  0  0.963901  0  0  0.103122  0  1.023045  0  0  0.105144  0  1.024037  0  0  0.101897  0.101674  0  1.022442  0
H  H17  1  0.16170907  0.57475874  0.52207041  1  0  0.092777  0  0.963863  0  0  0.103102  0  1.023022  0  0  0.105126  0  1.024014  0  0  0.101864  0.101652  0  1.022416  0
H  H18  1  0.66170881  0.92523838  0.52207134  1  0  0.09278  0  0.963889  0  0  0.103118  0  1.023031  0  0  0.105141  0  1.024021  0  0  0.101879  0.101671  0  1.022425  0
H  H19  1  0.83829519  0.42524060  0.47792957  1  0  0.092804  0  0.963903  0  0  0.103144  0  1.023039  0  0  0.105166  0  1.024029  0  0  0.101893  0.101695  0  1.022432  0
H  H20  1  0.62327313  0.72838177  0.63963905  1  0  0.106914  0  0.969938  0  0  0.113901  0  1.035038  0  0  0.117793  0  1.03186  0  0  0.106851  0.111066  0  1.037407  0
H  H21  1  0.87672580  0.22838397  0.36036064  1  0  0.106866  0  0.970019  0  0  0.113879  0  1.035091  0  0  0.11778  0  1.03189  0  0  0.106853  0.111048  0  1.037458  0
H  H22  1  0.37672705  0.27161507  0.36036046  1  0  0.106926  0  0.969931  0  0  0.113928  0  1.03501  0  0  0.117829  0  1.031807  0  0  0.106885  0.111098  0  1.037373  0
H  H23  1  0.12327572  0.77161538  0.63964035  1  0  0.106882  0  0.969988  0  0  0.11393  0  1.035019  0  0  0.117828  0  1.031823  0  0  0.106897  0.1111  0  1.037379  0
H  H24  1  0.40539504  0.16076750  0.63993204  1  0  0.113797  0  0.953338  0  0  0.121617  0  1.015893  0  0  0.12531  0  1.013327  0  0  0.11528  0.11893  0  1.017794  0
H  H25  1  0.09460114  0.66076919  0.36006605  1  0  0.113736  0  0.953286  0  0  0.121551  0  1.015859  0  0  0.125244  0  1.013294  0  0  0.115232  0.118865  0  1.017757  0
H  H26  1  0.59460377  0.83922934  0.36006600  1  0  0.113726  0  0.953301  0  0  0.121547  0  1.015865  0  0  0.12524  0  1.0133  0  0  0.115242  0.118862  0  1.017761  0
H  H27  1  0.90539903  0.33923140  0.63993412  1  0  0.11375  0  0.953276  0  0  0.121569  0  1.015845  0  0  0.125262  0  1.01328  0  0  0.115238  0.118882  0  1.01774  0
C  C28  1  0.80277116  0.14421170  0.01610401  1  0  0.617876  0  3.904001  0  0  0.547515  0  4.211028  0  0  0.582304  0  4.200242  0  0  0.177438  0.523834  0  4.21762  0
C  C29  1  0.69722519  0.64421427  0.98389671  1  0  0.617937  0  3.904105  0  0  0.547575  0  4.211138  0  0  0.582365  0  4.20035  0  0  0.177406  0.523899  0  4.217723  0
C  C30  1  0.19722627  0.85578889  0.98389651  1  0  0.61799  0  3.904073  0  0  0.547627  0  4.211103  0  0  0.582416  0  4.200316  0  0  0.177472  0.523943  0  4.217698  0
C  C31  1  0.30277224  0.35578882  0.01610447  1  0  0.617861  0  3.90404  0  0  0.547497  0  4.21107  0  0  0.582286  0  4.200284  0  0  0.177436  0.52381  0  4.217667  0
C  C32  1  0.48967716  0.40749075  0.61242861  1  0  -0.172901  0  3.703654  0  0  -0.152274  0  3.953913  0  0  -0.160571  0  3.975548  0  0  -0.014907  -0.146991  0  3.939624  0
C  C33  1  0.01032399  0.90749257  0.38757135  1  0  -0.173065  0  3.703708  0  0  -0.152436  0  3.953996  0  0  -0.160731  0  3.975632  0  0  -0.014951  -0.147158  0  3.939717  0
C  C34  1  0.51032438  0.59250734  0.38757040  1  0  -0.172957  0  3.703654  0  0  -0.152283  0  3.953854  0  0  -0.160568  0  3.975501  0  0  -0.014882  -0.147004  0  3.939566  0
C  C35  1  0.98967481  0.09251052  0.61242933  1  0  -0.172813  0  3.703476  0  0  -0.152201  0  3.953773  0  0  -0.160489  0  3.975407  0  0  -0.014865  -0.146919  0  3.939483  0
C  C36  1  0.52090572  0.52554399  0.54675493  1  0  0.051162  0  3.756866  0  0  0.061486  0  3.98334  0  0  0.061862  0  4.007445  0  0  0.000644  0.061262  0  3.967101  0
C  C37  1  0.97909224  0.02554599  0.45324532  1  0  0.051327  0  3.756779  0  0  0.061611  0  3.983304  0  0  0.061974  0  4.007412  0  0  0.000671  0.061385  0  3.967077  0
C  C38  1  0.47909173  0.47445535  0.45324427  1  0  0.051375  0  3.756729  0  0  0.061681  0  3.983185  0  0  0.062  0  4.007342  0  0  0.000704  0.061453  0  3.966953  0
C  C39  1  0.02090793  0.97445460  0.54675550  1  0  0.051247  0  3.756679  0  0  0.061559  0  3.98321  0  0  0.061904  0  4.007332  0  0  0.000677  0.061329  0  3.966982  0
C  C40  1  0.38841348  0.20023107  0.49662167  1  0  -0.053883  0  3.756891  0  0  -0.066282  0  4.012372  0  0  -0.069736  0  4.0341  0  0  -0.086057  -0.063984  0  3.997589  0
C  C41  1  0.11158807  0.70023269  0.50337835  1  0  -0.053951  0  3.756806  0  0  -0.06635  0  4.012292  0  0  -0.069807  0  4.034022  0  0  -0.086037  -0.064049  0  3.997501  0
C  C42  1  0.61158669  0.79976827  0.50337719  1  0  -0.053929  0  3.756649  0  0  -0.066335  0  4.012127  0  0  -0.06979  0  4.033853  0  0  -0.086037  -0.064042  0  3.997342  0
C  C43  1  0.88841345  0.29977040  0.49662329  1  0  -0.053983  0  3.756653  0  0  -0.066388  0  4.012127  0  0  -0.069844  0  4.033856  0  0  -0.086067  -0.064088  0  3.997337  0
C  C44  1  0.58843051  0.68924689  0.56935849  1  0  -0.085294  0  3.69471  0  0  -0.111355  0  3.948376  0  0  -0.111445  0  3.966116  0  0  -0.081248  -0.111223  0  3.936436  0
C  C45  1  0.91156850  0.18924651  0.43064055  1  0  -0.085294  0  3.694799  0  0  -0.111348  0  3.948445  0  0  -0.111436  0  3.966194  0  0  -0.081249  -0.111226  0  3.936516  0
C  C46  1  0.41156694  0.31075121  0.43064071  1  0  -0.085422  0  3.694881  0  0  -0.111488  0  3.948524  0  0  -0.111566  0  3.966286  0  0  -0.081326  -0.111363  0  3.936596  0
C  C47  1  0.08843303  0.81075284  0.56935912  1  0  -0.085319  0  3.694952  0  0  -0.111414  0  3.948596  0  0  -0.111499  0  3.96635  0  0  -0.081312  -0.111286  0  3.936658  0
C  C48  1  0.42661638  0.24817478  0.58826831  1  0  -0.049306  0  3.735323  0  0  -0.078309  0  3.989023  0  0  -0.07621  0  4.007952  0  0  -0.076672  -0.07947  0  3.9762  0
C  C49  1  0.07338508  0.74817773  0.41173169  1  0  -0.049145  0  3.735109  0  0  -0.078128  0  3.988791  0  0  -0.07603  0  4.007721  0  0  -0.076618  -0.079292  0  3.97597  0
C  C50  1  0.57338243  0.75182082  0.41173104  1  0  -0.049207  0  3.73515  0  0  -0.078214  0  3.988827  0  0  -0.076118  0  4.007755  0  0  -0.076659  -0.079376  0  3.976001  0
C  C51  1  0.92661645  0.25182036  0.58826864  1  0  -0.049203  0  3.735146  0  0  -0.078192  0  3.988847  0  0  -0.076095  0  4.007775  0  0  -0.07663  -0.079353  0  3.976017  0
S  S52  1  0.53333732  0.46081595  0.72929808  1  0  1.355641  0  5.606936  0  0  1.252395  0  6.126367  0  0  1.301519  0  6.101601  0  0  0.553128  1.218401  0  6.142535  0
S  S53  1  0.96665980  0.96081709  0.27070139  1  0  1.355517  0  5.607136  0  0  1.252281  0  6.126563  0  0  1.301403  0  6.101807  0  0  0.553072  1.218288  0  6.14273  0
S  S54  1  0.46666286  0.53918339  0.27070078  1  0  1.355624  0  5.607061  0  0  1.252351  0  6.126494  0  0  1.301475  0  6.10173  0  0  0.553096  1.218366  0  6.142652  0
S  S55  1  0.03333764  0.03918350  0.72929847  1  0  1.355591  0  5.607034  0  0  1.252343  0  6.126485  0  0  1.301467  0  6.101723  0  0  0.553104  1.218364  0  6.142637  0
O  O56  1  0.42426188  0.61162312  0.73776558  1  0  -0.688059  0  1.9866  0  0  -0.622928  0  2.2218  0  0  -0.645669  0  2.206231  0  0  -0.31753  -0.606951  0  2.232176  0
O  O57  1  0.07573712  0.11162083  0.26223284  1  0  -0.688047  0  1.986685  0  0  -0.622902  0  2.221866  0  0  -0.645643  0  2.206301  0  0  -0.31751  -0.606923  0  2.232249  0
O  O58  1  0.57573830  0.38837747  0.26223262  1  0  -0.688044  0  1.986696  0  0  -0.622897  0  2.221889  0  0  -0.645639  0  2.206322  0  0  -0.317497  -0.606922  0  2.232269  0
O  O59  1  0.92426168  0.88837976  0.73776783  1  0  -0.688092  0  1.986725  0  0  -0.622952  0  2.221919  0  0  -0.645693  0  2.206351  0  0  -0.317523  -0.606983  0  2.232301  0
O  O60  1  0.66136525  0.08423058  0.03639464  1  0  -0.718311  0  2.071302  0  0  -0.65386  0  2.331719  0  0  -0.683594  0  2.321748  0  0  -0.388459  -0.632716  0  2.337782  0
O  O61  1  0.83863668  0.58422919  0.96360474  1  0  -0.718387  0  2.071269  0  0  -0.653936  0  2.331686  0  0  -0.683674  0  2.321714  0  0  -0.388495  -0.632792  0  2.337742  0
O  O62  1  0.33863628  0.91577126  0.96360437  1  0  -0.718411  0  2.071256  0  0  -0.653953  0  2.331668  0  0  -0.68369  0  2.321698  0  0  -0.388516  -0.632806  0  2.337735  0
O  O63  1  0.16136621  0.41576766  0.03639639  1  0  -0.718309  0  2.071313  0  0  -0.65385  0  2.331714  0  0  -0.683585  0  2.321742  0  0  -0.388458  -0.632705  0  2.337782  0
O  O64  1  0.72976828  0.49482536  0.75736655  1  0  -0.716823  0  1.983805  0  0  -0.658764  0  2.248541  0  0  -0.682203  0  2.233113  0  0  -0.36675  -0.641958  0  2.25851  0
O  O65  1  0.77023012  0.99482806  0.24263503  1  0  -0.716761  0  1.983848  0  0  -0.658728  0  2.248596  0  0  -0.68217  0  2.233173  0  0  -0.366742  -0.641913  0  2.258557  0
O  O66  1  0.27023189  0.50517524  0.24263296  1  0  -0.716815  0  1.983824  0  0  -0.658754  0  2.248566  0  0  -0.682194  0  2.233139  0  0  -0.36674  -0.641943  0  2.258532  0
O  O67  1  0.22976868  0.00517378  0.75736564  1  0  -0.71679  0  1.983804  0  0  -0.658749  0  2.24857  0  0  -0.682179  0  2.233127  0  0  -0.366745  -0.641942  0  2.258533  0
O  O68  1  0.11976704  0.60568333  0.81114616  1  0  -0.896898  0  1.761671  0  0  -0.841773  0  1.940889  0  0  -0.862209  0  1.908817  0  0  -0.635742  -0.82702  0  1.963212  0
O  O69  1  0.38023332  0.10568308  0.18885439  1  0  -0.896915  0  1.761664  0  0  -0.841795  0  1.940883  0  0  -0.862231  0  1.908813  0  0  -0.63575  -0.827033  0  1.963212  0
O  O70  1  0.88023449  0.39431852  0.18885350  1  0  -0.896933  0  1.761648  0  0  -0.841798  0  1.940868  0  0  -0.862236  0  1.908794  0  0  -0.635769  -0.827041  0  1.963194  0
O  O71  1  0.61976412  0.89431876  0.81114548  1  0  -0.896925  0  1.761636  0  0  -0.841796  0  1.940852  0  0  -0.862233  0  1.908779  0  0  -0.635776  -0.827039  0  1.963181  0
O  O72  1  0.80027165  0.20209365  0.93785312  1  0  -0.709656  0  2.022321  0  0  -0.644015  0  2.275815  0  0  -0.673589  0  2.265661  0  0  -0.380884  -0.622988  0  2.281982  0
O  O73  1  0.69972733  0.70209278  0.06214658  1  0  -0.709608  0  2.022434  0  0  -0.643968  0  2.275929  0  0  -0.673542  0  2.265772  0  0  -0.380837  -0.622945  0  2.282097  0
O  O74  1  0.19972716  0.79790820  0.06214624  1  0  -0.709629  0  2.022442  0  0  -0.643989  0  2.275934  0  0  -0.673563  0  2.265776  0  0  -0.380862  -0.622956  0  2.282101  0
O  O75  1  0.30027148  0.29790657  0.93785344  1  0  -0.709615  0  2.022278  0  0  -0.643971  0  2.275768  0  0  -0.673546  0  2.265614  0  0  -0.380883  -0.62294  0  2.281934  0
O  O76  1  0.47491632  0.31652119  0.77480435  1  0  -0.73242  0  2.040633  0  0  -0.675209  0  2.314494  0  0  -0.697798  0  2.297323  0  0  -0.374311  -0.659059  0  2.325746  0
O  O77  1  0.02507954  0.81651929  0.22519567  1  0  -0.732314  0  2.040618  0  0  -0.67511  0  2.314486  0  0  -0.697694  0  2.297308  0  0  -0.374257  -0.658957  0  2.325741  0
O  O78  1  0.52508384  0.68347940  0.22519582  1  0  -0.732406  0  2.04063  0  0  -0.675194  0  2.314496  0  0  -0.697781  0  2.297326  0  0  -0.374309  -0.659045  0  2.325746  0
O  O79  1  0.97491789  0.18348130  0.77480485  1  0  -0.732406  0  2.040591  0  0  -0.675185  0  2.31444  0  0  -0.697781  0  2.297284  0  0  -0.374301  -0.659042  0  2.325688  0
