# generated using pymatgen
data_ErH8C6NO7
_symmetry_space_group_name_H-M   'P 1'
_cell_length_a   6.49458410
_cell_length_b   11.41953055
_cell_length_c   12.67342289
_cell_angle_alpha   90.00024932
_cell_angle_beta   89.99916274
_cell_angle_gamma   90.00011038
_symmetry_Int_Tables_number   1
_chemical_formula_structural   ErH8C6NO7
_chemical_formula_sum   'Er4 H32 C24 N4 O28'
_cell_volume   939.92569561
_cell_formula_units_Z   4
loop_
 _symmetry_equiv_pos_site_id
 _symmetry_equiv_pos_as_xyz
  1  'x, y, z'
loop_
 _atom_site_type_symbol
 _atom_site_label
 _atom_site_symmetry_multiplicity
 _atom_site_fract_x
 _atom_site_fract_y
 _atom_site_fract_z
 _atom_site_occupancy
 _atom_site_hle17_bader_spin_density
 _atom_site_hle17_ddec_charge
 _atom_site_hle17_ddec_spin_density
 _atom_site_hle17_ddec_sum_bond_order
 _atom_site_hle17_magmom
 _atom_site_hse06_10hf_bader_spin_density
 _atom_site_hse06_10hf_ddec_charge
 _atom_site_hse06_10hf_ddec_spin_density
 _atom_site_hse06_10hf_ddec_sum_bond_order
 _atom_site_hse06_10hf_magmom
 _atom_site_hse06_bader_spin_density
 _atom_site_hse06_ddec_charge
 _atom_site_hse06_ddec_spin_density
 _atom_site_hse06_ddec_sum_bond_order
 _atom_site_hse06_magmom
 _atom_site_pbe_bader_spin_density
 _atom_site_pbe_cm5_charge
 _atom_site_pbe_ddec_charge
 _atom_site_pbe_ddec_spin_density
 _atom_site_pbe_ddec_sum_bond_order
 _atom_site_pbe_magmom
Er  Er0  1  0.64526209  0.50058784  0.49763366  1  0  2.222556  0  1.693806  0  0  2.06769  0  2.185995  0  0  2.206513  0  1.974663  0  0  1.520946  2.031406  0  2.215747  0
Er  Er1  1  0.14527707  0.99941107  0.50236760  1  0  2.222522  0  1.693879  0  0  2.067749  0  2.185958  0  0  2.206511  0  1.974743  0  0  1.520953  2.031452  0  2.215732  0
Er  Er2  1  0.35472322  0.00059128  0.00236901  1  0  2.222491  0  1.694004  0  0  2.067622  0  2.186237  0  0  2.206471  0  1.974872  0  0  1.520952  2.031327  0  2.215969  0
Er  Er3  1  0.85472937  0.49941753  0.99763199  1  0  2.222613  0  1.693877  0  0  2.067925  0  2.185813  0  0  2.2066  0  1.974726  0  0  1.521017  2.031637  0  2.215544  0
H  H4  1  0.73644247  0.73973732  0.64722162  1  0  0.120941  0  0.932123  0  0  0.130996  0  0.993056  0  0  0.134904  0  0.989641  0  0  0.117053  0.128227  0  0.995693  0
H  H5  1  0.23647019  0.76026694  0.35278213  1  0  0.120765  0  0.932245  0  0  0.130906  0  0.993062  0  0  0.134813  0  0.989648  0  0  0.11696  0.128131  0  0.995709  0
H  H6  1  0.26354304  0.23974156  0.85278488  1  0  0.120886  0  0.932315  0  0  0.130959  0  0.99317  0  0  0.13486  0  0.989768  0  0  0.117031  0.128186  0  0.995814  0
H  H7  1  0.76353452  0.26025928  0.14721679  1  0  0.120828  0  0.932337  0  0  0.130912  0  0.993231  0  0  0.134819  0  0.989821  0  0  0.11701  0.128138  0  0.995878  0
H  H8  1  0.00609253  0.72675477  0.63588244  1  0  0.12189  0  0.916414  0  0  0.137371  0  0.970494  0  0  0.139873  0  0.968859  0  0  0.125417  0.135801  0  0.971424  0
H  H9  1  0.50609316  0.77323787  0.36412143  1  0  0.121877  0  0.916408  0  0  0.137364  0  0.970473  0  0  0.139867  0  0.96884  0  0  0.125398  0.135798  0  0.9714  0
H  H10  1  0.99390524  0.22676770  0.86412323  1  0  0.121914  0  0.916433  0  0  0.137402  0  0.97049  0  0  0.139902  0  0.968856  0  0  0.125381  0.135831  0  0.971417  0
H  H11  1  0.49390851  0.27323950  0.13588227  1  0  0.121875  0  0.916362  0  0  0.137354  0  0.970453  0  0  0.13985  0  0.968831  0  0  0.12541  0.135783  0  0.971379  0
H  H12  1  0.70639988  0.02890527  0.71026256  1  0  0.127343  0  0.888663  0  0  0.145765  0  0.937971  0  0  0.148157  0  0.936368  0  0  0.131191  0.144227  0  0.938944  0
H  H13  1  0.20641016  0.47109813  0.28973480  1  0  0.127201  0  0.888545  0  0  0.145597  0  0.937835  0  0  0.147985  0  0.936235  0  0  0.131127  0.144061  0  0.938812  0
H  H14  1  0.29361413  0.52890829  0.78973999  1  0  0.127247  0  0.888592  0  0  0.145627  0  0.937927  0  0  0.148014  0  0.936326  0  0  0.131154  0.144089  0  0.938904  0
H  H15  1  0.79359375  0.97109953  0.21025939  1  0  0.127212  0  0.888639  0  0  0.145639  0  0.937889  0  0  0.148025  0  0.93629  0  0  0.13116  0.144098  0  0.938874  0
H  H16  1  0.57709755  0.90611188  0.65643550  1  0  0.116844  0  0.927922  0  0  0.128446  0  0.987307  0  0  0.131736  0  0.984958  0  0  0.118413  0.126188  0  0.988972  0
H  H17  1  0.07709877  0.59389047  0.34356863  1  0  0.116911  0  0.927764  0  0  0.128459  0  0.987172  0  0  0.131751  0  0.98482  0  0  0.118427  0.126203  0  0.988838  0
H  H18  1  0.42289932  0.40611010  0.84356453  1  0  0.11686  0  0.927875  0  0  0.128394  0  0.987286  0  0  0.131678  0  0.984941  0  0  0.118435  0.126141  0  0.988949  0
H  H19  1  0.92289918  0.09389002  0.15643676  1  0  0.116946  0  0.927839  0  0  0.12847  0  0.987243  0  0  0.131759  0  0.984892  0  0  0.118445  0.126213  0  0.988914  0
H  H20  1  0.11147108  0.83076641  0.75641716  1  0  0.124065  0  0.913138  0  0  0.137821  0  0.970914  0  0  0.14121  0  0.967456  0  0  0.125417  0.135561  0  0.973174  0
H  H21  1  0.61148870  0.66923247  0.24357882  1  0  0.123993  0  0.913226  0  0  0.1378  0  0.970962  0  0  0.141192  0  0.967501  0  0  0.125377  0.135538  0  0.973225  0
H  H22  1  0.88855016  0.33077425  0.74357311  1  0  0.123892  0  0.913494  0  0  0.137745  0  0.971169  0  0  0.141135  0  0.967709  0  0  0.125348  0.13549  0  0.973421  0
H  H23  1  0.38852184  0.16922672  0.25642448  1  0  0.123985  0  0.913325  0  0  0.137798  0  0.971067  0  0  0.141194  0  0.967598  0  0  0.125364  0.135539  0  0.973333  0
H  H24  1  0.90996185  0.91116520  0.81453206  1  0  0.120075  0  0.910077  0  0  0.130719  0  0.97125  0  0  0.134801  0  0.967494  0  0  0.116434  0.128021  0  0.973603  0
H  H25  1  0.40998304  0.58883137  0.18546962  1  0  0.120137  0  0.910012  0  0  0.130741  0  0.971266  0  0  0.134825  0  0.967509  0  0  0.116451  0.128052  0  0.973603  0
H  H26  1  0.09003966  0.41116841  0.68547350  1  0  0.12006  0  0.910153  0  0  0.130696  0  0.971358  0  0  0.134775  0  0.967604  0  0  0.116439  0.128005  0  0.973706  0
H  H27  1  0.59001490  0.08883575  0.31453339  1  0  0.120063  0  0.910046  0  0  0.130694  0  0.971292  0  0  0.134781  0  0.96753  0  0  0.116444  0.128008  0  0.973635  0
H  H28  1  0.52583490  0.27008900  0.57479751  1  0  0.446602  0  0.804918  0  0  0.425532  0  0.863892  0  0  0.435084  0  0.853459  0  0  0.330018  0.418956  0  0.871807  0
H  H29  1  0.02583423  0.22989932  0.42518855  1  0  0.446684  0  0.80488  0  0  0.425642  0  0.863797  0  0  0.435192  0  0.85336  0  0  0.330051  0.419067  0  0.871714  0
H  H30  1  0.47417535  0.77010603  0.92518307  1  0  0.446701  0  0.804767  0  0  0.425621  0  0.863775  0  0  0.435168  0  0.853349  0  0  0.33003  0.419043  0  0.871691  0
H  H31  1  0.97416883  0.72990023  0.07479842  1  0  0.446547  0  0.804991  0  0  0.425516  0  0.863893  0  0  0.435072  0  0.853456  0  0  0.330011  0.418943  0  0.871805  0
H  H32  1  0.74924919  0.24069203  0.54020377  1  0  0.444163  0  0.845038  0  0  0.416374  0  0.902776  0  0  0.427499  0  0.886423  0  0  0.311929  0.408958  0  0.913791  0
H  H33  1  0.24925070  0.25930617  0.45979248  1  0  0.444153  0  0.845068  0  0  0.416337  0  0.902833  0  0  0.427465  0  0.886477  0  0  0.311944  0.408926  0  0.91384  0
H  H34  1  0.25074710  0.74069849  0.95978538  1  0  0.44409  0  0.845131  0  0  0.416284  0  0.902878  0  0  0.427414  0  0.886517  0  0  0.311908  0.408871  0  0.913884  0
H  H35  1  0.75073706  0.75929878  0.04020170  1  0  0.444102  0  0.845134  0  0  0.416292  0  0.902896  0  0  0.427415  0  0.886545  0  0  0.311874  0.408877  0  0.913905  0
C  C36  1  0.87347570  0.77949200  0.61088925  1  0  -0.206865  0  3.668703  0  0  -0.260243  0  3.917807  0  0  -0.263359  0  3.928061  0  0  -0.073809  -0.258858  0  3.913682  0
C  C37  1  0.37348375  0.72049752  0.38912059  1  0  -0.20676  0  3.668794  0  0  -0.260152  0  3.917843  0  0  -0.263272  0  3.92812  0  0  -0.073721  -0.258761  0  3.913722  0
C  C38  1  0.12652842  0.27949452  0.88911424  1  0  -0.206913  0  3.668928  0  0  -0.260283  0  3.917997  0  0  -0.263391  0  3.928242  0  0  -0.073843  -0.258898  0  3.913857  0
C  C39  1  0.62651927  0.22050091  0.11088765  1  0  -0.206679  0  3.668798  0  0  -0.260099  0  3.917968  0  0  -0.263222  0  3.928243  0  0  -0.073758  -0.258712  0  3.913839  0
C  C40  1  0.86129188  0.76850438  0.49125940  1  0  0.7344  0  3.820508  0  0  0.690231  0  4.119035  0  0  0.72481  0  4.114356  0  0  0.22387  0.667071  0  4.125293  0
C  C41  1  0.36128110  0.73149213  0.50875053  1  0  0.734464  0  3.820499  0  0  0.690186  0  4.119198  0  0  0.724771  0  4.11452  0  0  0.223778  0.667026  0  4.125458  0
C  C42  1  0.13870207  0.26851026  0.00874743  1  0  0.734249  0  3.820647  0  0  0.69012  0  4.1191  0  0  0.724692  0  4.114427  0  0  0.223832  0.666965  0  4.125326  0
C  C43  1  0.63870437  0.23149483  0.99125910  1  0  0.734311  0  3.820396  0  0  0.690075  0  4.119043  0  0  0.724667  0  4.114356  0  0  0.223781  0.666918  0  4.125269  0
C  C44  1  0.70804694  0.96572382  0.64449282  1  0  -0.18527  0  3.6141  0  0  -0.236183  0  3.859799  0  0  -0.2392  0  3.869535  0  0  -0.061747  -0.234434  0  3.854907  0
C  C45  1  0.20804606  0.53427340  0.35551982  1  0  -0.18524  0  3.61401  0  0  -0.235977  0  3.859452  0  0  -0.238993  0  3.869192  0  0  -0.061702  -0.234235  0  3.854575  0
C  C46  1  0.29196554  0.46572635  0.85551217  1  0  -0.185057  0  3.614041  0  0  -0.235789  0  3.859597  0  0  -0.2388  0  3.869333  0  0  -0.061628  -0.234043  0  3.854697  0
C  C47  1  0.79195322  0.03427714  0.14448535  1  0  -0.185302  0  3.614089  0  0  -0.236024  0  3.859551  0  0  -0.239033  0  3.869287  0  0  -0.061724  -0.23428  0  3.854666  0
C  C48  1  0.67021520  0.04015486  0.54637092  1  0  0.744398  0  3.807443  0  0  0.695341  0  4.110707  0  0  0.730172  0  4.105565  0  0  0.233918  0.67184  0  4.117214  0
C  C49  1  0.17022838  0.45983362  0.45362749  1  0  0.744522  0  3.807455  0  0  0.695418  0  4.110734  0  0  0.730243  0  4.105602  0  0  0.233887  0.671913  0  4.11725  0
C  C50  1  0.32978345  0.54015962  0.95362536  1  0  0.744493  0  3.807525  0  0  0.695396  0  4.110776  0  0  0.73022  0  4.105644  0  0  0.233908  0.671896  0  4.117247  0
C  C51  1  0.82976163  0.95983860  0.04637060  1  0  0.744645  0  3.807489  0  0  0.695521  0  4.110772  0  0  0.730358  0  4.105628  0  0  0.233966  0.672018  0  4.117253  0
C  C52  1  0.01438278  0.90871787  0.74597455  1  0  -0.192119  0  3.644656  0  0  -0.247689  0  3.902108  0  0  -0.249737  0  3.909584  0  0  -0.065476  -0.246706  0  3.899083  0
C  C53  1  0.51439828  0.59127915  0.25402609  1  0  -0.192081  0  3.644423  0  0  -0.247771  0  3.902003  0  0  -0.249814  0  3.909468  0  0  -0.065445  -0.246787  0  3.898982  0
C  C54  1  0.98562488  0.40872236  0.75402469  1  0  -0.19195  0  3.645  0  0  -0.247639  0  3.902475  0  0  -0.249689  0  3.909964  0  0  -0.065431  -0.246648  0  3.899445  0
C  C55  1  0.48560275  0.09127695  0.24597061  1  0  -0.192015  0  3.644806  0  0  -0.247751  0  3.902386  0  0  -0.249776  0  3.909832  0  0  -0.065426  -0.246767  0  3.89938  0
C  C56  1  0.16036892  0.01318903  0.75059303  1  0  0.755709  0  3.813844  0  0  0.708959  0  4.11741  0  0  0.743714  0  4.112469  0  0  0.23363  0.685593  0  4.124175  0
C  C57  1  0.66039827  0.48680732  0.24940230  1  0  0.755904  0  3.813736  0  0  0.709227  0  4.117223  0  0  0.743987  0  4.112268  0  0  0.233738  0.685866  0  4.123993  0
C  C58  1  0.83962502  0.51319067  0.74940473  1  0  0.755778  0  3.813972  0  0  0.709118  0  4.117401  0  0  0.743854  0  4.112474  0  0  0.233716  0.68575  0  4.124167  0
C  C59  1  0.33961032  0.98681808  0.25059510  1  0  0.755685  0  3.813933  0  0  0.709039  0  4.11736  0  0  0.743786  0  4.112418  0  0  0.233638  0.685677  0  4.124134  0
N  N60  1  0.90606875  0.90153565  0.64401854  1  0  -0.223833  0  3.348363  0  0  -0.150531  0  3.60031  0  0  -0.171234  0  3.627081  0  0  -0.380514  -0.141146  0  3.585198  0
N  N61  1  0.40608195  0.59846178  0.35598712  1  0  -0.223938  0  3.348481  0  0  -0.150558  0  3.600161  0  0  -0.171296  0  3.627004  0  0  -0.380543  -0.141178  0  3.585067  0
N  N62  1  0.09393580  0.40154060  0.85598068  1  0  -0.223822  0  3.3485  0  0  -0.150581  0  3.600411  0  0  -0.171278  0  3.627161  0  0  -0.380553  -0.141234  0  3.585374  0
N  N63  1  0.59392372  0.09846356  0.14401908  1  0  -0.223852  0  3.348583  0  0  -0.15041  0  3.600149  0  0  -0.171179  0  3.627105  0  0  -0.380508  -0.14104  0  3.585043  0
O  O64  1  0.80492530  0.67029881  0.45299510  1  0  -0.748928  0  2.061988  0  0  -0.697523  0  2.328664  0  0  -0.737547  0  2.314396  0  0  -0.40989  -0.678358  0  2.334251  0
O  O65  1  0.30491529  0.82970289  0.54701209  1  0  -0.748993  0  2.062031  0  0  -0.697554  0  2.328716  0  0  -0.737571  0  2.31446  0  0  -0.409837  -0.678379  0  2.33429  0
O  O66  1  0.19507447  0.17030757  0.04700664  1  0  -0.748972  0  2.062111  0  0  -0.697578  0  2.328749  0  0  -0.737606  0  2.31449  0  0  -0.409928  -0.678391  0  2.334252  0
O  O67  1  0.69508593  0.32970020  0.95299317  1  0  -0.748968  0  2.061862  0  0  -0.697546  0  2.328525  0  0  -0.737537  0  2.314253  0  0  -0.409877  -0.678387  0  2.334101  0
O  O68  1  0.91291894  0.85564533  0.43543705  1  0  -0.69929  0  1.988469  0  0  -0.654591  0  2.234032  0  0  -0.688582  0  2.219415  0  0  -0.37599  -0.638277  0  2.2411  0
O  O69  1  0.41290623  0.64434686  0.56456225  1  0  -0.699247  0  1.988618  0  0  -0.654488  0  2.234207  0  0  -0.688483  0  2.219572  0  0  -0.375964  -0.638175  0  2.241265  0
O  O70  1  0.08707994  0.35565493  0.06456696  1  0  -0.699177  0  1.988587  0  0  -0.654503  0  2.234119  0  0  -0.688478  0  2.219506  0  0  -0.375945  -0.638197  0  2.241161  0
O  O71  1  0.58706662  0.14435448  0.93544389  1  0  -0.699224  0  1.988549  0  0  -0.65448  0  2.234123  0  0  -0.688482  0  2.219499  0  0  -0.375957  -0.638175  0  2.241172  0
O  O72  1  0.49009022  0.05904776  0.51473060  1  0  -0.701943  0  2.051544  0  0  -0.650199  0  2.311496  0  0  -0.687649  0  2.296545  0  0  -0.37262  -0.632027  0  2.317781  0
O  O73  1  0.99009409  0.44094456  0.48526230  1  0  -0.702009  0  2.051575  0  0  -0.650246  0  2.311501  0  0  -0.687688  0  2.296517  0  0  -0.37256  -0.632079  0  2.317795  0
O  O74  1  0.50991773  0.55904061  0.98526260  1  0  -0.702053  0  2.051559  0  0  -0.650298  0  2.311474  0  0  -0.68772  0  2.296509  0  0  -0.37262  -0.632133  0  2.317739  0
O  O75  1  0.00989585  0.94094853  0.01473651  1  0  -0.702085  0  2.05179  0  0  -0.650341  0  2.311777  0  0  -0.687786  0  2.296791  0  0  -0.372665  -0.632173  0  2.318039  0
O  O76  1  0.82815056  0.09114906  0.50519213  1  0  -0.78181  0  2.058507  0  0  -0.724095  0  2.308484  0  0  -0.762256  0  2.291473  0  0  -0.407118  -0.705301  0  2.317067  0
O  O77  1  0.32816237  0.40884046  0.49480117  1  0  -0.781766  0  2.058182  0  0  -0.724061  0  2.308185  0  0  -0.762221  0  2.29116  0  0  -0.407124  -0.705264  0  2.316769  0
O  O78  1  0.17185751  0.59115911  0.99480671  1  0  -0.781866  0  2.05836  0  0  -0.724156  0  2.308315  0  0  -0.762301  0  2.291303  0  0  -0.407171  -0.705372  0  2.316884  0
O  O79  1  0.67183363  0.90884158  0.00518963  1  0  -0.781796  0  2.058244  0  0  -0.724093  0  2.30826  0  0  -0.762258  0  2.291238  0  0  -0.407136  -0.705307  0  2.316828  0
O  O80  1  0.25567790  0.03158584  0.83584750  1  0  -0.737735  0  2.078724  0  0  -0.687196  0  2.349035  0  0  -0.727251  0  2.331013  0  0  -0.41721  -0.66864  0  2.356381  0
O  O81  1  0.75570350  0.46841673  0.16414949  1  0  -0.737844  0  2.078902  0  0  -0.687361  0  2.349197  0  0  -0.727383  0  2.331176  0  0  -0.417331  -0.6688  0  2.356538  0
O  O82  1  0.74431457  0.53158345  0.66416453  1  0  -0.737773  0  2.078976  0  0  -0.687255  0  2.349255  0  0  -0.727292  0  2.331224  0  0  -0.41723  -0.668699  0  2.356607  0
O  O83  1  0.24430656  0.96841731  0.33583758  1  0  -0.737637  0  2.079046  0  0  -0.68716  0  2.349348  0  0  -0.727199  0  2.331337  0  0  -0.417133  -0.668611  0  2.356715  0
O  O84  1  0.18482907  0.07512133  0.66811810  1  0  -0.728579  0  1.984094  0  0  -0.681618  0  2.232908  0  0  -0.717631  0  2.215994  0  0  -0.407535  -0.665129  0  2.240739  0
O  O85  1  0.68484657  0.42488030  0.33188021  1  0  -0.728711  0  1.984202  0  0  -0.681767  0  2.232991  0  0  -0.717789  0  2.216072  0  0  -0.407553  -0.665273  0  2.240828  0
O  O86  1  0.81518665  0.57512949  0.83188857  1  0  -0.728714  0  1.983996  0  0  -0.681799  0  2.232755  0  0  -0.717798  0  2.215854  0  0  -0.40759  -0.6653  0  2.240576  0
O  O87  1  0.31514794  0.92488537  0.16811065  1  0  -0.728706  0  1.983942  0  0  -0.681766  0  2.23271  0  0  -0.717789  0  2.215787  0  0  -0.407679  -0.66527  0  2.240538  0
O  O88  1  0.66261209  0.30452392  0.56853909  1  0  -0.872504  0  1.841168  0  0  -0.825366  0  2.028732  0  0  -0.85399  0  1.993224  0  0  -0.616271  -0.812948  0  2.04851  0
O  O89  1  0.16261266  0.19547505  0.43145858  1  0  -0.872615  0  1.84119  0  0  -0.82549  0  2.028753  0  0  -0.854109  0  1.993248  0  0  -0.616323  -0.813075  0  2.048529  0
O  O90  1  0.33739212  0.80453384  0.93145424  1  0  -0.872543  0  1.84117  0  0  -0.825375  0  2.028796  0  0  -0.854007  0  1.993295  0  0  -0.616278  -0.812963  0  2.048568  0
O  O91  1  0.83738719  0.69547316  0.06853930  1  0  -0.872405  0  1.841363  0  0  -0.825303  0  2.028884  0  0  -0.853916  0  1.993389  0  0  -0.61622  -0.812895  0  2.048654  0
