# generated using pymatgen
data_CuH14C16IN5OF3
_symmetry_space_group_name_H-M   'P 1'
_cell_length_a   7.76349151
_cell_length_b   7.65357284
_cell_length_c   18.18352020
_cell_angle_alpha   81.82548212
_cell_angle_beta   87.87912755
_cell_angle_gamma   74.56645318
_symmetry_Int_Tables_number   1
_chemical_formula_structural   CuH14C16IN5OF3
_chemical_formula_sum   'Cu2 H28 C32 I2 N10 O2 F6'
_cell_volume   1030.89350244
_cell_formula_units_Z   2
loop_
 _symmetry_equiv_pos_site_id
 _symmetry_equiv_pos_as_xyz
  1  'x, y, z'
loop_
 _atom_site_type_symbol
 _atom_site_label
 _atom_site_symmetry_multiplicity
 _atom_site_fract_x
 _atom_site_fract_y
 _atom_site_fract_z
 _atom_site_occupancy
 _atom_site_hle17_bader_spin_density
 _atom_site_hle17_ddec_charge
 _atom_site_hle17_ddec_spin_density
 _atom_site_hle17_ddec_sum_bond_order
 _atom_site_hle17_magmom
 _atom_site_hse06_10hf_bader_spin_density
 _atom_site_hse06_10hf_ddec_charge
 _atom_site_hse06_10hf_ddec_spin_density
 _atom_site_hse06_10hf_ddec_sum_bond_order
 _atom_site_hse06_10hf_magmom
 _atom_site_hse06_bader_spin_density
 _atom_site_hse06_ddec_charge
 _atom_site_hse06_ddec_spin_density
 _atom_site_hse06_ddec_sum_bond_order
 _atom_site_hse06_magmom
 _atom_site_pbe_bader_spin_density
 _atom_site_pbe_cm5_charge
 _atom_site_pbe_ddec_charge
 _atom_site_pbe_ddec_spin_density
 _atom_site_pbe_ddec_sum_bond_order
 _atom_site_pbe_magmom
Cu  Cu0  1  0.54691331  0.33909135  0.66882755  1  0  0.301817  0  2.170957  0  0  0.209206  0  2.664595  0  0  0.21586  0  2.612913  0  0  0.339915  0.208618  0  2.696198  0
Cu  Cu1  1  0.75163424  0.55146811  0.65960654  1  0  0.301929  0  2.176568  0  0  0.210014  0  2.670796  0  0  0.216367  0  2.619128  0  0  0.34201  0.209595  0  2.70236  0
H  H2  1  0.70789960  0.08943511  0.55223494  1  0  0.106139  0  0.971528  0  0  0.108621  0  1.045899  0  0  0.112764  0  1.041131  0  0  0.107596  0.105302  0  1.049766  0
H  H3  1  0.19768377  0.40176433  0.59727730  1  0  0.070287  0  0.941322  0  0  0.072185  0  1.01833  0  0  0.075618  0  1.013565  0  0  0.115582  0.069435  0  1.02195  0
H  H4  1  0.33566381  0.04239988  0.35891871  1  0  0.085479  0  0.924133  0  0  0.09182  0  0.985753  0  0  0.095115  0  0.982955  0  0  0.101075  0.089372  0  0.987926  0
H  H5  1  0.07650760  0.42295927  0.36612994  1  0  0.113457  0  0.974371  0  0  0.127358  0  1.046646  0  0  0.130049  0  1.045051  0  0  0.087177  0.125338  0  1.047869  0
H  H6  1  0.11164104  0.30383675  0.28675207  1  0  0.104999  0  0.964393  0  0  0.122498  0  1.029238  0  0  0.124065  0  1.029525  0  0  0.083868  0.121267  0  1.029172  0
H  H7  1  0.28746236  0.37749387  0.32146202  1  0  0.101233  0  0.93448  0  0  0.122262  0  0.993509  0  0  0.123913  0  0.992882  0  0  0.084924  0.121056  0  0.993977  0
H  H8  1  0.06516463  0.78535534  0.18903152  1  0  0.151622  0  0.921213  0  0  0.16267  0  0.97514  0  0  0.166287  0  0.973883  0  0  0.11686  0.160045  0  0.976231  0
H  H9  1  0.59337087  0.19309869  0.24204433  1  0  0.130227  0  0.942754  0  0  0.136515  0  1.006038  0  0  0.140775  0  1.003242  0  0  0.106044  0.133467  0  1.008129  0
H  H10  1  0.74781408  0.22388206  0.35704441  1  0  0.106241  0  0.943406  0  0  0.114828  0  1.001997  0  0  0.118063  0  0.999483  0  0  0.105419  0.11249  0  1.003874  0
H  H11  1  0.76321116  0.51711731  0.48017754  1  0  0.094942  0  0.910468  0  0  0.109067  0  0.964029  0  0  0.111046  0  0.961499  0  0  0.135756  0.10756  0  0.965954  0
H  H12  1  0.00189443  0.82173512  0.60054817  1  0  0.102162  0  0.961955  0  0  0.109071  0  1.032856  0  0  0.11215  0  1.029639  0  0  0.119537  0.106578  0  1.035494  0
H  H13  1  0.25390068  0.76711674  0.42571086  1  0  0.108159  0  0.921556  0  0  0.120647  0  0.98185  0  0  0.123138  0  0.979063  0  0  0.115448  0.118902  0  0.983748  0
H  H14  1  0.22630568  0.88114549  0.50573426  1  0  0.091761  0  0.954564  0  0  0.101721  0  1.028459  0  0  0.102897  0  1.028496  0  0  0.104585  0.100822  0  1.028454  0
H  H15  1  0.71339602  0.87865803  0.73373557  1  0  0.069972  0  0.944662  0  0  0.071767  0  1.021581  0  0  0.075278  0  1.016777  0  0  0.11502  0.068975  0  1.025221  0
H  H16  1  0.03450344  0.34432444  0.77525358  1  0  0.104336  0  0.977571  0  0  0.105901  0  1.05326  0  0  0.110103  0  1.048396  0  0  0.10605  0.102574  0  1.057143  0
H  H17  1  0.15818695  0.64856715  0.96835258  1  0  0.081612  0  0.928242  0  0  0.08873  0  0.989272  0  0  0.091809  0  0.986755  0  0  0.100273  0.086436  0  0.991268  0
H  H18  1  0.92635595  0.84538017  0.04419001  1  0  0.103012  0  0.974681  0  0  0.118875  0  1.043663  0  0  0.120489  0  1.043955  0  0  0.082195  0.117628  0  1.043566  0
H  H19  1  0.84293621  0.67845562  0.00897295  1  0  0.100911  0  0.938552  0  0  0.122249  0  0.997115  0  0  0.123766  0  0.996696  0  0  0.085751  0.121141  0  0.997432  0
H  H20  1  0.77867917  0.90934403  0.96660164  1  0  0.118897  0  0.957947  0  0  0.133478  0  1.02788  0  0  0.136384  0  1.025944  0  0  0.089836  0.13132  0  1.029316  0
H  H21  1  0.39961267  0.75668471  0.90007193  1  0  0.108179  0  0.922028  0  0  0.120214  0  0.983078  0  0  0.122622  0  0.980391  0  0  0.115738  0.11846  0  0.984995  0
H  H22  1  0.25572717  0.82035284  0.82146574  1  0  0.09112  0  0.951593  0  0  0.101831  0  1.024987  0  0  0.102997  0  1.024973  0  0  0.105585  0.100922  0  1.025023  0
H  H23  1  0.97535224  0.24100549  0.97789082  1  0  0.107212  0  0.941276  0  0  0.115549  0  1.000214  0  0  0.118771  0  0.997666  0  0  0.106792  0.11319  0  1.002167  0
H  H24  1  0.04959463  0.34859295  0.09412332  1  0  0.125586  0  0.930192  0  0  0.137491  0  0.984302  0  0  0.141026  0  0.982877  0  0  0.110055  0.134972  0  0.985424  0
H  H25  1  0.47527012  0.85363349  0.13847973  1  0  0.159517  0  0.922875  0  0  0.166389  0  0.981277  0  0  0.17133  0  0.977612  0  0  0.117022  0.162859  0  0.984035  0
H  H26  1  0.64018961  0.26411133  0.84886190  1  0  0.095484  0  0.912403  0  0  0.110085  0  0.965191  0  0  0.111974  0  0.96283  0  0  0.13648  0.108631  0  0.967006  0
H  H27  1  0.28775956  0.07887080  0.72809576  1  0  0.101905  0  0.960749  0  0  0.108697  0  1.031949  0  0  0.111766  0  1.028763  0  0  0.120176  0.106127  0  1.034689  0
H  H28  1  0.00693614  0.22150863  0.48109278  1  0  0.35063  0  0.937315  0  0  0.318998  0  1.029072  0  0  0.329257  0  1.017459  0  0  0.288553  0.311729  0  1.037223  0
H  H29  1  0.93213408  0.02778821  0.85064903  1  0  0.351003  0  0.934044  0  0  0.319601  0  1.025573  0  0  0.329877  0  1.013944  0  0  0.290023  0.312326  0  1.03373  0
C  C30  1  0.56650947  0.13999227  0.53766291  1  0  0.070026  0  3.653356  0  0  0.024428  0  3.910241  0  0  0.035902  0  3.918055  0  0  0.046501  0.016292  0  3.906791  0
C  C31  1  0.28558942  0.31482050  0.56119333  1  0  0.284548  0  3.686414  0  0  0.226951  0  3.96577  0  0  0.242054  0  3.974665  0  0  0.163092  0.216805  0  3.960676  0
C  C32  1  0.31809087  0.16752421  0.45701981  1  0  0.16461  0  3.719345  0  0  0.15195  0  3.968937  0  0  0.163255  0  3.985109  0  0  0.12337  0.144079  0  3.958559  0
C  C33  1  0.49686994  0.09138187  0.47691803  1  0  0.170642  0  3.760423  0  0  0.158766  0  4.044107  0  0  0.160796  0  4.05453  0  0  0.10445  0.156162  0  4.038338  0
C  C34  1  0.23451056  0.13808334  0.38799716  1  0  -0.089996  0  3.632406  0  0  -0.094223  0  3.870176  0  0  -0.097934  0  3.884021  0  0  -0.083556  -0.09164  0  3.860824  0
C  C35  1  0.17260974  0.32208285  0.33752002  1  0  -0.297634  0  3.670269  0  0  -0.379058  0  3.9166  0  0  -0.381276  0  3.925211  0  0  -0.249196  -0.377255  0  3.910735  0
C  C36  1  0.07728116  0.04685663  0.40916793  1  0  0.297855  0  3.540643  0  0  0.294272  0  3.790116  0  0  0.301394  0  3.801668  0  0  0.08518  0.289347  0  3.782141  0
C  C37  1  0.98912745  0.02377663  0.33881111  1  0  -0.105942  0  3.690979  0  0  -0.104896  0  3.940283  0  0  -0.110028  0  3.962933  0  0  -0.023477  -0.101575  0  3.925136  0
C  C38  1  0.07387379  0.90348326  0.28941515  1  0  0.304525  0  3.747153  0  0  0.285307  0  4.036308  0  0  0.296982  0  4.046971  0  0  0.101603  0.27721  0  4.029202  0
C  C39  1  0.99368489  0.88086527  0.22573278  1  0  -0.308532  0  3.769552  0  0  -0.344876  0  4.030303  0  0  -0.353061  0  4.048414  0  0  -0.113536  -0.339372  0  4.018311  0
C  C40  1  0.82052889  0.98728583  0.21062641  1  0  0.332804  0  3.817009  0  0  0.323039  0  4.09796  0  0  0.334868  0  4.109567  0  0  0.096125  0.314826  0  4.090208  0
C  C41  1  0.72896738  0.11227655  0.25610527  1  0  -0.211868  0  3.772615  0  0  -0.245537  0  4.0409  0  0  -0.251493  0  4.058826  0  0  -0.112023  -0.241578  0  4.028915  0
C  C42  1  0.81543716  0.12831306  0.31969357  1  0  -0.023366  0  3.733224  0  0  -0.048641  0  3.996776  0  0  -0.046173  0  4.014639  0  0  -0.082019  -0.050163  0  3.984636  0
C  C43  1  0.84275423  0.60482395  0.49418168  1  0  0.196858  0  3.709028  0  0  0.141262  0  4.009025  0  0  0.152991  0  4.018611  0  0  0.140264  0.133632  0  4.002283  0
C  C44  1  0.96135430  0.75683956  0.55720482  1  0  0.153398  0  3.636417  0  0  0.081444  0  3.898776  0  0  0.094353  0  3.909336  0  0  0.147993  0.073488  0  3.891384  0
C  C45  1  0.15725395  0.85957364  0.45745079  1  0  -0.122791  0  3.612974  0  0  -0.206521  0  3.867791  0  0  -0.204294  0  3.87626  0  0  -0.055689  -0.207465  0  3.861621  0
C  C46  1  0.81197365  0.77588169  0.76897971  1  0  0.284618  0  3.690212  0  0  0.227802  0  3.969184  0  0  0.242975  0  3.97805  0  0  0.162743  0.217585  0  3.964139  0
C  C47  1  0.99130287  0.48205150  0.79061077  1  0  0.06679  0  3.654951  0  0  0.021426  0  3.912716  0  0  0.033137  0  3.920037  0  0  0.0448  0.013271  0  3.909297  0
C  C48  1  0.06217926  0.52938858  0.85129510  1  0  0.173342  0  3.756263  0  0  0.161394  0  4.038352  0  0  0.163507  0  4.048733  0  0  0.105219  0.158715  0  4.032629  0
C  C49  1  0.99612580  0.70340595  0.87197250  1  0  0.161229  0  3.722846  0  0  0.151006  0  3.969581  0  0  0.162259  0  3.98589  0  0  0.122494  0.143202  0  3.959107  0
C  C50  1  0.05162503  0.76155424  0.94106296  1  0  -0.090373  0  3.639096  0  0  -0.095932  0  3.878307  0  0  -0.099789  0  3.892702  0  0  -0.085215  -0.093353  0  3.868738  0
C  C51  1  0.89030967  0.80177907  0.99339531  1  0  -0.297494  0  3.671626  0  0  -0.378023  0  3.917579  0  0  -0.380202  0  3.926029  0  0  -0.246917  -0.376237  0  3.911828  0
C  C52  1  0.29736022  0.86887361  0.87024881  1  0  -0.119474  0  3.61194  0  0  -0.204423  0  3.868904  0  0  -0.20224  0  3.877679  0  0  -0.054888  -0.205359  0  3.86263  0
C  C53  1  0.13195597  0.93028167  0.92055603  1  0  0.299228  0  3.540861  0  0  0.294237  0  3.793416  0  0  0.301551  0  3.804654  0  0  0.08569  0.289268  0  3.785519  0
C  C54  1  0.18144084  0.99117109  0.99144212  1  0  -0.10819  0  3.695764  0  0  -0.106201  0  3.944086  0  0  -0.111501  0  3.967205  0  0  -0.023747  -0.102801  0  3.928632  0
C  C55  1  0.08509251  0.15791208  0.01339487  1  0  -0.020674  0  3.728181  0  0  -0.046877  0  3.993331  0  0  -0.04409  0  4.010888  0  0  -0.080793  -0.048614  0  3.981412  0
C  C56  1  0.12583395  0.21864122  0.07774005  1  0  -0.211486  0  3.78039  0  0  -0.244112  0  4.047826  0  0  -0.250277  0  4.066639  0  0  -0.110357  -0.240009  0  4.035169  0
C  C57  1  0.26699484  0.10800402  0.12127489  1  0  0.334768  0  3.816964  0  0  0.322937  0  4.103644  0  0  0.33493  0  4.114966  0  0  0.096713  0.314596  0  4.096151  0
C  C58  1  0.36529672  0.93928300  0.10376171  1  0  -0.304335  0  3.762413  0  0  -0.344415  0  4.029021  0  0  -0.351422  0  4.044234  0  0  -0.112477  -0.33978  0  4.019006  0
C  C59  1  0.31878977  0.88533972  0.03923355  1  0  0.299581  0  3.751943  0  0  0.283642  0  4.036193  0  0  0.294732  0  4.047788  0  0  0.101178  0.275975  0  4.028437  0
C  C60  1  0.54566468  0.19214955  0.83466644  1  0  0.196014  0  3.710521  0  0  0.140334  0  4.010316  0  0  0.151996  0  4.020029  0  0  0.139659  0.132765  0  4.0035  0
C  C61  1  0.36842832  0.10176428  0.77149899  1  0  0.152809  0  3.634968  0  0  0.080016  0  3.897592  0  0  0.092871  0  3.908285  0  0  0.147122  0.072128  0  3.890182  0
I  I62  1  0.90085453  0.19008443  0.66382300  1  0  -0.475728  0  1.361718  0  0  -0.428635  0  1.763949  0  0  -0.446635  0  1.729645  0  0  -0.221078  -0.415012  0  1.786792  0
I  I63  1  0.40261447  0.69586531  0.66311093  1  0  -0.501884  0  1.304793  0  0  -0.460722  0  1.693502  0  0  -0.479827  0  1.662231  0  0  -0.270595  -0.446157  0  1.713436  0
N  N64  1  0.84610007  0.65309713  0.56365057  1  0  -0.357713  0  3.35088  0  0  -0.293117  0  3.674828  0  0  -0.308309  0  3.680035  0  0  -0.38409  -0.283562  0  3.670596  0
N  N65  1  0.94967434  0.67127239  0.44595831  1  0  -0.264425  0  2.856425  0  0  -0.268191  0  3.12896  0  0  -0.276562  0  3.1427  0  0  -0.221324  -0.261859  0  3.119372  0
N  N66  1  0.02424578  0.76747767  0.48719527  1  0  0.065408  0  3.576856  0  0  0.187335  0  3.75822  0  0  0.176661  0  3.783813  0  0  -0.136703  0.19274  0  3.743645  0
N  N67  1  0.46032596  0.25668679  0.57981403  1  0  -0.285086  0  3.327892  0  0  -0.211663  0  3.623866  0  0  -0.224126  0  3.628074  0  0  -0.354382  -0.205008  0  3.621702  0
N  N68  1  0.21353352  0.27617943  0.50247655  1  0  -0.354328  0  3.13483  0  0  -0.301821  0  3.392876  0  0  -0.318493  0  3.407304  0  0  -0.304455  -0.291146  0  3.383831  0
N  N69  1  0.86163275  0.60594512  0.74935790  1  0  -0.282491  0  3.331056  0  0  -0.209491  0  3.627129  0  0  -0.221942  0  3.631352  0  0  -0.354651  -0.202889  0  3.625026  0
N  N70  1  0.87250409  0.82665263  0.82767750  1  0  -0.354401  0  3.138892  0  0  -0.303356  0  3.396722  0  0  -0.320125  0  3.411213  0  0  -0.304328  -0.292634  0  3.387636  0
N  N71  1  0.47346714  0.21613491  0.76522459  1  0  -0.358202  0  3.345593  0  0  -0.292407  0  3.668026  0  0  -0.307509  0  3.673089  0  0  -0.382999  -0.282908  0  3.663876  0
N  N72  1  0.37999577  0.01309970  0.84133213  1  0  0.063381  0  3.578658  0  0  0.187461  0  3.75877  0  0  0.176813  0  3.78424  0  0  -0.13696  0.192858  0  3.744213  0
N  N73  1  0.49296454  0.06902135  0.88263446  1  0  -0.264491  0  2.848623  0  0  -0.270785  0  3.121339  0  0  -0.278941  0  3.134834  0  0  -0.222925  -0.264604  0  3.111929  0
O  O74  1  0.94454206  0.15767835  0.45115726  1  0  -0.573015  0  2.050062  0  0  -0.53523  0  2.284738  0  0  -0.551533  0  2.274416  0  0  -0.392236  -0.523324  0  2.291424  0
O  O75  1  0.00551665  0.08035541  0.88065700  1  0  -0.572872  0  2.043239  0  0  -0.534819  0  2.278476  0  0  -0.550928  0  2.267809  0  0  -0.393007  -0.523045  0  2.285351  0
F  F76  1  0.60340032  0.96955962  0.43648238  1  0  -0.161241  0  1.263487  0  0  -0.110325  0  1.433324  0  0  -0.121335  0  1.427692  0  0  -0.074101  -0.102392  0  1.437396  0
F  F77  1  0.24699517  0.80088104  0.30224776  1  0  -0.208347  0  1.17337  0  0  -0.157564  0  1.33236  0  0  -0.167274  0  1.322063  0  0  -0.097358  -0.150498  0  1.339345  0
F  F78  1  0.73914539  0.96811300  0.14799743  1  0  -0.206987  0  1.191034  0  0  -0.154861  0  1.349019  0  0  -0.165017  0  1.339167  0  0  -0.094855  -0.147447  0  1.355664  0
F  F79  1  0.19596704  0.40583368  0.89096573  1  0  -0.159918  0  1.267164  0  0  -0.109551  0  1.438208  0  0  -0.120622  0  1.432714  0  0  -0.073385  -0.101579  0  1.442185  0
F  F80  1  0.41572453  0.71651187  0.02357273  1  0  -0.208787  0  1.171377  0  0  -0.157717  0  1.326563  0  0  -0.167329  0  1.316362  0  0  -0.099672  -0.15071  0  1.333488  0
F  F81  1  0.31025516  0.16502216  0.18437897  1  0  -0.210195  0  1.185416  0  0  -0.15936  0  1.346719  0  0  -0.169299  0  1.336484  0  0  -0.096544  -0.152108  0  1.353635  0
