# generated using pymatgen
data_Cu4H33C12Br4N3
_symmetry_space_group_name_H-M   'P 1'
_cell_length_a   6.32178205
_cell_length_b   13.58713089
_cell_length_c   14.27300000
_cell_angle_alpha   68.69684534
_cell_angle_beta   84.19381333
_cell_angle_gamma   89.28566112
_symmetry_Int_Tables_number   1
_chemical_formula_structural   Cu4H33C12Br4N3
_chemical_formula_sum   'Cu8 H66 C24 Br8 N6'
_cell_volume   1135.95818661
_cell_formula_units_Z   2
loop_
 _symmetry_equiv_pos_site_id
 _symmetry_equiv_pos_as_xyz
  1  'x, y, z'
loop_
 _atom_site_type_symbol
 _atom_site_label
 _atom_site_symmetry_multiplicity
 _atom_site_fract_x
 _atom_site_fract_y
 _atom_site_fract_z
 _atom_site_occupancy
 _atom_site_hle17_bader_spin_density
 _atom_site_hle17_ddec_charge
 _atom_site_hle17_ddec_spin_density
 _atom_site_hle17_ddec_sum_bond_order
 _atom_site_hle17_magmom
 _atom_site_hse06_10hf_bader_spin_density
 _atom_site_hse06_10hf_ddec_charge
 _atom_site_hse06_10hf_ddec_spin_density
 _atom_site_hse06_10hf_ddec_sum_bond_order
 _atom_site_hse06_10hf_magmom
 _atom_site_hse06_bader_spin_density
 _atom_site_hse06_ddec_charge
 _atom_site_hse06_ddec_spin_density
 _atom_site_hse06_ddec_sum_bond_order
 _atom_site_hse06_magmom
 _atom_site_pbe_bader_charge
 _atom_site_pbe_bader_spin_density
 _atom_site_pbe_cm5_charge
 _atom_site_pbe_ddec_charge
 _atom_site_pbe_ddec_spin_density
 _atom_site_pbe_ddec_sum_bond_order
 _atom_site_pbe_magmom
Cu  Cu0  1  0.85175447  0.73937249  0.58616366  1  0  0.453247  0  1.589317  0  0  0.342028  0  2.008349  0  0  0.359552  0  1.962152  0  0.519622  0  0.413916  0.330679  0  2.038998  0
Cu  Cu1  1  0.14823058  0.26062807  0.41383163  1  0  0.453307  0  1.589168  0  0  0.342128  0  2.008207  0  0  0.35965  0  1.962011  0  0.51965  0  0.413951  0.330774  0  2.038861  0
Cu  Cu2  1  0.37035142  0.09883050  0.22722387  1  0  0.348482  0  1.940449  0  0  0.250457  0  2.424768  0  0  0.271424  0  2.359498  0  0.450207  0  0.285346  0.236754  0  2.469684  0
Cu  Cu3  1  0.62964803  0.90117163  0.77277023  1  0  0.34857  0  1.940465  0  0  0.250545  0  2.424825  0  0  0.271503  0  2.359548  0  0.45013  0  0.285377  0.23685  0  2.469722  0
Cu  Cu4  1  0.45716960  0.00756654  0.41035898  1  0  0.263314  0  2.130345  0  0  0.188038  0  2.625885  0  0  0.207941  0  2.554934  0  0.410345  0  0.176406  0.175032  0  2.674731  0
Cu  Cu5  1  0.54282048  0.99240873  0.58963852  1  0  0.263359  0  2.130382  0  0  0.188113  0  2.625863  0  0  0.208015  0  2.554916  0  0.410331  0  0.176451  0.175106  0  2.674695  0
Cu  Cu6  1  0.26196975  0.86906974  0.71462378  1  0  0.296801  0  2.116639  0  0  0.224793  0  2.609799  0  0  0.243964  0  2.541379  0  0.424583  0  0.181776  0.212189  0  2.656971  0
Cu  Cu7  1  0.73799079  0.13094820  0.28540443  1  0  0.296796  0  2.11665  0  0  0.224783  0  2.609824  0  0  0.243955  0  2.541398  0  0.424516  0  0.181785  0.212167  0  2.657006  0
H  H8  1  0.88312253  0.68556904  0.76545433  1  0  0.272712  0  0.948534  0  0  0.261369  0  1.010711  0  0  0.266901  0  1.007431  0  0.429311  0  0.261951  0.257263  0  1.013309  0
H  H9  1  0.11686893  0.31443231  0.23454251  1  0  0.272718  0  0.948484  0  0  0.261378  0  1.01068  0  0  0.266914  0  1.007384  0  0.429239  0  0.261958  0.257266  0  1.013297  0
H  H10  1  0.63009990  0.70312262  0.74532038  1  0  0.275725  0  0.919505  0  0  0.265679  0  0.980211  0  0  0.271301  0  0.975666  0  0.424272  0  0.272388  0.261173  0  0.984387  0
H  H11  1  0.36988976  0.29687477  0.25467861  1  0  0.275737  0  0.919505  0  0  0.265691  0  0.980228  0  0  0.271323  0  0.975656  0  0.424229  0  0.272397  0.261171  0  0.984435  0
H  H12  1  0.86113686  0.85378888  0.40723932  1  0  0.284  0  0.91872  0  0  0.274423  0  0.976832  0  0  0.278697  0  0.975333  0  0.433644  0  0.269154  0.271112  0  0.978445  0
H  H13  1  0.13887054  0.14621326  0.59276003  1  0  0.284023  0  0.918635  0  0  0.274413  0  0.976779  0  0  0.278675  0  0.975293  0  0.433616  0  0.269175  0.271114  0  0.978379  0
H  H14  1  0.09893511  0.83852224  0.44382550  1  0  0.281545  0  0.925813  0  0  0.272159  0  0.984877  0  0  0.276852  0  0.982371  0  0.432621  0  0.265768  0.268516  0  0.987169  0
H  H15  1  0.90107517  0.16147436  0.55617914  1  0  0.281626  0  0.925744  0  0  0.272252  0  0.984806  0  0  0.276944  0  0.982298  0  0.432659  0  0.265802  0.268607  0  0.9871  0
H  H16  1  0.16918044  0.24254107  0.10820798  1  0  0.270879  0  0.951163  0  0  0.260607  0  1.013288  0  0  0.266077  0  1.010177  0  0.427814  0  0.260308  0.256599  0  1.015709  0
H  H17  1  0.83080813  0.75746581  0.89178567  1  0  0.27089  0  0.951235  0  0  0.260617  0  1.013364  0  0  0.266085  0  1.010243  0  0.427906  0  0.26031  0.256609  0  1.015786  0
H  H18  1  0.42837303  0.26935310  0.08078954  1  0  0.277098  0  0.922062  0  0  0.269589  0  0.978099  0  0  0.274356  0  0.975894  0  0.415889  0  0.273572  0.266094  0  0.979868  0
H  H19  1  0.57161579  0.73065852  0.91919965  1  0  0.277115  0  0.921974  0  0  0.269601  0  0.978039  0  0  0.274364  0  0.975834  0  0.41587  0  0.273588  0.266098  0  0.979832  0
H  H20  1  0.77560623  0.53690683  0.92387531  1  0  0.109163  0  0.947413  0  0  0.128057  0  1.009036  0  0  0.130014  0  1.00872  0  0.028016  0  0.082805  0.126525  0  1.009437  0
H  H21  1  0.22439167  0.46309610  0.07612490  1  0  0.109105  0  0.947394  0  0  0.128044  0  1.008963  0  0  0.130002  0  1.008646  0  0.028037  0  0.082803  0.126514  0  1.009364  0
H  H22  1  0.63739905  0.42739229  0.91780428  1  0  0.099868  0  0.96566  0  0  0.120441  0  1.030335  0  0  0.121633  0  1.030599  0  -0.005506  0  0.082381  0.119442  0  1.030296  0
H  H23  1  0.36259869  0.57260747  0.08219632  1  0  0.099874  0  0.965685  0  0  0.12046  0  1.030344  0  0  0.121652  0  1.030607  0  -0.005508  0  0.082384  0.119462  0  1.030304  0
H  H24  1  0.50343091  0.54834633  0.89788830  1  0  0.105991  0  0.987107  0  0  0.123938  0  1.053183  0  0  0.1255  0  1.053613  0  0.045498  0  0.07584  0.122717  0  1.053012  0
H  H25  1  0.49656853  0.45165580  0.10211000  1  0  0.106018  0  0.987027  0  0  0.123964  0  1.053115  0  0  0.125526  0  1.053544  0  0.045469  0  0.075853  0.122742  0  1.052946  0
H  H26  1  0.99664058  0.52798977  0.67363167  1  0  0.087683  0  0.992466  0  0  0.107001  0  1.064458  0  0  0.109085  0  1.062109  0  0.020539  0  0.081434  0.105336  0  1.066341  0
H  H27  1  0.00336351  0.47201000  0.32636970  1  0  0.087628  0  0.99254  0  0  0.106971  0  1.0645  0  0  0.10906  0  1.062143  0  0.020516  0  0.081426  0.105308  0  1.066379  0
H  H28  1  0.91620735  0.41289930  0.78169016  1  0  0.102708  0  0.966154  0  0  0.125715  0  1.025117  0  0  0.126701  0  1.02598  0  -0.013678  0  0.088693  0.124964  0  1.024607  0
H  H29  1  0.08379511  0.58709968  0.21831190  1  0  0.102676  0  0.966161  0  0  0.12571  0  1.02511  0  0  0.126696  0  1.02597  0  -0.013667  0  0.088681  0.124957  0  1.024602  0
H  H30  1  0.05875061  0.51804539  0.79549226  1  0  0.110964  0  0.960012  0  0  0.129501  0  1.023265  0  0  0.131252  0  1.023254  0  0.043262  0  0.085088  0.128068  0  1.023638  0
H  H31  1  0.94124876  0.48195516  0.20450940  1  0  0.110952  0  0.959878  0  0  0.129507  0  1.023123  0  0  0.131258  0  1.02311  0  0.043137  0  0.085078  0.128073  0  1.023495  0
H  H32  1  0.52114567  0.43942764  0.74191055  1  0  0.106752  0  0.949339  0  0  0.132137  0  1.002252  0  0  0.133248  0  1.003073  0  0.0345  0  0.090194  0.131246  0  1.00177  0
H  H33  1  0.47885809  0.56056581  0.25809127  1  0  0.106734  0  0.949311  0  0  0.132133  0  1.002213  0  0  0.133236  0  1.003046  0  0.034622  0  0.090203  0.131243  0  1.001727  0
H  H34  1  0.60861579  0.55185737  0.63263778  1  0  0.090074  0  0.976115  0  0  0.108624  0  1.047558  0  0  0.11097  0  1.04506  0  -0.002452  0  0.080297  0.106869  0  1.049373  0
H  H35  1  0.39138784  0.44813370  0.36736486  1  0  0.090074  0  0.976178  0  0  0.108624  0  1.047613  0  0  0.110977  0  1.045108  0  -0.00241  0  0.080309  0.106867  0  1.049431  0
H  H36  1  0.40846360  0.56513181  0.72377829  1  0  0.11132  0  0.959601  0  0  0.131017  0  1.021826  0  0  0.13208  0  1.023091  0  0.044094  0  0.085549  0.129964  0  1.021418  0
H  H37  1  0.59154012  0.43486084  0.27622030  1  0  0.111323  0  0.959535  0  0  0.130999  0  1.021807  0  0  0.132069  0  1.023064  0  0.044033  0  0.085521  0.129943  0  1.021401  0
H  H38  1  0.08278864  0.59186324  0.52125870  1  0  0.090638  0  0.989991  0  0  0.109199  0  1.061577  0  0  0.111395  0  1.059439  0  0.027963  0  0.080362  0.107566  0  1.063082  0
H  H39  1  0.91719600  0.40812942  0.47873795  1  0  0.090658  0  0.990134  0  0  0.109204  0  1.061713  0  0  0.111412  0  1.059565  0  0.027973  0  0.080355  0.107573  0  1.063217  0
H  H40  1  0.30616418  0.67636433  0.45722212  1  0  0.110597  0  0.957298  0  0  0.132724  0  1.015589  0  0  0.13363  0  1.016597  0  0.041267  0  0.083835  0.131948  0  1.015024  0
H  H41  1  0.69382075  0.32363386  0.54277890  1  0  0.110675  0  0.957124  0  0  0.132817  0  1.015397  0  0  0.133724  0  1.016404  0  0.041276  0  0.08387  0.132034  0  1.014843  0
H  H42  1  0.20581839  0.58808589  0.40472356  1  0  0.105877  0  0.962263  0  0  0.130703  0  1.017828  0  0  0.130958  0  1.020027  0  0.039009  0  0.088818  0.130431  0  1.016369  0
H  H43  1  0.79417918  0.41191071  0.59527604  1  0  0.105951  0  0.962252  0  0  0.130768  0  1.017824  0  0  0.131025  0  1.020022  0  0.039113  0  0.088854  0.130497  0  1.016364  0
H  H44  1  0.72188423  0.63107571  0.45812438  1  0  0.09463  0  0.969207  0  0  0.113902  0  1.037881  0  0  0.116018  0  1.035979  0  0.000777  0  0.082068  0.112209  0  1.039432  0
H  H45  1  0.27810890  0.36892722  0.54186483  1  0  0.094542  0  0.969308  0  0  0.113826  0  1.037969  0  0  0.115942  0  1.036067  0  0.000714  0  0.082031  0.112132  0  1.039521  0
H  H46  1  0.82584085  0.61994914  0.34175498  1  0  0.106739  0  0.966358  0  0  0.132304  0  1.020934  0  0  0.132807  0  1.022815  0  0.061404  0  0.089872  0.131848  0  1.019667  0
H  H47  1  0.17415257  0.38005932  0.65823511  1  0  0.106715  0  0.966306  0  0  0.132258  0  1.020925  0  0  0.132761  0  1.022805  0  0.06186  0  0.089879  0.131802  0  1.019658  0
H  H48  1  0.69132296  0.73596576  0.34165290  1  0  0.106946  0  0.962253  0  0  0.125163  0  1.027431  0  0  0.126784  0  1.027359  0  0.050272  0  0.080076  0.123778  0  1.027866  0
H  H49  1  0.30868164  0.26404348  0.65833851  1  0  0.106881  0  0.962203  0  0  0.12511  0  1.027405  0  0  0.12673  0  1.027333  0  0.050759  0  0.080015  0.123724  0  1.027842  0
H  H50  1  0.15793216  0.73819266  0.23939897  1  0  0.098927  0  0.96579  0  0  0.122844  0  1.024009  0  0  0.123829  0  1.024722  0  0.022771  0  0.085741  0.122029  0  1.023568  0
H  H51  1  0.84207561  0.26181659  0.76059861  1  0  0.098894  0  0.965839  0  0  0.12282  0  1.024017  0  0  0.123806  0  1.024732  0  0.022648  0  0.085719  0.122003  0  1.02358  0
H  H52  1  0.26901257  0.82645213  0.28868366  1  0  0.103204  0  0.976032  0  0  0.118728  0  1.049325  0  0  0.120326  0  1.04886  0  0.038821  0  0.075733  0.117362  0  1.049997  0
H  H53  1  0.73099764  0.17354290  0.71132714  1  0  0.103394  0  0.975916  0  0  0.118834  0  1.049266  0  0  0.120431  0  1.048804  0  0.037767  0  0.075749  0.117471  0  1.049927  0
H  H54  1  0.01729973  0.85216968  0.24051657  1  0  0.109233  0  0.967449  0  0  0.128722  0  1.030392  0  0  0.130107  0  1.030739  0  0.0331  0  0.078789  0.127525  0  1.030483  0
H  H55  1  0.98271917  0.14783957  0.75948681  1  0  0.109332  0  0.967447  0  0  0.128795  0  1.030359  0  0  0.130182  0  1.030705  0  0.033168  0  0.078798  0.127598  0  1.03045  0
H  H56  1  0.22294349  0.01799849  0.09246164  1  0  0.101807  0  0.960534  0  0  0.121783  0  1.027834  0  0  0.123672  0  1.026391  0  0.030906  0  0.082408  0.12031  0  1.029009  0
H  H57  1  0.77705575  0.98199969  0.90753734  1  0  0.101854  0  0.960529  0  0  0.121801  0  1.027846  0  0  0.123691  0  1.026403  0  0.030909  0  0.082436  0.120328  0  1.029022  0
H  H58  1  0.14800344  0.06339142  0.96695168  1  0  0.108043  0  0.956557  0  0  0.131551  0  1.013848  0  0  0.132289  0  1.015136  0  0.034702  0  0.087901  0.13094  0  1.013071  0
H  H59  1  0.85199756  0.93660992  0.03304752  1  0  0.108039  0  0.956572  0  0  0.131549  0  1.013849  0  0  0.132286  0  1.015137  0  0.034665  0  0.087896  0.130937  0  1.013073  0
H  H60  1  0.00061648  0.10105423  0.06140811  1  0  0.107132  0  0.957835  0  0  0.124611  0  1.026132  0  0  0.125885  0  1.026542  0  0.042646  0  0.083241  0.123519  0  1.026156  0
H  H61  1  0.99938431  0.89894316  0.93859283  1  0  0.107137  0  0.957841  0  0  0.124602  0  1.02615  0  0  0.125877  0  1.02656  0  0.042622  0  0.08324  0.12351  0  1.026176  0
H  H62  1  0.59853671  0.09466120  0.03119208  1  0  0.105995  0  0.970833  0  0  0.124001  0  1.039043  0  0  0.125233  0  1.039451  0  0.065937  0  0.081746  0.122969  0  1.038972  0
H  H63  1  0.40146270  0.90534015  0.96880300  1  0  0.106057  0  0.970727  0  0  0.124064  0  1.038948  0  0  0.125295  0  1.039357  0  0.065889  0  0.081783  0.123032  0  1.038877  0
H  H64  1  0.63946946  0.22882963  0.94935607  1  0  0.097336  0  0.956655  0  0  0.115973  0  1.0223  0  0  0.117642  0  1.022046  0  0.005354  0  0.082113  0.114646  0  1.022721  0
H  H65  1  0.36052990  0.77117093  0.05064138  1  0  0.097396  0  0.956677  0  0  0.116034  0  1.022319  0  0  0.117703  0  1.022065  0  0.005331  0  0.08213  0.114707  0  1.02274  0
H  H66  1  0.53271678  0.13556083  0.90418401  1  0  0.10737  0  0.95608  0  0  0.130151  0  1.014545  0  0  0.130841  0  1.015886  0  0.035889  0  0.086267  0.129608  0  1.013654  0
H  H67  1  0.46727636  0.86444210  0.09581291  1  0  0.107416  0  0.956066  0  0  0.130221  0  1.014511  0  0  0.130911  0  1.015852  0  0.035804  0  0.086279  0.129678  0  1.013621  0
H  H68  1  0.31664542  0.34751963  0.90022309  1  0  0.101064  0  0.965345  0  0  0.123276  0  1.025569  0  0  0.124414  0  1.026205  0  -0.020426  0  0.085455  0.12241  0  1.02516  0
H  H69  1  0.68335052  0.65247618  0.09978106  1  0  0.101094  0  0.965249  0  0  0.123326  0  1.025441  0  0  0.124471  0  1.026067  0  -0.020353  0  0.085516  0.12246  0  1.025031  0
H  H70  1  0.05603211  0.29180775  0.94485691  1  0  0.104275  0  0.965625  0  0  0.121889  0  1.031994  0  0  0.123518  0  1.031962  0  0.021634  0  0.082312  0.120586  0  1.032219  0
H  H71  1  0.94397173  0.70818727  0.05514576  1  0  0.104289  0  0.965595  0  0  0.121868  0  1.032015  0  0  0.123496  0  1.031984  0  0.021593  0  0.0823  0.120563  0  1.032241  0
H  H72  1  0.21360590  0.25661286  0.85150208  1  0  0.106046  0  0.956968  0  0  0.130622  0  1.014184  0  0  0.13114  0  1.015561  0  0.016352  0  0.088662  0.130196  0  1.013263  0
H  H73  1  0.78639367  0.74339164  0.14849400  1  0  0.106036  0  0.956852  0  0  0.130619  0  1.014071  0  0  0.131134  0  1.015451  0  0.016419  0  0.088663  0.130194  0  1.013148  0
C  C74  1  0.72761738  0.54990548  0.77077758  1  0  0.396898  0  3.548299  0  0  0.419215  0  3.773148  0  0  0.424238  0  3.792779  0  0.336687  0  0.062491  0.415695  0  3.759639  0
C  C75  1  0.27238036  0.45009429  0.22922022  1  0  0.397041  0  3.548076  0  0  0.419137  0  3.773324  0  0  0.424151  0  3.792973  0  0.336554  0  0.062505  0.415621  0  3.759811  0
C  C76  1  0.65609969  0.51384685  0.88426262  1  0  -0.381913  0  3.64683  0  0  -0.455951  0  3.875566  0  0  -0.460995  0  3.886802  0  -0.067906  0  -0.253431  -0.452019  0  3.867821  0
C  C77  1  0.34389972  0.48615449  0.11573666  1  0  -0.381952  0  3.646748  0  0  -0.455997  0  3.875573  0  0  -0.461037  0  3.886804  0  -0.067942  0  -0.253466  -0.452066  0  3.86783  0
C  C78  1  0.93754300  0.49908992  0.75424237  1  0  -0.369223  0  3.65032  0  0  -0.448757  0  3.883503  0  0  -0.452569  0  3.893216  0  -0.048154  0  -0.247584  -0.445762  0  3.877018  0
C  C79  1  0.06246268  0.50090984  0.24575998  1  0  -0.36918  0  3.650211  0  0  -0.448697  0  3.883422  0  0  -0.452517  0  3.89315  0  -0.047987  0  -0.247555  -0.445701  0  3.876928  0
C  C80  1  0.55607180  0.52479009  0.71402672  1  0  -0.366635  0  3.646171  0  0  -0.444344  0  3.875548  0  0  -0.448226  0  3.88547  0  -0.062543  0  -0.246977  -0.441289  0  3.869013  0
C  C81  1  0.44392719  0.47520336  0.28597392  1  0  -0.366663  0  3.646059  0  0  -0.444317  0  3.875511  0  0  -0.448202  0  3.885429  0  -0.062589  0  -0.246981  -0.441264  0  3.868973  0
C  C82  1  0.16051204  0.64022273  0.44640332  1  0  -0.366022  0  3.642178  0  0  -0.443252  0  3.867729  0  0  -0.446949  0  3.878091  0  -0.094974  0  -0.247544  -0.440313  0  3.860573  0
C  C83  1  0.83948398  0.35977467  0.55359328  1  0  -0.366231  0  3.64216  0  0  -0.443408  0  3.867706  0  0  -0.447117  0  3.878057  0  -0.095139  0  -0.247603  -0.44047  0  3.860555  0
C  C84  1  0.01098250  0.72475227  0.38854802  1  0  0.398047  0  3.543954  0  0  0.420939  0  3.76938  0  0  0.425978  0  3.78875  0  0.344427  0  0.064178  0.417311  0  3.756115  0
C  C85  1  0.98901682  0.27524750  0.61144621  1  0  0.398103  0  3.543973  0  0  0.420906  0  3.769536  0  0  0.425942  0  3.788911  0  0.34456  0  0.064166  0.417281  0  3.756262  0
C  C86  1  0.80000227  0.67494901  0.38191417  1  0  -0.369089  0  3.647158  0  0  -0.446811  0  3.876496  0  0  -0.450671  0  3.886618  0  -0.111962  0  -0.247785  -0.443741  0  3.86977  0
C  C87  1  0.19999584  0.32505787  0.61807765  1  0  -0.368859  0  3.646972  0  0  -0.446557  0  3.876303  0  0  -0.45042  0  3.886432  0  -0.112865  0  -0.247661  -0.443487  0  3.869574  0
C  C88  1  0.11968377  0.78921368  0.28307088  1  0  -0.377423  0  3.641925  0  0  -0.452229  0  3.868575  0  0  -0.456955  0  3.879962  0  -0.086071  0  -0.250608  -0.44851  0  3.860845  0
C  C89  1  0.88033321  0.21078925  0.71692987  1  0  -0.377732  0  3.642019  0  0  -0.452406  0  3.868653  0  0  -0.457132  0  3.880035  0  -0.084989  0  -0.250623  -0.448683  0  3.860919  0
C  C90  1  0.30736853  0.18273338  0.00375825  1  0  0.399783  0  3.548883  0  0  0.420149  0  3.779507  0  0  0.425457  0  3.798421  0  0.336757  0  0.062548  0.416356  0  3.766533  0
C  C91  1  0.69262770  0.81726797  0.99623908  1  0  0.39975  0  3.548877  0  0  0.420223  0  3.779346  0  0  0.425523  0  3.798261  0  0.336575  0  0.062527  0.41643  0  3.766373  0
C  C92  1  0.16071716  0.08546439  0.03294564  1  0  -0.366381  0  3.632126  0  0  -0.44298  0  3.860064  0  0  -0.446645  0  3.870207  0  -0.090921  0  -0.248016  -0.440103  0  3.85313  0
C  C93  1  0.83928384  0.91453695  0.96705427  1  0  -0.366427  0  3.632099  0  0  -0.44299  0  3.859962  0  0  -0.446661  0  3.870116  0  -0.090812  0  -0.248033  -0.440111  0  3.853023  0
C  C94  1  0.53306340  0.15901751  0.97014775  1  0  -0.36713  0  3.637643  0  0  -0.441543  0  3.865205  0  0  -0.445732  0  3.876229  0  -0.089399  0  -0.246522  -0.438306  0  3.857695  0
C  C95  1  0.46693426  0.84098068  0.02985340  1  0  -0.367282  0  3.637609  0  0  -0.441761  0  3.86515  0  0  -0.44595  0  3.876175  0  -0.089236  0  -0.246575  -0.438523  0  3.857639  0
C  C96  1  0.21840710  0.27526488  0.91999424  1  0  -0.380541  0  3.652988  0  0  -0.455968  0  3.880913  0  0  -0.460119  0  3.891881  0  -0.017304  0  -0.24758  -0.452718  0  3.873321  0
C  C97  1  0.78159222  0.72473488  0.08000209  1  0  -0.380537  0  3.652781  0  0  -0.455989  0  3.88071  0  0  -0.460145  0  3.891673  0  -0.017349  0  -0.247608  -0.452735  0  3.873118  0
Br  Br98  1  0.08540018  0.06621416  0.36280632  1  0  -0.427767  0  1.702475  0  0  -0.355827  0  2.161776  0  0  -0.373022  0  2.109922  0  -0.521158  0  -0.234344  -0.344408  0  2.198305  0
Br  Br99  1  0.91462676  0.93379667  0.63719965  1  0  -0.427835  0  1.702565  0  0  -0.355941  0  2.161928  0  0  -0.373135  0  2.110072  0  -0.52113  0  -0.234377  -0.344548  0  2.198498  0
Br  Br100  1  0.63919575  0.96722696  0.25445026  1  0  -0.396437  0  1.490114  0  0  -0.324494  0  1.87855  0  0  -0.33929  0  1.836652  0  -0.499962  0  -0.196534  -0.314582  0  1.908101  0
Br  Br101  1  0.36080039  0.03277281  0.74555953  1  0  -0.396481  0  1.490235  0  0  -0.324497  0  1.878603  0  0  -0.339293  0  1.836703  0  -0.500125  0  -0.196527  -0.314588  0  1.908147  0
Br  Br102  1  0.42043779  0.83735506  0.55196739  1  0  -0.388362  0  1.624174  0  0  -0.317726  0  2.053499  0  0  -0.332335  0  2.002684  0  -0.491604  0  -0.194666  -0.307146  0  2.087754  0
Br  Br103  1  0.57962242  0.16262337  0.44804620  1  0  -0.388387  0  1.624392  0  0  -0.317779  0  2.053813  0  0  -0.33239  0  2.002993  0  -0.491543  0  -0.194692  -0.307154  0  2.087985  0
Br  Br104  1  0.19833913  0.70455612  0.85206809  1  0  -0.531351  0  1.136921  0  0  -0.467657  0  1.451317  0  0  -0.484801  0  1.420322  0  -0.618568  0  -0.260706  -0.455007  0  1.472952  0
Br  Br105  1  0.80167115  0.29544049  0.14793515  1  0  -0.531341  0  1.136863  0  0  -0.467662  0  1.451284  0  0  -0.484809  0  1.420288  0  -0.618628  0  -0.260725  -0.455011  0  1.472921  0
N  N106  1  0.76583673  0.66753498  0.72835132  1  0  -0.644692  0  3.197318  0  0  -0.573064  0  3.434288  0  0  -0.592569  0  3.430684  0  -1.099945  0  -0.664632  -0.559694  0  3.437112  0
N  N107  1  0.23415933  0.33246320  0.27164780  1  0  -0.644722  0  3.197246  0  0  -0.573089  0  3.43429  0  0  -0.592596  0  3.430715  0  -1.099787  0  -0.664653  -0.559727  0  3.437111  0
N  N108  1  0.96217246  0.79695091  0.44614355  1  0  -0.645094  0  3.19147  0  0  -0.57572  0  3.432756  0  0  -0.595128  0  3.429778  0  -1.114275  0  -0.666128  -0.562378  0  3.434936  0
N  N109  1  0.03782846  0.20304885  0.55385831  1  0  -0.645215  0  3.191338  0  0  -0.575892  0  3.432865  0  0  -0.595282  0  3.429892  0  -1.114329  0  -0.666216  -0.562566  0  3.435035  0
N  N110  1  0.31397905  0.21106188  0.09574424  1  0  -0.630864  0  3.135781  0  0  -0.56766  0  3.378351  0  0  -0.587665  0  3.374593  0  -1.113942  0  -0.654415  -0.553752  0  3.38082  0
N  N111  1  0.68601751  0.78894579  0.90425018  1  0  -0.630923  0  3.135831  0  0  -0.567776  0  3.378431  0  0  -0.587747  0  3.374639  0  -1.113913  0  -0.654484  -0.553871  0  3.380892  0
