# generated using pymatgen
data_CoHC6O5
_symmetry_space_group_name_H-M   'P 1'
_cell_length_a   6.98092231
_cell_length_b   14.88890478
_cell_length_c   14.75112949
_cell_angle_alpha   117.62758901
_cell_angle_beta   98.98087841
_cell_angle_gamma   99.26598819
_symmetry_Int_Tables_number   1
_chemical_formula_structural   CoHC6O5
_chemical_formula_sum   'Co6 H6 C36 O30'
_cell_volume   1293.13436018
_cell_formula_units_Z   6
loop_
 _symmetry_equiv_pos_site_id
 _symmetry_equiv_pos_as_xyz
  1  'x, y, z'
loop_
 _atom_site_type_symbol
 _atom_site_label
 _atom_site_symmetry_multiplicity
 _atom_site_fract_x
 _atom_site_fract_y
 _atom_site_fract_z
 _atom_site_occupancy
 _atom_site_pbe_bader_charge
 _atom_site_pbe_bader_spin_density
 _atom_site_pbe_cm5_charge
 _atom_site_pbe_ddec_charge
 _atom_site_pbe_ddec_spin_density
 _atom_site_pbe_ddec_sum_bond_order
 _atom_site_pbe_magmom
Co  Co0  1  0.61691738  0.57457379  0.31667885  1  1.222095  2.224201  0.61991  0.815337  2.396974  2.971033  2.203
Co  Co1  1  0.31569572  0.68599783  0.26938603  1  1.178242  1.194525  0.617558  0.75748  1.28724  3.202039  1.182
Co  Co2  1  0.03568978  0.73455223  0.41613255  1  1.181944  1.082207  0.617438  0.757055  1.168677  3.192721  1.072
Co  Co3  1  0.38308145  0.42547417  0.68333792  1  1.221949  2.224681  0.619883  0.815217  2.397423  2.971083  2.204
Co  Co4  1  0.68422445  0.31400363  0.73059866  1  1.178041  1.194116  0.617563  0.757618  1.286842  3.201749  1.181
Co  Co5  1  0.96438228  0.26543552  0.58392168  1  1.181838  1.081537  0.617529  0.75683  1.167987  3.192789  1.071
H  H6  1  0.68839812  0.55275300  0.53071839  1  0.134542  0.000804  0.112872  0.137393  0.000285  1.010127  0.0
H  H7  1  0.15591874  0.47728868  0.02291630  1  0.134498  0.000783  0.113812  0.139483  0.000365  1.011139  0.0
H  H8  1  0.13343347  0.97448941  0.44847445  1  0.122196  0.000718  0.11266  0.138644  0.000357  1.013566  0.0
H  H9  1  0.31164690  0.44724971  0.46935987  1  0.134176  0.000804  0.112902  0.137372  0.000285  1.010124  0.0
H  H10  1  0.84401911  0.52275123  0.97706184  1  0.134676  0.000782  0.113851  0.139471  0.000365  1.011221  0.0
H  H11  1  0.86659253  0.02547829  0.55146748  1  0.121912  0.000718  0.112637  0.138695  0.000357  1.01365  0.0
C  C12  1  0.63863870  0.43915283  0.24569543  1  0.951617  -0.030342  0.064749  0.021974  -0.029618  3.49657  -0.012
C  C13  1  0.39672080  0.75067663  0.20250874  1  0.983541  -0.040188  0.073639  0.085587  -0.0411  3.566755  -0.023
C  C14  1  0.18664375  0.80021992  0.54625009  1  1.009839  -0.052516  0.077443  0.098139  -0.055163  3.578537  -0.03
C  C15  1  0.36143192  0.56091407  0.75432378  1  0.952769  -0.030321  0.064311  0.021881  -0.029605  3.496842  -0.012
C  C16  1  0.60325557  0.24937529  0.79752589  1  0.985215  -0.040211  0.073709  0.085616  -0.04113  3.567022  -0.023
C  C17  1  0.81345475  0.19980631  0.45380162  1  1.01123  -0.052514  0.077725  0.098481  -0.055167  3.578409  -0.03
C  C18  1  0.93789936  0.56814316  0.46613988  1  0.500036  0.016026  0.074808  0.273054  0.008507  4.087266  0.01
C  C19  1  0.46990473  0.53885089  0.10250879  1  0.528227  0.006877  0.077165  0.278051  0.003602  4.073071  0.005
C  C20  1  0.36994312  0.89744070  0.43298649  1  0.510963  0.005641  0.07337  0.266049  0.00239  4.059222  0.005
C  C21  1  0.06209962  0.43183260  0.53387573  1  0.50044  0.016012  0.074879  0.273302  0.008484  4.087499  0.01
C  C22  1  0.53005124  0.46116398  0.89748676  1  0.528104  0.006854  0.077286  0.278312  0.003588  4.072888  0.005
C  C23  1  0.63008518  0.10254208  0.56700535  1  0.511368  0.005626  0.073494  0.266172  0.002382  4.059437  0.005
C  C24  1  0.82563467  0.52927249  0.51727292  1  0.039846  0.015328  -0.088705  -0.173766  0.00792  3.920197  0.009
C  C25  1  0.30704017  0.48698927  0.01224029  1  0.030188  0.003621  -0.087417  -0.171782  0.001586  3.921391  0.003
C  C26  1  0.29520226  0.98603478  0.47119639  1  0.010628  0.002368  -0.090976  -0.175101  0.000726  3.929657  0.001
C  C27  1  0.17437628  0.47070960  0.48275328  1  0.040184  0.015326  -0.08881  -0.173901  0.007935  3.920213  0.009
C  C28  1  0.69291694  0.51303659  0.98775505  1  0.030063  0.003625  -0.087549  -0.171966  0.001589  3.921399  0.003
C  C29  1  0.70482051  0.01394321  0.52877451  1  0.010478  0.002386  -0.091065  -0.17549  0.000737  3.930572  0.001
C  C30  1  0.11704968  0.53731040  0.44768715  1  -0.002207  0.01255  -0.022238  -0.129603  0.006311  3.950976  0.008
C  C31  1  0.66900751  0.55330990  0.09038130  1  -0.031823  0.00916  -0.022057  -0.130134  0.004264  3.939806  0.006
C  C32  1  0.58127609  0.91157065  0.46345228  1  -0.015564  0.007739  -0.02324  -0.129463  0.00388  3.946979  0.005
C  C33  1  0.88293294  0.46264174  0.55230949  1  -0.000609  0.012594  -0.022575  -0.130057  0.006335  3.951273  0.008
C  C34  1  0.33095376  0.44670106  0.90961484  1  -0.032857  0.009169  -0.022193  -0.130319  0.004269  3.940224  0.006
C  C35  1  0.41874600  0.08840891  0.53651727  1  -0.017026  0.007737  -0.023311  -0.129788  0.003879  3.946744  0.005
C  C36  1  0.24522213  0.56605507  0.38832496  1  1.521206  0.008195  0.230711  0.602642  0.005059  4.080331  0.007
C  C37  1  0.85783971  0.61294237  0.17921481  1  1.534131  0.004354  0.229844  0.599443  0.002506  4.091902  0.003
C  C38  1  0.68209765  0.82427388  0.43656015  1  1.538996  0.008561  0.222983  0.593849  0.005885  4.121491  0.006
C  C39  1  0.75474605  0.43390018  0.61166803  1  1.520882  0.008191  0.23082  0.602905  0.005058  4.079576  0.007
C  C40  1  0.14212210  0.38707252  0.82078321  1  1.533327  0.004358  0.229533  0.598652  0.00251  4.092497  0.003
C  C41  1  0.31791344  0.17570408  0.56340380  1  1.539281  0.00856  0.223332  0.594223  0.005887  4.120787  0.006
C  C42  1  0.81610361  0.78588616  0.67687885  1  1.103481  0.00027  0.126906  0.125286  7.5e-05  2.54871  0.0
C  C43  1  0.14025422  0.32251646  0.10806071  1  1.125619  0.000589  0.126573  0.124055  6.9e-05  2.543719  0.0
C  C44  1  0.03193851  0.89126863  0.21392882  1  1.128127  0.00021  0.126782  0.125129  3.3e-05  2.548751  0.0
C  C45  1  0.18377067  0.21407353  0.32307087  1  1.104119  0.00027  0.126895  0.125195  7.6e-05  2.548354  0.0
C  C46  1  0.85979229  0.67739954  0.89213446  1  1.123679  0.000588  0.126332  0.123694  6.7e-05  2.544247  0.0
C  C47  1  0.96794264  0.10867543  0.78603782  1  1.127049  0.000211  0.126907  0.125377  3.3e-05  2.548485  0.0
O  O48  1  0.86420518  0.63210574  0.43699762  1  -1.057777  0.088592  -0.317305  -0.493507  0.047365  2.654294  0.075
O  O49  1  0.42843692  0.57046522  0.19772044  1  -1.051232  0.079208  -0.322321  -0.496247  0.040942  2.681488  0.068
O  O50  1  0.23097975  0.80306875  0.36687282  1  -1.022693  0.008328  -0.310954  -0.471478  0.001836  2.628301  0.005
O  O51  1  0.13579638  0.36787790  0.56302661  1  -1.058433  0.088779  -0.317368  -0.493555  0.047467  2.654421  0.076
O  O52  1  0.57153491  0.42955519  0.80228019  1  -1.051472  0.079269  -0.322393  -0.496515  0.040973  2.681519  0.068
O  O53  1  0.76902111  0.19691023  0.63316749  1  -1.022676  0.008346  -0.310923  -0.471495  0.001853  2.628087  0.005
O  O54  1  0.18368508  0.61662606  0.34314472  1  -1.104395  0.048525  -0.289057  -0.494714  0.025709  2.54317  0.041
O  O55  1  0.83630468  0.65803927  0.27514333  1  -1.112758  0.043078  -0.297507  -0.505716  0.023269  2.554145  0.037
O  O56  1  0.56869444  0.73040230  0.39493121  1  -1.144599  0.092775  -0.301337  -0.531013  0.04834  2.516371  0.079
O  O57  1  0.81627224  0.38331345  0.65683880  1  -1.104752  0.048474  -0.288956  -0.494595  0.025671  2.543279  0.041
O  O58  1  0.16372201  0.34194279  0.72486704  1  -1.112523  0.042946  -0.297477  -0.505337  0.023199  2.554304  0.037
O  O59  1  0.43128788  0.26957879  0.60504232  1  -1.144497  0.092813  -0.301446  -0.531297  0.048358  2.516115  0.079
O  O60  1  0.40508778  0.53671391  0.38223386  1  -1.134705  0.086849  -0.287887  -0.496563  0.044679  2.370649  0.074
O  O61  1  0.02400846  0.61813947  0.15680880  1  -1.127021  0.078129  -0.275412  -0.487966  0.039816  2.313696  0.069
O  O62  1  0.87266686  0.84773347  0.45910967  1  -1.105536  0.075169  -0.278353  -0.486132  0.037827  2.315831  0.066
O  O63  1  0.59489654  0.46325626  0.61775776  1  -1.134956  0.086808  -0.287925  -0.496675  0.044657  2.370638  0.074
O  O64  1  0.97594213  0.38189969  0.84317533  1  -1.12594  0.07809  -0.275059  -0.487329  0.039796  2.313802  0.069
O  O65  1  0.12733284  0.15223104  0.54082549  1  -1.105671  0.075133  -0.278485  -0.486032  0.037805  2.315303  0.066
O  O66  1  0.65046798  0.35340104  0.20790916  1  -1.082726  -0.03394  -0.127943  -0.085303  -0.0406  2.443873  -0.032
O  O67  1  0.44043611  0.78854942  0.15307647  1  -1.061354  -0.024398  -0.121398  -0.093575  -0.025846  2.400542  -0.021
O  O68  1  0.28537251  0.84668378  0.63285919  1  -1.072466  -0.024918  -0.118573  -0.091899  -0.024116  2.389637  -0.021
O  O69  1  0.34983116  0.64670783  0.79213986  1  -1.083755  -0.033953  -0.127632  -0.08532  -0.040614  2.444219  -0.032
O  O70  1  0.55971336  0.21157752  0.84703471  1  -1.062866  -0.024394  -0.121359  -0.093472  -0.025831  2.400874  -0.021
O  O71  1  0.71477547  0.15343277  0.36719550  1  -1.07325  -0.024896  -0.118756  -0.091956  -0.024088  2.389711  -0.02
O  O72  1  0.64480618  0.75818404  0.64515823  1  -1.104714  0.000435  -0.105502  -0.097868  9.9e-05  2.514937  0.0
O  O73  1  0.00637551  0.35826486  0.11442796  1  -1.128053  0.000491  -0.104994  -0.097307  0.000102  2.513324  0.0
O  O74  1  0.88852982  0.88549833  0.24150124  1  -1.129695  0.000277  -0.105982  -0.099244  5.6e-05  2.517936  0.0
O  O75  1  0.35506072  0.24181123  0.35487401  1  -1.105336  0.000435  -0.105507  -0.097782  9.9e-05  2.5145  0.0
O  O76  1  0.99354713  0.64155874  0.88517221  1  -1.126148  0.000492  -0.104752  -0.096943  0.000103  2.513827  0.0
O  O77  1  0.11138931  0.11460450  0.75852732  1  -1.12866  0.000277  -0.106113  -0.099458  5.6e-05  2.517645  0.0
