# generated using pymatgen
data_Zn4H14C35O17
_symmetry_space_group_name_H-M   'P 1'
_cell_length_a   16.13511715
_cell_length_b   16.12982350
_cell_length_c   19.55920991
_cell_angle_alpha   83.47057674
_cell_angle_beta   89.09211675
_cell_angle_gamma   83.19772919
_symmetry_Int_Tables_number   1
_chemical_formula_structural   Zn4H14C35O17
_chemical_formula_sum   'Zn4 H14 C35 O17'
_cell_volume   5021.78030046
_cell_formula_units_Z   1
loop_
 _symmetry_equiv_pos_site_id
 _symmetry_equiv_pos_as_xyz
  1  'x, y, z'
loop_
 _atom_site_type_symbol
 _atom_site_label
 _atom_site_symmetry_multiplicity
 _atom_site_fract_x
 _atom_site_fract_y
 _atom_site_fract_z
 _atom_site_occupancy
 _atom_site_pbe_bader_charge
 _atom_site_pbe_bader_spin_density
 _atom_site_pbe_cm5_charge
 _atom_site_pbe_ddec_charge
 _atom_site_pbe_ddec_spin_density
 _atom_site_pbe_ddec_sum_bond_order
 _atom_site_pbe_magmom
Zn  Zn0  1  0.42615320  0.57105056  0.55806504  1  1.3172  0  0.675555  0.966978  0  2.360913  0
Zn  Zn1  1  0.56201989  0.57209575  0.43371340  1  1.319997  0  0.678461  0.968286  0  2.363856  0
Zn  Zn2  1  0.42994451  0.43962380  0.44681015  1  1.31501  0  0.674333  0.963263  0  2.375144  0
Zn  Zn3  1  0.57791279  0.42334499  0.55901496  1  1.315975  0  0.67472  0.968556  0  2.360986  0
H  H4  1  0.38289134  0.54277669  0.77035200  1  0.134023  0  0.112025  0.11299  0  1.000996  0
H  H5  1  0.62377287  0.39775634  0.77131682  1  0.122338  0  0.116925  0.122363  0  0.975872  0
H  H6  1  0.61361951  0.57995119  0.04397432  1  0.581759  0  0.327729  0.353025  0  0.904283  0
H  H7  1  0.62755011  0.01915545  0.60282634  1  0.053251  0  0.109138  0.04745  0  0.946565  0
H  H8  1  0.51554086  0.30160689  0.97978763  1  0.033821  0  0.097278  0.029038  0  0.963069  0
H  H9  1  0.30679063  0.56319569  0.86666647  1  0.043558  0  0.099674  0.031261  0  0.956626  0
H  H10  1  0.98900427  0.56439430  0.55323965  1  0.078607  0  0.124267  0.128725  0  0.954325  0
H  H11  1  0.00981967  0.43566412  0.44663773  1  0.121248  0  0.130593  0.135692  0  0.944785  0
H  H12  1  0.43810341  0.01387217  0.45014756  1  0.146459  0  0.136754  0.142384  0  0.934466  0
H  H13  1  0.38866607  0.43732420  0.23668426  1  0.090592  0  0.109243  0.118777  0  0.992888  0
H  H14  1  0.59014858  0.59195465  0.22219199  1  0.129302  0  0.115961  0.141437  0  0.978348  0
H  H15  1  0.49974569  0.56730498  0.98909921  1  0.045685  0  0.107944  0.095479  0  0.989415  0
H  H16  1  0.62228301  0.37934079  0.89945302  1  0.063857  0  0.109158  0.11294  0  0.986254  0
H  H17  1  0.39589681  0.43201084  0.10943094  1  0.10533  0  0.111187  0.116587  0  0.976922  0
C  C18  1  0.72415398  0.48857304  0.48933195  1  1.662698  0  0.239231  0.680776  0  4.23774  0
C  C19  1  0.50422551  0.43769857  0.98442440  1  -0.018566  0  -0.016507  -0.036978  0  3.964179  0
C  C20  1  0.50147834  0.50578937  0.01997674  1  -0.078723  0  -0.058324  -0.09962  0  3.929477  0
C  C21  1  0.27415329  0.51152779  0.51031594  1  1.650511  0  0.227579  0.671567  0  4.247343  0
C  C22  1  0.48941878  0.51436218  0.23695140  1  -0.016655  0  -0.013434  -0.016198  0  4.001164  0
C  C23  1  0.81386688  0.48414471  0.48559474  1  0.149974  0  -0.028022  -0.177217  0  3.906863  0
C  C24  1  0.97698500  0.47747417  0.48108795  1  0.099166  0  -0.049587  -0.042519  0  4.039915  0
C  C25  1  0.02175238  0.52245580  0.51889922  1  0.20192  0  -0.063241  -0.062551  0  4.062575  0
C  C26  1  0.10899625  0.51773262  0.51579364  1  -0.468693  0  -0.022987  0.013394  0  4.147486  0
C  C27  1  0.88977333  0.48146117  0.48364969  1  -0.426124  0  -0.009311  0.028986  0  4.113067  0
C  C28  1  0.18491872  0.51490017  0.51398456  1  0.167029  0  -0.038269  -0.19117  0  3.949822  0
C  C29  1  0.50061281  0.44857698  0.90833851  1  -0.027639  0  0.008976  0.069559  0  3.972358  0
C  C30  1  0.48381391  0.81577213  0.48808639  1  0.192537  0  -0.002872  -0.133442  0  3.84152  0
C  C31  1  0.48321217  0.97798360  0.48669675  1  0.129846  0  -0.025911  -0.035912  0  3.946618  0
C  C32  1  0.53055508  0.02176893  0.52452986  1  0.190887  0  -0.001458  0.031517  0  4.060143  0
C  C33  1  0.48685991  0.72607001  0.49043649  1  1.695848  0  0.238953  0.670795  0  4.248555  0
C  C34  1  0.52196000  0.11021328  0.51737145  1  -0.457908  0  -0.024768  -0.044562  0  4.134697  0
C  C35  1  0.48707795  0.89087353  0.49031670  1  -0.422601  0  0.000508  0.040137  0  4.098737  0
C  C36  1  0.51909728  0.18640356  0.51514372  1  0.150224  0  -0.034853  -0.16965  0  3.950492  0
C  C37  1  0.51390507  0.27648014  0.51115371  1  1.628152  0  0.231682  0.676773  0  4.236461  0
C  C38  1  0.48927231  0.51380034  0.31319738  1  1.560607  0  0.228826  0.605354  0  4.157383  0
C  C39  1  0.50571079  0.48532989  0.68602920  1  1.564555  0  0.230914  0.606833  0  4.166853  0
C  C40  1  0.56882159  0.41400431  0.87129492  1  -0.048555  0  -0.084491  -0.144003  0  3.988899  0
C  C41  1  0.50417804  0.47293507  0.76292433  1  -0.027407  0  -0.015984  -0.039809  0  3.973356  0
C  C42  1  0.43539749  0.50705767  0.79910028  1  -0.053982  0  -0.064242  -0.09906  0  3.9272  0
C  C43  1  0.43154944  0.49344192  0.87102637  1  0.035313  0  -0.018377  -0.039052  0  3.97789  0
C  C44  1  0.59310594  0.97710371  0.57529252  1  0.967576  0  0.108422  0.268386  0  3.945331  0
C  C45  1  0.52096333  0.34886990  0.01662460  1  0.968364  0  0.096117  0.266902  0  3.972847  0
C  C46  1  0.34988820  0.52013047  0.90273936  1  0.938299  0  0.09749  0.269566  0  3.99428  0
C  C47  1  0.57060896  0.42505908  0.79962364  1  -0.002803  0  -0.063902  -0.052691  0  3.936791  0
C  C48  1  0.43873948  0.46581127  0.13495488  1  -0.032047  0  -0.073712  -0.077451  0  3.969164  0
C  C49  1  0.43408941  0.46934905  0.20531113  1  0.035197  0  -0.090078  -0.117272  0  3.991843  0
C  C50  1  0.54706548  0.55754568  0.19758768  1  -0.01173  0  -0.089362  -0.202343  0  3.926493  0
C  C51  1  0.55110251  0.55406606  0.12669131  1  0.443227  0  0.087155  0.269592  0  4.05234  0
C  C52  1  0.49769845  0.50704559  0.09437392  1  0.030726  0  -0.018121  -0.012179  0  4.028048  0
O  O53  1  0.49964710  0.50186563  0.50011015  1  -1.232013  0  -0.569876  -1.035312  0  2.52471  0
O  O54  1  0.53948863  0.55793319  0.33849666  1  -1.174019  0  -0.315158  -0.547249  0  2.346209  0
O  O55  1  0.56398119  0.44185164  0.65643219  1  -1.16404  0  -0.313956  -0.546652  0  2.331451  0
O  O56  1  0.43980121  0.46846530  0.34758818  1  -1.166251  0  -0.311373  -0.541627  0  2.339287  0
O  O57  1  0.44836934  0.53793405  0.65656763  1  -1.169877  0  -0.311301  -0.538396  0  2.329717  0
O  O58  1  0.61051189  0.59529139  0.09082831  1  -1.104655  0  -0.354493  -0.436955  0  2.23952  0
O  O59  1  0.60627383  0.90058362  0.58651605  1  -1.055636  0  -0.24764  -0.328696  0  2.11241  0
O  O60  1  0.54170948  0.32597679  0.07630293  1  -1.069429  0  -0.256859  -0.337351  0  2.115369  0
O  O61  1  0.32673768  0.49638852  0.96078692  1  -1.079498  0  -0.264567  -0.35026  0  2.12064  0
O  O62  1  0.44078607  0.69087614  0.53576246  1  -1.141122  0  -0.30347  -0.52927  0  2.272518  0
O  O63  1  0.56178427  0.30570794  0.55160673  1  -1.139571  0  -0.311392  -0.542185  0  2.270743  0
O  O64  1  0.68362496  0.54442704  0.44739714  1  -1.148737  0  -0.302135  -0.527607  0  2.27107  0
O  O65  1  0.31130918  0.46070917  0.47108744  1  -1.142926  0  -0.309738  -0.536911  0  2.283289  0
O  O66  1  0.69502902  0.43613164  0.53447962  1  -1.150921  0  -0.306804  -0.533766  0  2.270855  0
O  O67  1  0.30754378  0.55978534  0.54660036  1  -1.14518  0  -0.311329  -0.539684  0  2.276015  0
O  O68  1  0.53550009  0.69183051  0.44707580  1  -1.148338  0  -0.301997  -0.526019  0  2.269461  0
O  O69  1  0.46204001  0.31771360  0.46771724  1  -1.155023  0  -0.306899  -0.533749  0  2.277739  0
