# generated using pymatgen
data_Sm2Zn3H36(C2O3)12
_symmetry_space_group_name_H-M   'P 1'
_cell_length_a   14.82494050
_cell_length_b   14.82489436
_cell_length_c   15.86830166
_cell_angle_alpha   89.99982284
_cell_angle_beta   90.00013793
_cell_angle_gamma   120.00008878
_symmetry_Int_Tables_number   1
_chemical_formula_structural   Sm2Zn3H36(C2O3)12
_chemical_formula_sum   'Sm4 Zn6 H72 C48 O72'
_cell_volume   3020.26644317
_cell_formula_units_Z   2
loop_
 _symmetry_equiv_pos_site_id
 _symmetry_equiv_pos_as_xyz
  1  'x, y, z'
loop_
 _atom_site_type_symbol
 _atom_site_label
 _atom_site_symmetry_multiplicity
 _atom_site_fract_x
 _atom_site_fract_y
 _atom_site_fract_z
 _atom_site_occupancy
 _atom_site_pbe_bader_charge
 _atom_site_pbe_bader_spin_density
 _atom_site_pbe_cm5_charge
 _atom_site_pbe_ddec_charge
 _atom_site_pbe_ddec_spin_density
 _atom_site_pbe_ddec_sum_bond_order
 _atom_site_pbe_magmom
Sm  Sm0  1  0.66666541  0.33333453  0.74999924  1  2.213795  0  1.49779  1.992243  0  2.220802  0
Sm  Sm1  1  0.33333532  0.66666535  0.75000090  1  2.213531  0  1.497829  1.992232  0  2.220676  0
Sm  Sm2  1  0.33333327  0.66666506  0.25000222  1  2.213711  0  1.497798  1.992197  0  2.220731  0
Sm  Sm3  1  0.66666482  0.33333413  0.24999930  1  2.213508  0  1.497815  1.992327  0  2.220765  0
Zn  Zn4  1  0.50000141  0.50000011  0.00000047  1  1.367359  0  0.665104  0.994617  0  2.19312  0
Zn  Zn5  1  0.00000143  0.50000152  0.99999917  1  1.364932  0  0.665159  0.994538  0  2.192985  0
Zn  Zn6  1  0.50000014  0.99999893  0.99999963  1  1.370887  0  0.665207  0.994583  0  2.192868  0
Zn  Zn7  1  0.99999891  0.49999875  0.50000035  1  1.370797  0  0.665176  0.994631  0  2.192956  0
Zn  Zn8  1  0.49999948  0.50000032  0.50000041  1  1.367215  0  0.665142  0.994633  0  2.19309  0
Zn  Zn9  1  0.49999924  0.99999960  0.49999925  1  1.365005  0  0.665177  0.994591  0  2.192872  0
H  H10  1  0.54220892  0.36281394  0.05052030  1  0.637001  0  0.29315  0.382367  0  0.951154  0
H  H11  1  0.71992616  0.64028210  0.76722754  1  0.063746  0  0.110905  0.091105  0  0.994014  0
H  H12  1  0.80766661  0.64028426  0.84509672  1  0.085814  0  0.121654  0.113585  0  0.942533  0
H  H13  1  0.82060697  0.45779125  0.05051921  1  0.638258  0  0.293139  0.382378  0  0.951157  0
H  H14  1  0.92035318  0.28007618  0.76722640  1  0.064114  0  0.110921  0.09108  0  0.993971  0
H  H15  1  0.83261656  0.19233767  0.84509740  1  0.09093  0  0.121654  0.113568  0  0.942534  0
H  H16  1  0.63718307  0.17939042  0.05052004  1  0.635176  0  0.293121  0.382362  0  0.951175  0
H  H17  1  0.35971770  0.07964446  0.76722543  1  0.061336  0  0.110915  0.091108  0  0.993995  0
H  H18  1  0.35971412  0.16737904  0.84509627  1  0.083341  0  0.121641  0.113544  0  0.942529  0
H  H19  1  0.45779077  0.63718528  0.05051917  1  0.635011  0  0.293135  0.382362  0  0.951171  0
H  H20  1  0.28007430  0.35971667  0.76722746  1  0.064135  0  0.110922  0.09113  0  0.993937  0
H  H21  1  0.19233512  0.35971313  0.84509706  1  0.086256  0  0.121701  0.113617  0  0.94242  0
H  H22  1  0.17939271  0.54220797  0.05051963  1  0.63798  0  0.293139  0.382361  0  0.951177  0
H  H23  1  0.07964591  0.71992666  0.76722671  1  0.064082  0  0.110936  0.091115  0  0.993991  0
H  H24  1  0.16738252  0.80766642  0.84509575  1  0.098583  0  0.121637  0.113559  0  0.94253  0
H  H25  1  0.36281604  0.82060668  0.05051817  1  0.635336  0  0.293131  0.382349  0  0.951198  0
H  H26  1  0.64028238  0.92035470  0.76722579  1  0.06166  0  0.110924  0.091093  0  0.994  0
H  H27  1  0.64028548  0.83261778  0.84509688  1  0.083293  0  0.121674  0.113602  0  0.942462  0
H  H28  1  0.17939155  0.63718181  0.44947964  1  0.63419  0  0.293138  0.382358  0  0.951169  0
H  H29  1  0.07964614  0.35972048  0.73277364  1  0.061406  0  0.110948  0.091125  0  0.993979  0
H  H30  1  0.16738176  0.35971813  0.65490340  1  0.090325  0  0.121658  0.113583  0  0.942484  0
H  H31  1  0.36281866  0.54220908  0.44947872  1  0.635515  0  0.293142  0.382397  0  0.951122  0
H  H32  1  0.64028078  0.71992396  0.73277186  1  0.064051  0  0.110917  0.091105  0  0.993971  0
H  H33  1  0.64028154  0.80766241  0.65490076  1  0.086281  0  0.121665  0.11359  0  0.942493  0
H  H34  1  0.45779228  0.82060656  0.44948158  1  0.637851  0  0.293115  0.38233  0  0.95123  0
H  H35  1  0.28007656  0.92035546  0.73276990  1  0.063996  0  0.11091  0.091115  0  0.994035  0
H  H36  1  0.19233219  0.83261807  0.65490211  1  0.090882  0  0.121678  0.113602  0  0.942471  0
H  H37  1  0.82061018  0.36281480  0.44948013  1  0.635787  0  0.293118  0.382373  0  0.951161  0
H  H38  1  0.92035574  0.64027827  0.73277166  1  0.061071  0  0.110902  0.091085  0  0.994041  0
H  H39  1  0.83261970  0.64028519  0.65490311  1  0.083335  0  0.121658  0.113573  0  0.94246  0
H  H40  1  0.63718635  0.45779235  0.44948105  1  0.635178  0  0.293139  0.382382  0  0.951152  0
H  H41  1  0.35971829  0.28007355  0.73277155  1  0.06407  0  0.110915  0.091106  0  0.993995  0
H  H42  1  0.35971917  0.19233627  0.65490071  1  0.085492  0  0.121643  0.113564  0  0.942502  0
H  H43  1  0.54221030  0.17939323  0.44947945  1  0.638231  0  0.293165  0.382445  0  0.951054  0
H  H44  1  0.71992375  0.07964485  0.73277414  1  0.064068  0  0.110914  0.091066  0  0.993979  0
H  H45  1  0.80766087  0.16738152  0.65490188  1  0.091301  0  0.12164  0.113511  0  0.942541  0
H  H46  1  0.45779008  0.63718128  0.94947864  1  0.637005  0  0.293148  0.382388  0  0.951128  0
H  H47  1  0.28007493  0.35971912  0.23277203  1  0.063774  0  0.110918  0.091101  0  0.99399  0
H  H48  1  0.19233623  0.35971791  0.15490159  1  0.085888  0  0.121667  0.113588  0  0.942457  0
H  H49  1  0.17939249  0.54220755  0.94948036  1  0.638259  0  0.293134  0.382366  0  0.951171  0
H  H50  1  0.07964550  0.71992340  0.23277127  1  0.064108  0  0.110919  0.0911  0  0.994036  0
H  H51  1  0.16738259  0.80766549  0.15490406  1  0.090932  0  0.121642  0.113546  0  0.942527  0
H  H52  1  0.36281717  0.82060761  0.94947953  1  0.635154  0  0.293117  0.382343  0  0.951192  0
H  H53  1  0.64028002  0.92035339  0.23277351  1  0.061397  0  0.110941  0.091101  0  0.994003  0
H  H54  1  0.64028235  0.83261600  0.15490393  1  0.083349  0  0.121647  0.113566  0  0.942498  0
H  H55  1  0.54220888  0.36281604  0.94948040  1  0.63502  0  0.293129  0.382359  0  0.95118  0
H  H56  1  0.71992700  0.64028165  0.23277337  1  0.064458  0  0.110931  0.091133  0  0.993981  0
H  H57  1  0.80766455  0.64028277  0.15490314  1  0.086264  0  0.121656  0.11357  0  0.942481  0
H  H58  1  0.82060664  0.45779229  0.94947994  1  0.637972  0  0.293126  0.382349  0  0.951201  0
H  H59  1  0.92035402  0.28007573  0.23277349  1  0.064081  0  0.110928  0.091094  0  0.994  0
H  H60  1  0.83261759  0.19233849  0.15490255  1  0.098613  0  0.121631  0.113488  0  0.942579  0
H  H61  1  0.63718139  0.17939010  0.94948077  1  0.635336  0  0.293114  0.382364  0  0.951175  0
H  H62  1  0.35972038  0.07964351  0.23277252  1  0.061653  0  0.110921  0.091083  0  0.994008  0
H  H63  1  0.35971554  0.16737947  0.15490269  1  0.083334  0  0.121653  0.113546  0  0.942495  0
H  H64  1  0.82060869  0.36281622  0.55051930  1  0.634214  0  0.293114  0.382342  0  0.951202  0
H  H65  1  0.92035545  0.64027889  0.26722656  1  0.061373  0  0.110909  0.091085  0  0.994032  0
H  H66  1  0.83262078  0.64028298  0.34509743  1  0.090056  0  0.121673  0.113601  0  0.942467  0
H  H67  1  0.63718400  0.45779058  0.55052085  1  0.635509  0  0.293106  0.382325  0  0.951223  0
H  H68  1  0.35971879  0.28007339  0.26722582  1  0.064022  0  0.110917  0.091092  0  0.994005  0
H  H69  1  0.35971859  0.19233707  0.34509818  1  0.086276  0  0.121666  0.113606  0  0.942462  0
H  H70  1  0.54220746  0.17939330  0.55051799  1  0.637859  0  0.293119  0.382331  0  0.951236  0
H  H71  1  0.71992560  0.07964604  0.26722778  1  0.064087  0  0.110917  0.091096  0  0.993978  0
H  H72  1  0.80766571  0.16738229  0.34509746  1  0.090908  0  0.121648  0.113584  0  0.942482  0
H  H73  1  0.17939325  0.63718408  0.55051944  1  0.635772  0  0.293133  0.382361  0  0.951172  0
H  H74  1  0.07964567  0.35971858  0.26722602  1  0.061076  0  0.110925  0.091107  0  0.994014  0
H  H75  1  0.16738004  0.35971468  0.34509709  1  0.083349  0  0.121662  0.113574  0  0.94246  0
H  H76  1  0.36281485  0.54220742  0.55051915  1  0.635181  0  0.293097  0.382314  0  0.951251  0
H  H77  1  0.64028088  0.71992419  0.26722991  1  0.063785  0  0.110883  0.091084  0  0.993988  0
H  H78  1  0.64028647  0.80766715  0.34509760  1  0.085404  0  0.121681  0.113623  0  0.942445  0
H  H79  1  0.45779089  0.82060653  0.55052075  1  0.63827  0  0.293148  0.382399  0  0.951125  0
H  H80  1  0.28007251  0.92035310  0.26722606  1  0.064087  0  0.110935  0.091105  0  0.994  0
H  H81  1  0.19233569  0.83261749  0.34509706  1  0.091278  0  0.121647  0.113585  0  0.942516  0
C  C82  1  0.64940228  0.51853327  0.86016197  1  1.614765  0  0.225516  0.633552  0  4.162936  0
C  C83  1  0.74046881  0.59028201  0.80443830  1  0.416757  0  -0.057074  -0.11558  0  3.913563  0
C  C84  1  0.86913078  0.35060291  0.86016057  1  1.622622  0  0.225416  0.633329  0  4.163199  0
C  C85  1  0.84980988  0.25953365  0.80443765  1  0.407551  0  -0.057051  -0.115465  0  3.913509  0
C  C86  1  0.48146003  0.13085817  0.86016550  1  1.631816  0  0.225442  0.633388  0  4.16332  0
C  C87  1  0.40971813  0.15018587  0.80443731  1  0.41593  0  -0.057115  -0.11562  0  3.913568  0
C  C88  1  0.35059700  0.48147330  0.86015791  1  1.614669  0  0.225329  0.633171  0  4.163178  0
C  C89  1  0.25953305  0.40971801  0.80443865  1  0.416478  0  -0.057074  -0.11553  0  3.913445  0
C  C90  1  0.13086687  0.64940124  0.86016372  1  1.622432  0  0.225435  0.633464  0  4.162909  0
C  C91  1  0.15018819  0.74046881  0.80443742  1  0.400151  0  -0.057088  -0.115556  0  3.913471  0
C  C92  1  0.51853391  0.86913214  0.86016195  1  1.631645  0  0.22546  0.633475  0  4.163104  0
C  C93  1  0.59028170  0.84981212  0.80443712  1  0.416147  0  -0.057092  -0.115539  0  3.913438  0
C  C94  1  0.13087810  0.48147752  0.63984360  1  1.630986  0  0.225448  0.633391  0  4.163022  0
C  C95  1  0.15018884  0.40972090  0.69556298  1  0.408842  0  -0.057054  -0.115452  0  3.91348  0
C  C96  1  0.51852627  0.64939946  0.63984127  1  1.612639  0  0.225441  0.633464  0  4.163171  0
C  C97  1  0.59027922  0.74046586  0.69556111  1  0.418198  0  -0.057062  -0.115523  0  3.913581  0
C  C98  1  0.35059593  0.86912496  0.63983572  1  1.622216  0  0.225441  0.633544  0  4.1627  0
C  C99  1  0.25953148  0.84981176  0.69556058  1  0.40798  0  -0.057046  -0.115539  0  3.913439  0
C  C100  1  0.86913116  0.51853287  0.63983555  1  1.630433  0  0.225481  0.633546  0  4.162873  0
C  C101  1  0.84981210  0.59028018  0.69556225  1  0.416955  0  -0.057085  -0.115553  0  3.913518  0
C  C102  1  0.48147074  0.35060025  0.63984103  1  1.614665  0  0.225405  0.633387  0  4.162913  0
C  C103  1  0.40972009  0.25953281  0.69556160  1  0.417525  0  -0.057055  -0.115505  0  3.913503  0
C  C104  1  0.64939543  0.13086286  0.63983713  1  1.623009  0  0.225474  0.633348  0  4.163322  0
C  C105  1  0.74046521  0.15018819  0.69556214  1  0.406899  0  -0.05702  -0.115378  0  3.913481  0
C  C106  1  0.35059975  0.48147512  0.13984264  1  1.615001  0  0.225383  0.633345  0  4.16292  0
C  C107  1  0.25953296  0.40971989  0.19556127  1  0.416698  0  -0.057044  -0.115448  0  3.913448  0
C  C108  1  0.13087011  0.64940122  0.13983647  1  1.622707  0  0.22544  0.633432  0  4.162887  0
C  C109  1  0.15018937  0.74046806  0.19556255  1  0.40758  0  -0.057051  -0.115463  0  3.913488  0
C  C110  1  0.51853183  0.86913069  0.13983785  1  1.631241  0  0.225461  0.633489  0  4.162962  0
C  C111  1  0.59028037  0.84981120  0.19556352  1  0.415887  0  -0.057052  -0.115467  0  3.913452  0
C  C112  1  0.64940119  0.51852813  0.13984292  1  1.614342  0  0.225387  0.633459  0  4.163033  0
C  C113  1  0.74046786  0.59028069  0.19556281  1  0.416627  0  -0.057068  -0.115546  0  3.913549  0
C  C114  1  0.86913150  0.35060270  0.13984026  1  1.622636  0  0.225407  0.633309  0  4.163223  0
C  C115  1  0.84981241  0.25953425  0.19556278  1  0.399958  0  -0.057032  -0.115344  0  3.913452  0
C  C116  1  0.48146537  0.13086414  0.13983573  1  1.631319  0  0.225447  0.633519  0  4.162903  0
C  C117  1  0.40971960  0.15018619  0.19556244  1  0.416301  0  -0.057065  -0.115478  0  3.913398  0
C  C118  1  0.86913563  0.51853399  0.36016479  1  1.6314  0  0.225476  0.633493  0  4.16293  0
C  C119  1  0.84981236  0.59027886  0.30443785  1  0.409355  0  -0.057094  -0.115584  0  3.913516  0
C  C120  1  0.48147085  0.35060169  0.36015830  1  1.612895  0  0.225468  0.633497  0  4.163061  0
C  C121  1  0.40971985  0.25953333  0.30443783  1  0.418342  0  -0.057059  -0.115496  0  3.913484  0
C  C122  1  0.64940086  0.13086573  0.36016448  1  1.622434  0  0.225495  0.633601  0  4.162774  0
C  C123  1  0.74046827  0.15018811  0.30443899  1  0.407697  0  -0.057047  -0.115551  0  3.913397  0
C  C124  1  0.13087331  0.48147172  0.36015645  1  1.630771  0  0.225435  0.633415  0  4.162992  0
C  C125  1  0.15018668  0.40971795  0.30443669  1  0.416895  0  -0.057073  -0.115505  0  3.913531  0
C  C126  1  0.51853082  0.64940455  0.36016421  1  1.614814  0  0.225501  0.633578  0  4.162811  0
C  C127  1  0.59028101  0.74046841  0.30443986  1  0.417554  0  -0.057033  -0.115553  0  3.913427  0
C  C128  1  0.35060190  0.86913537  0.36016181  1  1.622834  0  0.225501  0.633554  0  4.163024  0
C  C129  1  0.25953163  0.84981189  0.30443806  1  0.40684  0  -0.057105  -0.115585  0  3.913547  0
O  O130  1  0.61593935  0.42043624  0.85529136  1  -1.186843  0  -0.379936  -0.65217  0  2.272817  0
O  O131  1  0.61617691  0.56359029  0.90714547  1  -1.173622  0  -0.30483  -0.53422  0  2.281131  0
O  O132  1  0.80448835  0.38406027  0.85528974  1  -1.189252  0  -0.379957  -0.652153  0  2.272647  0
O  O133  1  0.94741079  0.38383109  0.90713918  1  -1.173478  0  -0.304679  -0.534012  0  2.281479  0
O  O134  1  0.57956593  0.19550541  0.85529039  1  -1.195799  0  -0.379944  -0.652237  0  2.2725  0
O  O135  1  0.43641323  0.05259066  0.90713971  1  -1.17281  0  -0.304691  -0.533918  0  2.281706  0
O  O136  1  0.38406105  0.57955977  0.85529087  1  -1.187263  0  -0.379771  -0.651856  0  2.273335  0
O  O137  1  0.38382674  0.43640644  0.90715233  1  -1.173527  0  -0.304826  -0.534181  0  2.28059  0
O  O138  1  0.19550467  0.61593772  0.85528871  1  -1.189196  0  -0.379901  -0.652177  0  2.272546  0
O  O139  1  0.05259569  0.61618171  0.90714539  1  -1.173491  0  -0.304711  -0.534019  0  2.281239  0
O  O140  1  0.42043784  0.80449397  0.85529184  1  -1.195742  0  -0.379932  -0.652196  0  2.272815  0
O  O141  1  0.56358815  0.94741238  0.90714170  1  -1.172498  0  -0.304754  -0.534123  0  2.281325  0
O  O142  1  0.19550812  0.57956576  0.64470983  1  -1.195631  0  -0.379848  -0.651968  0  2.273133  0
O  O143  1  0.05258314  0.43641393  0.59285619  1  -1.172053  0  -0.304859  -0.534311  0  2.280776  0
O  O144  1  0.42043529  0.61593762  0.64470877  1  -1.187028  0  -0.379894  -0.652065  0  2.273163  0
O  O145  1  0.56358803  0.61617028  0.59285398  1  -1.173202  0  -0.304813  -0.534268  0  2.280919  0
O  O146  1  0.38405877  0.80449262  0.64471035  1  -1.189177  0  -0.379853  -0.652133  0  2.272845  0
O  O147  1  0.38381874  0.94740528  0.59284826  1  -1.173302  0  -0.304854  -0.534265  0  2.28082  0
O  O148  1  0.80449113  0.42043305  0.64470886  1  -1.195591  0  -0.379973  -0.652235  0  2.272578  0
O  O149  1  0.94740559  0.56358469  0.59285512  1  -1.17244  0  -0.304749  -0.534116  0  2.281272  0
O  O150  1  0.57956676  0.38406243  0.64470992  1  -1.186962  0  -0.379831  -0.652014  0  2.272812  0
O  O151  1  0.43641221  0.38382895  0.59285607  1  -1.173853  0  -0.304847  -0.53424  0  2.28098  0
O  O152  1  0.61593843  0.19550959  0.64470898  1  -1.189401  0  -0.380003  -0.652215  0  2.272465  0
O  O153  1  0.61616885  0.05258907  0.59286306  1  -1.1739  0  -0.3047  -0.533996  0  2.281776  0
O  O154  1  0.38405923  0.57956480  0.14470884  1  -1.18701  0  -0.379857  -0.652003  0  2.273036  0
O  O155  1  0.38383376  0.43641349  0.09285599  1  -1.173726  0  -0.3048  -0.534247  0  2.280788  0
O  O156  1  0.19550888  0.61593942  0.14471172  1  -1.189211  0  -0.379922  -0.652162  0  2.272528  0
O  O157  1  0.05259578  0.61617950  0.09285472  1  -1.173483  0  -0.304736  -0.534075  0  2.281248  0
O  O158  1  0.42043335  0.80449088  0.14470918  1  -1.195496  0  -0.379951  -0.652192  0  2.272632  0
O  O159  1  0.56358612  0.94740960  0.09285797  1  -1.172465  0  -0.304739  -0.534109  0  2.281315  0
O  O160  1  0.61593862  0.42043612  0.14471059  1  -1.186849  0  -0.379835  -0.652035  0  2.273136  0
O  O161  1  0.61617215  0.56359024  0.09285480  1  -1.173797  0  -0.304836  -0.534304  0  2.28082  0
O  O162  1  0.80449014  0.38406033  0.14470897  1  -1.189267  0  -0.379928  -0.652142  0  2.272659  0
O  O163  1  0.94741291  0.38383090  0.09286111  1  -1.173499  0  -0.304711  -0.53404  0  2.281463  0
O  O164  1  0.57956829  0.19550760  0.14471088  1  -1.195308  0  -0.379952  -0.652246  0  2.27247  0
O  O165  1  0.43641688  0.05259434  0.09285723  1  -1.172636  0  -0.304715  -0.534063  0  2.281359  0
O  O166  1  0.80449513  0.42043060  0.35528784  1  -1.195518  0  -0.379976  -0.652255  0  2.272503  0
O  O167  1  0.94740412  0.56358359  0.40714464  1  -1.172647  0  -0.304721  -0.534034  0  2.281373  0
O  O168  1  0.57956630  0.38406176  0.35528953  1  -1.186976  0  -0.379912  -0.652163  0  2.272891  0
O  O169  1  0.43641508  0.38383296  0.40714117  1  -1.173611  0  -0.304802  -0.534208  0  2.281121  0
O  O170  1  0.61594126  0.19550831  0.35529111  1  -1.189073  0  -0.379937  -0.652273  0  2.272515  0
O  O171  1  0.61617764  0.05259121  0.40714438  1  -1.173592  0  -0.304765  -0.534135  0  2.281279  0
O  O172  1  0.19550457  0.57956277  0.35529197  1  -1.196159  0  -0.379837  -0.651993  0  2.273122  0
O  O173  1  0.05257830  0.43640945  0.40714192  1  -1.172183  0  -0.304863  -0.534277  0  2.280743  0
O  O174  1  0.42043713  0.61594003  0.35529280  1  -1.187306  0  -0.379859  -0.652079  0  2.272982  0
O  O175  1  0.56359116  0.61618078  0.40715295  1  -1.173594  0  -0.304916  -0.534328  0  2.280872  0
O  O176  1  0.38406139  0.80449425  0.35529059  1  -1.189312  0  -0.379967  -0.652281  0  2.272623  0
O  O177  1  0.38382711  0.94741324  0.40713903  1  -1.173752  0  -0.30472  -0.534056  0  2.281412  0
O  O178  1  0.76462348  0.52924861  0.75000033  1  -1.091506  0  -0.271633  -0.258731  0  2.75507  0
O  O179  1  0.76462238  0.23537695  0.74999950  1  -1.089749  0  -0.271741  -0.258787  0  2.755058  0
O  O180  1  0.47075087  0.23537618  0.75000043  1  -1.09152  0  -0.271584  -0.258622  0  2.754961  0
O  O181  1  0.23537832  0.47075155  0.75000171  1  -1.091459  0  -0.27169  -0.258789  0  2.754934  0
O  O182  1  0.23537573  0.76462420  0.74999876  1  -1.090247  0  -0.271656  -0.258766  0  2.754937  0
O  O183  1  0.52924918  0.76462302  0.74999972  1  -1.092045  0  -0.27164  -0.258745  0  2.755049  0
O  O184  1  0.23537627  0.47075125  0.24999987  1  -1.091516  0  -0.271628  -0.258743  0  2.754952  0
O  O185  1  0.23537591  0.76462302  0.25000133  1  -1.089866  0  -0.271684  -0.258773  0  2.755009  0
O  O186  1  0.52924859  0.76462263  0.25000229  1  -1.091521  0  -0.271668  -0.258791  0  2.755074  0
O  O187  1  0.76462288  0.52924822  0.25000038  1  -1.091705  0  -0.271655  -0.258729  0  2.75504  0
O  O188  1  0.76462391  0.23537712  0.25000144  1  -1.090093  0  -0.271696  -0.258807  0  2.755002  0
O  O189  1  0.47075173  0.23537568  0.24999985  1  -1.092205  0  -0.271678  -0.258803  0  2.754977  0
O  O190  1  0.49893992  0.35334342  0.00000068  1  -1.246776  0  -0.579022  -0.740021  0  2.038513  0
O  O191  1  0.85440396  0.50105857  0.99999950  1  -1.25073  0  -0.578988  -0.739999  0  2.038521  0
O  O192  1  0.64665501  0.14559579  0.99999989  1  -1.247704  0  -0.578984  -0.740006  0  2.038539  0
O  O193  1  0.50105998  0.64665700  0.00000025  1  -1.24677  0  -0.579014  -0.740037  0  2.038499  0
O  O194  1  0.14559773  0.49893936  0.00000007  1  -1.250706  0  -0.579006  -0.740005  0  2.038528  0
O  O195  1  0.35334433  0.85440251  0.99999916  1  -1.247679  0  -0.578971  -0.739977  0  2.038573  0
O  O196  1  0.14559520  0.64665431  0.49999917  1  -1.247052  0  -0.57899  -0.740003  0  2.038498  0
O  O197  1  0.35334195  0.49893924  0.49999836  1  -1.245302  0  -0.578979  -0.739999  0  2.038594  0
O  O198  1  0.50106022  0.85440082  0.50000053  1  -1.250601  0  -0.578999  -0.740008  0  2.038548  0
O  O199  1  0.85440408  0.35334198  0.50000040  1  -1.247138  0  -0.578989  -0.740004  0  2.038556  0
O  O200  1  0.64665644  0.50105928  0.50000121  1  -1.245314  0  -0.578983  -0.739996  0  2.038531  0
O  O201  1  0.49894098  0.14559894  0.49999841  1  -1.25062  0  -0.579022  -0.740046  0  2.038495  0
