# generated using pymatgen
data_AlH7C15Cl2O5
_symmetry_space_group_name_H-M   'P 1'
_cell_length_a   6.65831844
_cell_length_b   21.38946463
_cell_length_c   24.62029655
_cell_angle_alpha   99.08035362
_cell_angle_beta   89.99986284
_cell_angle_gamma   90.00120937
_symmetry_Int_Tables_number   1
_chemical_formula_structural   AlH7C15Cl2O5
_chemical_formula_sum   'Al4 H28 C60 Cl8 O20'
_cell_volume   3462.42821357
_cell_formula_units_Z   4
loop_
 _symmetry_equiv_pos_site_id
 _symmetry_equiv_pos_as_xyz
  1  'x, y, z'
loop_
 _atom_site_type_symbol
 _atom_site_label
 _atom_site_symmetry_multiplicity
 _atom_site_fract_x
 _atom_site_fract_y
 _atom_site_fract_z
 _atom_site_occupancy
 _atom_site_pbe_bader_charge
 _atom_site_pbe_bader_spin_density
 _atom_site_pbe_cm5_charge
 _atom_site_pbe_ddec_charge
 _atom_site_pbe_ddec_spin_density
 _atom_site_pbe_ddec_sum_bond_order
 _atom_site_pbe_magmom
Al  Al0  1  0.78032233  0.75001028  0.24888683  1  2.500675  0  0.395131  1.653713  0  2.564702  0
Al  Al1  1  0.21860920  0.25005432  0.75221417  1  2.503278  0  0.393651  1.655909  0  2.562602  0
Al  Al2  1  0.28032372  0.74999654  0.25111701  1  2.500676  0  0.395156  1.653878  0  2.564553  0
Al  Al3  1  0.71860330  0.24995627  0.74779317  1  2.503248  0  0.393657  1.655719  0  2.562682  0
H  H4  1  0.80030206  0.91290322  0.50948343  1  0.071426  0  0.105009  0.117772  0  1.007663  0
H  H5  1  0.29262838  0.06236177  0.51069478  1  0.08292  0  0.102686  0.112765  0  1.021392  0
H  H6  1  0.30049183  0.58713522  0.99050874  1  0.072351  0  0.104989  0.117719  0  1.007923  0
H  H7  1  0.79261999  0.43763701  0.98931700  1  0.082611  0  0.102699  0.112741  0  1.021412  0
H  H8  1  0.23898950  0.93453448  0.35090995  1  0.079926  0  0.11166  0.115235  0  0.98196  0
H  H9  1  0.68653692  0.09107551  0.62829448  1  0.110524  0  0.10659  0.112738  0  1.008503  0
H  H10  1  0.73883684  0.56543405  0.14912713  1  0.078883  0  0.1116  0.115234  0  0.98175  0
H  H11  1  0.18656780  0.40894133  0.87171496  1  0.110786  0  0.10661  0.112743  0  1.008623  0
H  H12  1  0.21762590  0.02284110  0.42880568  1  0.061761  0  0.104673  0.10779  0  1.001786  0
H  H13  1  0.68998214  0.00632575  0.54707947  1  0.058804  0  0.103134  0.107242  0  1.002802  0
H  H14  1  0.71751293  0.47714213  0.07121293  1  0.062567  0  0.10465  0.10781  0  1.001711  0
H  H15  1  0.19003423  0.49369998  0.95292464  1  0.052671  0  0.103076  0.107177  0  1.002816  0
H  H16  1  0.30412384  0.97727920  0.08783084  1  0.066854  0  0.110276  0.127993  0  0.989519  0
H  H17  1  0.69079463  0.02201257  0.91127092  1  0.102772  0  0.109635  0.126122  0  0.991524  0
H  H18  1  0.80403720  0.52268137  0.41213833  1  0.067803  0  0.110222  0.127816  0  0.989622  0
H  H19  1  0.19080472  0.47797910  0.58872571  1  0.102812  0  0.109701  0.126178  0  0.991534  0
H  H20  1  0.74566133  0.83095104  0.11236499  1  0.137154  0  0.112031  0.11843  0  0.997557  0
H  H21  1  0.25096177  0.16800285  0.88781969  1  0.13204  0  0.112305  0.119687  0  0.994443  0
H  H22  1  0.24565039  0.66903166  0.38762813  1  0.137568  0  0.112052  0.118429  0  0.997479  0
H  H23  1  0.75098479  0.33200003  0.61218514  1  0.132078  0  0.11223  0.119721  0  0.99434  0
H  H24  1  0.72371192  0.89760334  0.03815074  1  0.066551  0  0.109594  0.116596  0  0.983341  0
H  H25  1  0.27284355  0.10016019  0.96113220  1  0.082045  0  0.109668  0.116324  0  0.984264  0
H  H26  1  0.22365477  0.60237613  0.46183293  1  0.066421  0  0.10965  0.116573  0  0.983083  0
H  H27  1  0.77284979  0.39983639  0.53886272  1  0.081998  0  0.10965  0.116386  0  0.984124  0
H  H28  1  0.52723557  0.82895336  0.23990998  1  0.618439  0  0.340195  0.418437  0  0.883689  0
H  H29  1  0.47255649  0.16995948  0.75787231  1  0.641031  0  0.339807  0.419464  0  0.880806  0
H  H30  1  0.02723312  0.67104485  0.26007061  1  0.618818  0  0.340266  0.418429  0  0.883694  0
H  H31  1  0.97256653  0.33004580  0.74212741  1  0.640939  0  0.339787  0.419412  0  0.880961  0
C  C32  1  0.53292124  0.67782224  0.31653008  1  1.586377  0  0.268404  0.654792  0  4.092759  0
C  C33  1  0.46483129  0.32178902  0.68294990  1  1.569106  0  0.267015  0.65161  0  4.098918  0
C  C34  1  0.03292871  0.82217834  0.18347148  1  1.587352  0  0.268422  0.654735  0  4.093227  0
C  C35  1  0.96482686  0.17821434  0.81704982  1  1.569502  0  0.267071  0.651765  0  4.098889  0
C  C36  1  0.52799296  0.67130367  0.16762126  1  1.615724  0  0.264518  0.649248  0  4.110487  0
C  C37  1  0.47250505  0.32944043  0.83196105  1  1.597597  0  0.26336  0.649717  0  4.10234  0
C  C38  1  0.02798662  0.82870057  0.33238524  1  1.61593  0  0.26452  0.649168  0  4.110192  0
C  C39  1  0.97249332  0.17057341  0.66804733  1  1.598661  0  0.263343  0.649689  0  4.102443  0
C  C40  1  0.89192294  0.91966326  0.47423944  1  0.019545  0  -0.094575  -0.204584  0  3.960654  0
C  C41  1  0.15711243  0.06778913  0.53575990  1  0.072176  0  -0.098787  -0.21364  0  3.972307  0
C  C42  1  0.39206779  0.58036060  0.02575366  1  0.01924  0  -0.094421  -0.20435  0  3.961288  0
C  C43  1  0.65711556  0.43221770  0.96424954  1  0.071877  0  -0.098805  -0.213524  0  3.971989  0
C  C44  1  0.89840179  0.87140683  0.42901678  1  0.083872  0  0.021727  0.141667  0  4.030406  0
C  C45  1  0.15248089  0.11606840  0.58099001  1  0.019561  0  0.023855  0.145031  0  4.02613  0
C  C46  1  0.39852764  0.62861040  0.07098082  1  0.085319  0  0.021621  0.141486  0  4.030931  0
C  C47  1  0.65246398  0.38392757  0.91901899  1  0.019873  0  0.023876  0.145204  0  4.025868  0
C  C48  1  0.02244945  0.87649616  0.38375327  1  0.009052  0  -0.012282  -0.089761  0  3.939117  0
C  C49  1  0.98374368  0.12397127  0.61604173  1  -0.031004  0  -0.019937  -0.107357  0  3.936038  0
C  C50  1  0.52249732  0.62350938  0.11625283  1  0.009084  0  -0.012222  -0.090131  0  3.939575  0
C  C51  1  0.48374384  0.37604082  0.88396170  1  -0.030937  0  -0.019905  -0.107488  0  3.936283  0
C  C52  1  0.14067936  0.93101153  0.38572418  1  -0.009444  0  -0.078549  -0.075644  0  3.989319  0
C  C53  1  0.81904303  0.08354475  0.60211567  1  0.009135  0  -0.081529  -0.073997  0  3.999923  0
C  C54  1  0.64067995  0.56898057  0.11428879  1  -0.009385  0  -0.078408  -0.075161  0  3.989216  0
C  C55  1  0.31907155  0.41647252  0.89788873  1  0.009256  0  -0.081369  -0.07389  0  3.999934  0
C  C56  1  0.13021604  0.98003251  0.42994681  1  -0.019614  0  -0.091864  -0.138801  0  3.985619  0
C  C57  1  0.82262027  0.03586016  0.55677809  1  -0.035889  0  -0.094581  -0.143437  0  3.982103  0
C  C58  1  0.63011394  0.51995045  0.07008341  1  -0.020399  0  -0.092216  -0.139635  0  3.986116  0
C  C59  1  0.32263725  0.46415068  0.94323205  1  -0.029518  0  -0.094628  -0.14342  0  3.982106  0
C  C60  1  0.00509582  0.97523756  0.47516747  1  -0.064712  0  -0.004149  0.086743  0  3.998542  0
C  C61  1  0.99402200  0.02653794  0.52299489  1  -0.032042  0  -0.001876  0.096163  0  3.99357  0
C  C62  1  0.50509143  0.52476574  0.02484769  1  -0.065176  0  -0.003915  0.08738  0  3.998231  0
C  C63  1  0.49404280  0.47347301  0.97701223  1  -0.031984  0  -0.001923  0.095904  0  3.993612  0
C  C64  1  0.18188167  0.94472461  0.09245201  1  0.024797  0  -0.090663  -0.206174  0  3.92074  0
C  C65  1  0.81344832  0.05451482  0.90690659  1  0.014418  0  -0.08963  -0.203287  0  3.920529  0
C  C66  1  0.68181074  0.55524420  0.40752057  1  0.023861  0  -0.090719  -0.205711  0  3.920321  0
C  C67  1  0.31345922  0.44548239  0.59309037  1  0.014883  0  -0.089783  -0.203384  0  3.92054  0
C  C68  1  0.19296736  0.90676014  0.13343956  1  0.062305  0  0.027385  0.149059  0  4.013731  0
C  C69  1  0.80257591  0.09312300  0.86636673  1  0.046304  0  0.027479  0.149495  0  4.011421  0
C  C70  1  0.69293036  0.59322461  0.36654333  1  0.062474  0  0.027414  0.148665  0  4.01398  0
C  C71  1  0.30258139  0.40688427  0.63363725  1  0.04604  0  0.027507  0.149616  0  4.010988  0
C  C72  1  0.03526548  0.86486695  0.14095768  1  0.025075  0  -0.015796  -0.105892  0  3.928404  0
C  C73  1  0.96077793  0.13497267  0.85919427  1  0.058609  0  -0.015637  -0.106604  0  3.928622  0
C  C74  1  0.53524180  0.63512323  0.35903522  1  0.025689  0  -0.015809  -0.105995  0  3.928582  0
C  C75  1  0.46079711  0.36503283  0.64080711  1  0.058884  0  -0.015606  -0.106706  0  3.92832  0
C  C76  1  0.86759559  0.86295312  0.10591534  1  -0.070436  0  -0.078394  -0.074671  0  3.99304  0
C  C77  1  0.12856793  0.13612944  0.89410479  1  -0.046446  0  -0.076717  -0.071116  0  3.996936  0
C  C78  1  0.36756749  0.63702596  0.39407397  1  -0.071629  0  -0.078499  -0.074842  0  3.993278  0
C  C79  1  0.62859009  0.36387768  0.60589686  1  -0.046215  0  -0.076615  -0.071225  0  3.996374  0
C  C80  1  0.85513415  0.90008237  0.06475097  1  0.021212  0  -0.081869  -0.132095  0  3.945878  0
C  C81  1  0.14099932  0.09828995  0.93472633  1  0.007488  0  -0.085236  -0.136803  0  3.951449  0
C  C82  1  0.35508270  0.59990018  0.43523466  1  0.022041  0  -0.081804  -0.131695  0  3.945393  0
C  C83  1  0.64100132  0.40171320  0.56526831  1  0.007344  0  -0.085191  -0.136737  0  3.950931  0
C  C84  1  0.01324281  0.94198456  0.05757411  1  0.093718  0  0.006673  0.165681  0  4.11379  0
C  C85  1  0.98233196  0.05648962  0.94160413  1  0.079341  0  0.004672  0.162443  0  4.115939  0
C  C86  1  0.51317375  0.55799161  0.44240397  1  0.093272  0  0.006567  0.165458  0  4.114232  0
C  C87  1  0.48232903  0.44350599  0.55838816  1  0.079014  0  0.004644  0.162309  0  4.116216  0
C  C88  1  0.00270536  0.98160617  0.01676873  1  -0.255907  0  -0.041048  -0.102446  0  4.100384  0
C  C89  1  0.99265162  0.01641768  0.98205522  1  -0.078151  0  -0.036781  -0.095265  0  4.097769  0
C  C90  1  0.50264432  0.51836331  0.48320112  1  -0.100398  0  -0.040838  -0.102632  0  4.10059  0
C  C91  1  0.49264821  0.48356675  0.51793169  1  -0.233095  0  -0.036803  -0.094941  0  4.097841  0
Cl  Cl92  1  0.75834311  0.80373638  0.43187056  1  -0.200061  0  -0.011825  -0.077036  0  1.462418  0
Cl  Cl93  1  0.35891010  0.16583533  0.58974429  1  -0.192224  0  0.013711  -0.049321  0  1.551968  0
Cl  Cl94  1  0.25857869  0.69629868  0.06811158  1  -0.200894  0  -0.011852  -0.077018  0  1.462251  0
Cl  Cl95  1  0.85888375  0.33416700  0.91026661  1  -0.191936  0  0.013703  -0.049376  0  1.551958  0
Cl  Cl96  1  0.40415329  0.91735984  0.17520106  1  -0.195485  0  0.011962  -0.064558  0  1.525257  0
Cl  Cl97  1  0.59059703  0.08346395  0.82493279  1  -0.200532  0  0.014252  -0.061325  0  1.52731  0
Cl  Cl98  1  0.90407779  0.58262037  0.32477753  1  -0.195503  0  0.01202  -0.064371  0  1.525519  0
Cl  Cl99  1  0.09060488  0.41653694  0.67507463  1  -0.200538  0  0.014243  -0.061344  0  1.52722  0
O  O100  1  0.35950211  0.68852524  0.18900046  1  -1.254206  0  -0.235396  -0.59005  0  2.367978  0
O  O101  1  0.63725624  0.31325706  0.80788204  1  -1.259232  0  -0.238214  -0.597357  0  2.409287  0
O  O102  1  0.85950223  0.81148509  0.31099921  1  -1.254605  0  -0.235334  -0.590088  0  2.368012  0
O  O103  1  0.13725752  0.18674710  0.69213152  1  -1.259521  0  -0.238287  -0.597631  0  2.409325  0
O  O104  1  0.70005556  0.69470203  0.29892333  1  -1.251251  0  -0.232563  -0.599845  0  2.427537  0
O  O105  1  0.29879036  0.30529980  0.70159534  1  -1.25837  0  -0.23376  -0.598919  0  2.415463  0
O  O106  1  0.20004995  0.80530274  0.20108509  1  -1.251182  0  -0.23257  -0.599896  0  2.428032  0
O  O107  1  0.79878846  0.19470513  0.79840616  1  -1.258571  0  -0.233808  -0.59898  0  2.415432  0
O  O108  1  0.70075792  0.68799605  0.18672787  1  -1.254348  0  -0.235346  -0.585037  0  2.319388  0
O  O109  1  0.29791677  0.31156743  0.81466173  1  -1.25313  0  -0.238198  -0.589691  0  2.333128  0
O  O110  1  0.20075635  0.81200525  0.31328466  1  -1.25403  0  -0.235428  -0.585131  0  2.31947  0
O  O111  1  0.79790635  0.18844384  0.68534390  1  -1.253536  0  -0.238038  -0.589412  0  2.333512  0
O  O112  1  0.86060562  0.80532468  0.19851280  1  -1.25079  0  -0.233473  -0.588291  0  2.335199  0
O  O113  1  0.13802257  0.19583641  0.80342762  1  -1.251055  0  -0.233736  -0.588706  0  2.346445  0
O  O114  1  0.36061250  0.69467220  0.30147697  1  -1.250819  0  -0.23347  -0.588329  0  2.335228  0
O  O115  1  0.63803362  0.30417500  0.69657938  1  -1.250838  0  -0.233741  -0.588592  0  2.346408  0
O  O116  1  0.53027403  0.78846466  0.25294121  1  -1.422816  0  -0.449499  -0.98647  0  2.204348  0
O  O117  1  0.46887677  0.21162403  0.74707116  1  -1.446261  0  -0.449239  -0.989477  0  2.213738  0
O  O118  1  0.03027428  0.71154609  0.24706243  1  -1.423139  0  -0.44959  -0.986493  0  2.204385  0
O  O119  1  0.96888253  0.28838261  0.75293104  1  -1.446176  0  -0.449256  -0.989423  0  2.213923  0
