# generated using pymatgen
data_NaH7(CO)8
_symmetry_space_group_name_H-M   'P 1'
_cell_length_a   5.35037559
_cell_length_b   12.45993255
_cell_length_c   13.64368118
_cell_angle_alpha   89.99953611
_cell_angle_beta   89.99938514
_cell_angle_gamma   91.32423246
_symmetry_Int_Tables_number   1
_chemical_formula_structural   NaH7(CO)8
_chemical_formula_sum   'Na4 H28 C32 O32'
_cell_volume   909.31743555
_cell_formula_units_Z   4
loop_
 _symmetry_equiv_pos_site_id
 _symmetry_equiv_pos_as_xyz
  1  'x, y, z'
loop_
 _atom_site_type_symbol
 _atom_site_label
 _atom_site_symmetry_multiplicity
 _atom_site_fract_x
 _atom_site_fract_y
 _atom_site_fract_z
 _atom_site_occupancy
 _atom_site_hle17_bader_spin_density
 _atom_site_hle17_ddec_charge
 _atom_site_hle17_ddec_spin_density
 _atom_site_hle17_ddec_sum_bond_order
 _atom_site_hle17_magmom
 _atom_site_hse06_10hf_bader_spin_density
 _atom_site_hse06_10hf_ddec_charge
 _atom_site_hse06_10hf_ddec_spin_density
 _atom_site_hse06_10hf_ddec_sum_bond_order
 _atom_site_hse06_10hf_magmom
 _atom_site_hse06_bader_spin_density
 _atom_site_hse06_ddec_charge
 _atom_site_hse06_ddec_spin_density
 _atom_site_hse06_ddec_sum_bond_order
 _atom_site_hse06_magmom
 _atom_site_pbe_bader_spin_density
 _atom_site_pbe_cm5_charge
 _atom_site_pbe_ddec_charge
 _atom_site_pbe_ddec_spin_density
 _atom_site_pbe_ddec_sum_bond_order
 _atom_site_pbe_magmom
Na  Na0  1  0.73487660  0.05371087  0.27412157  1  0  0.902488  0  0.365869  0  0  0.85125  0  0.52491  0  0  0.863379  0  0.50185  0  0  0.676747  0.842225  0  0.541443  0
Na  Na1  1  0.76511443  0.44628238  0.77410973  1  0  0.902477  0  0.365864  0  0  0.851277  0  0.524834  0  0  0.863417  0  0.501759  0  0  0.676739  0.842208  0  0.541439  0
Na  Na2  1  0.26513292  0.94628873  0.72589018  1  0  0.902519  0  0.365808  0  0  0.851313  0  0.524791  0  0  0.863453  0  0.501716  0  0  0.676737  0.842243  0  0.541402  0
Na  Na3  1  0.23488350  0.55370999  0.22588883  1  0  0.902482  0  0.365866  0  0  0.85127  0  0.524862  0  0  0.863411  0  0.501786  0  0  0.676729  0.842204  0  0.541464  0
H  H4  1  0.21246348  0.96409505  0.33053651  1  0  0.411264  0  0.868147  0  0  0.379773  0  0.94736  0  0  0.392948  0  0.932695  0  0  0.311223  0.370502  0  0.957589  0
H  H5  1  0.28753504  0.53590513  0.83052327  1  0  0.411195  0  0.868283  0  0  0.379687  0  0.947497  0  0  0.39286  0  0.932841  0  0  0.311195  0.370414  0  0.95772  0
H  H6  1  0.78754990  0.03590696  0.66946499  1  0  0.411312  0  0.868113  0  0  0.379749  0  0.947426  0  0  0.392925  0  0.932764  0  0  0.311164  0.370475  0  0.957655  0
H  H7  1  0.71247241  0.46409046  0.16946064  1  0  0.411242  0  0.86817  0  0  0.379773  0  0.947329  0  0  0.392944  0  0.932682  0  0  0.311217  0.370503  0  0.957557  0
H  H8  1  0.67456434  0.23279896  0.67471085  1  0  0.39156  0  0.912473  0  0  0.357883  0  0.994864  0  0  0.371792  0  0.979207  0  0  0.300119  0.348171  0  1.004729  0
H  H9  1  0.82543157  0.26719679  0.17471120  1  0  0.391665  0  0.912454  0  0  0.358027  0  0.994744  0  0  0.371935  0  0.979023  0  0  0.300135  0.348316  0  1.004612  0
H  H10  1  0.32542633  0.76719742  0.32528331  1  0  0.391589  0  0.912518  0  0  0.35808  0  0.994559  0  0  0.371999  0  0.978901  0  0  0.300125  0.348365  0  1.00443  0
H  H11  1  0.17456853  0.73280120  0.82529029  1  0  0.391688  0  0.912422  0  0  0.358069  0  0.994689  0  0  0.371981  0  0.97896  0  0  0.300188  0.348355  0  1.004558  0
H  H12  1  0.81495269  0.54036865  0.35963096  1  0  0.412332  0  0.878327  0  0  0.380125  0  0.958406  0  0  0.392651  0  0.943343  0  0  0.310082  0.371303  0  0.967847  0
H  H13  1  0.68506312  0.95963603  0.85963107  1  0  0.412381  0  0.878085  0  0  0.38011  0  0.958267  0  0  0.392635  0  0.943322  0  0  0.310078  0.37129  0  0.967706  0
H  H14  1  0.18503806  0.45962934  0.64036467  1  0  0.412217  0  0.878375  0  0  0.380054  0  0.958383  0  0  0.392583  0  0.943413  0  0  0.310048  0.371229  0  0.967824  0
H  H15  1  0.31497523  0.04037883  0.14037483  1  0  0.412337  0  0.878089  0  0  0.380158  0  0.958139  0  0  0.39269  0  0.943237  0  0  0.31006  0.371333  0  0.967582  0
H  H16  1  0.13003412  0.26251366  0.30296684  1  0  0.096086  0  0.940833  0  0  0.102472  0  1.006629  0  0  0.105189  0  1.005871  0  0  0.116359  0.100508  0  1.007279  0
H  H17  1  0.36996084  0.23748422  0.80296715  1  0  0.095975  0  0.941006  0  0  0.102385  0  1.006802  0  0  0.105099  0  1.006051  0  0  0.116313  0.100422  0  1.007448  0
H  H18  1  0.86996402  0.73748273  0.69703026  1  0  0.096167  0  0.940855  0  0  0.102538  0  1.006662  0  0  0.105254  0  1.005909  0  0  0.116356  0.100574  0  1.00731  0
H  H19  1  0.63002654  0.76252099  0.19703361  1  0  0.095977  0  0.940881  0  0  0.102401  0  1.006673  0  0  0.105116  0  1.005918  0  0  0.11632  0.100438  0  1.007319  0
H  H20  1  0.55004026  0.18223106  0.43368103  1  0  0.118949  0  0.929737  0  0  0.121036  0  0.998177  0  0  0.124971  0  0.995268  0  0  0.117921  0.118173  0  1.000418  0
H  H21  1  0.94993296  0.31775994  0.93367529  1  0  0.118993  0  0.929737  0  0  0.121059  0  0.998205  0  0  0.124999  0  0.995285  0  0  0.117851  0.118193  0  1.00044  0
H  H22  1  0.44994114  0.81776692  0.56632266  1  0  0.118956  0  0.929698  0  0  0.121005  0  0.998194  0  0  0.124944  0  0.995275  0  0  0.117861  0.118139  0  1.00043  0
H  H23  1  0.05005227  0.68223965  0.06632547  1  0  0.118951  0  0.929748  0  0  0.121014  0  0.99817  0  0  0.124953  0  0.995248  0  0  0.117869  0.118155  0  1.000413  0
H  H24  1  0.05751427  0.24853247  0.52760656  1  0  0.124636  0  0.910045  0  0  0.12997  0  0.971288  0  0  0.13406  0  0.968743  0  0  0.121485  0.126996  0  0.973249  0
H  H25  1  0.44247807  0.25147752  0.02760363  1  0  0.124666  0  0.90993  0  0  0.130021  0  0.971148  0  0  0.13411  0  0.968602  0  0  0.121522  0.127047  0  0.973116  0
H  H26  1  0.94246547  0.75146953  0.47239347  1  0  0.124617  0  0.910047  0  0  0.129971  0  0.971263  0  0  0.134058  0  0.968722  0  0  0.121493  0.127003  0  0.973215  0
H  H27  1  0.55752664  0.74853733  0.97240080  1  0  0.124665  0  0.910108  0  0  0.130031  0  0.971317  0  0  0.134127  0  0.968761  0  0  0.12153  0.127064  0  0.97326  0
H  H28  1  0.37642265  0.42863955  0.43694570  1  0  0.119174  0  0.937415  0  0  0.119463  0  1.009477  0  0  0.123577  0  1.006629  0  0  0.11564  0.116495  0  1.011699  0
H  H29  1  0.12358507  0.07135471  0.93695556  1  0  0.11923  0  0.937528  0  0  0.119457  0  1.00966  0  0  0.123574  0  1.006805  0  0  0.115657  0.116491  0  1.011882  0
H  H30  1  0.62355319  0.57135923  0.56304993  1  0  0.11924  0  0.937488  0  0  0.119516  0  1.009556  0  0  0.123629  0  1.00671  0  0  0.11562  0.116549  0  1.01177  0
H  H31  1  0.87645615  0.92864329  0.06305033  1  0  0.119229  0  0.93756  0  0  0.11949  0  1.009645  0  0  0.123611  0  1.006783  0  0  0.115599  0.116523  0  1.011864  0
C  C32  1  0.29716694  0.28450719  0.34611168  1  0  -0.135024  0  3.525255  0  0  -0.141789  0  3.760806  0  0  -0.146908  0  3.77164  0  0  -0.067839  -0.138239  0  3.75339  0
C  C33  1  0.20283801  0.21549110  0.84611721  1  0  -0.134965  0  3.524762  0  0  -0.141759  0  3.760349  0  0  -0.146875  0  3.771191  0  0  -0.067868  -0.138207  0  3.752921  0
C  C34  1  0.70282742  0.71548839  0.65388689  1  0  -0.135391  0  3.525184  0  0  -0.142107  0  3.760772  0  0  -0.147226  0  3.771607  0  0  -0.067966  -0.138557  0  3.753351  0
C  C35  1  0.79716038  0.78451010  0.15388722  1  0  -0.134862  0  3.524832  0  0  -0.141685  0  3.760378  0  0  -0.146802  0  3.771217  0  0  -0.067898  -0.138132  0  3.752954  0
C  C36  1  0.35050276  0.19735247  0.42535004  1  0  -0.151828  0  3.55982  0  0  -0.163051  0  3.789255  0  0  -0.167626  0  3.798913  0  0  -0.07976  -0.159868  0  3.782666  0
C  C37  1  0.14947170  0.30264270  0.92534561  1  0  -0.151939  0  3.559819  0  0  -0.163102  0  3.78921  0  0  -0.167678  0  3.79887  0  0  -0.079741  -0.159914  0  3.782624  0
C  C38  1  0.64947470  0.80264150  0.57464999  1  0  -0.151681  0  3.559758  0  0  -0.162877  0  3.789153  0  0  -0.167452  0  3.798814  0  0  -0.079686  -0.159689  0  3.78256  0
C  C39  1  0.85052491  0.69736011  0.07465882  1  0  -0.151908  0  3.559964  0  0  -0.162961  0  3.789259  0  0  -0.167532  0  3.798918  0  0  -0.079734  -0.159799  0  3.782713  0
C  C40  1  0.24698900  0.27376034  0.50392553  1  0  -0.13968  0  3.561175  0  0  -0.149919  0  3.792433  0  0  -0.155665  0  3.803547  0  0  -0.073452  -0.145956  0  3.784766  0
C  C41  1  0.25300876  0.22623300  0.00392207  1  0  -0.139668  0  3.560962  0  0  -0.149879  0  3.79214  0  0  -0.155624  0  3.803247  0  0  -0.073508  -0.145917  0  3.784482  0
C  C42  1  0.75299418  0.72623604  0.49607450  1  0  -0.139632  0  3.561189  0  0  -0.149844  0  3.79243  0  0  -0.155587  0  3.803536  0  0  -0.073509  -0.145878  0  3.784773  0
C  C43  1  0.74700620  0.77376339  0.99607649  1  0  -0.139814  0  3.561351  0  0  -0.150086  0  3.792627  0  0  -0.155831  0  3.80373  0  0  -0.073567  -0.146107  0  3.784967  0
C  C44  1  0.23060612  0.36612038  0.42848150  1  0  -0.150246  0  3.55377  0  0  -0.162013  0  3.789721  0  0  -0.16677  0  3.800047  0  0  -0.079657  -0.158809  0  3.782906  0
C  C45  1  0.26939640  0.13387717  0.92848592  1  0  -0.150364  0  3.554219  0  0  -0.1621  0  3.790231  0  0  -0.16685  0  3.800548  0  0  -0.079696  -0.158893  0  3.783405  0
C  C46  1  0.76937706  0.63387600  0.57151707  1  0  -0.150397  0  3.554044  0  0  -0.16218  0  3.79  0  0  -0.16693  0  3.800324  0  0  -0.079714  -0.158976  0  3.783182  0
C  C47  1  0.73063750  0.86612404  0.07151704  1  0  -0.150379  0  3.554267  0  0  -0.162174  0  3.790232  0  0  -0.166918  0  3.800542  0  0  -0.079662  -0.158968  0  3.78341  0
C  C48  1  0.50187243  0.31337815  0.27359041  1  0  0.720249  0  3.81464  0  0  0.665879  0  4.124203  0  0  0.698931  0  4.116743  0  0  0.227942  0.643412  0  4.128616  0
C  C49  1  0.99808111  0.18661269  0.77357593  1  0  0.720024  0  3.815638  0  0  0.665551  0  4.125339  0  0  0.698592  0  4.117897  0  0  0.227857  0.643089  0  4.129736  0
C  C50  1  0.49810312  0.68661502  0.72641695  1  0  0.720199  0  3.814999  0  0  0.665679  0  4.124766  0  0  0.698724  0  4.117317  0  0  0.227928  0.643212  0  4.129172  0
C  C51  1  0.00190976  0.81338771  0.22642336  1  0  0.720011  0  3.815696  0  0  0.665554  0  4.125397  0  0  0.698594  0  4.117955  0  0  0.227845  0.643091  0  4.129795  0
C  C52  1  0.20075493  0.09696771  0.40359046  1  0  0.705025  0  3.739893  0  0  0.659096  0  4.038424  0  0  0.692018  0  4.02844  0  0  0.241629  0.636568  0  4.044862  0
C  C53  1  0.29920564  0.40303567  0.90358321  1  0  0.705081  0  3.739661  0  0  0.659071  0  4.038295  0  0  0.691994  0  4.028313  0  0  0.241667  0.636543  0  4.044729  0
C  C54  1  0.79922847  0.90303269  0.59640957  1  0  0.705002  0  3.73973  0  0  0.659066  0  4.038254  0  0  0.691988  0  4.028274  0  0  0.241635  0.636537  0  4.04469  0
C  C55  1  0.70077992  0.59697034  0.09641975  1  0  0.705032  0  3.739603  0  0  0.658951  0  4.03833  0  0  0.691873  0  4.02835  0  0  0.241592  0.636427  0  4.044757  0
C  C56  1  0.40703379  0.29277881  0.59323535  1  0  0.718211  0  3.724221  0  0  0.662469  0  4.035628  0  0  0.696578  0  4.025665  0  0  0.251427  0.639293  0  4.041826  0
C  C57  1  0.09295978  0.20721935  0.09323047  1  0  0.718326  0  3.723853  0  0  0.662551  0  4.035352  0  0  0.696657  0  4.025389  0  0  0.251463  0.639377  0  4.041552  0
C  C58  1  0.59296439  0.70721838  0.40676615  1  0  0.718431  0  3.723825  0  0  0.662582  0  4.035407  0  0  0.696693  0  4.02544  0  0  0.25148  0.639395  0  4.04162  0
C  C59  1  0.90704227  0.79278025  0.90676369  1  0  0.718698  0  3.723762  0  0  0.662861  0  4.035312  0  0  0.696975  0  4.025336  0  0  0.251586  0.639671  0  4.041527  0
C  C60  1  0.97855696  0.41639104  0.41936718  1  0  0.688938  0  3.751988  0  0  0.636062  0  4.062489  0  0  0.668098  0  4.054208  0  0  0.234303  0.61415  0  4.067754  0
C  C61  1  0.52145817  0.08360733  0.91936490  1  0  0.688902  0  3.752133  0  0  0.635886  0  4.062836  0  0  0.667927  0  4.054546  0  0  0.234252  0.613977  0  4.068096  0
C  C62  1  0.02143362  0.58360373  0.58063358  1  0  0.68896  0  3.752131  0  0  0.636037  0  4.062673  0  0  0.668058  0  4.054428  0  0  0.234424  0.614124  0  4.06794  0
C  C63  1  0.47859327  0.91640753  0.08063220  1  0  0.688689  0  3.752305  0  0  0.635846  0  4.062729  0  0  0.667884  0  4.054471  0  0  0.234386  0.613936  0  4.067989  0
O  O64  1  0.65859799  0.24061736  0.25294638  1  0  -0.667494  0  2.002938  0  0  -0.616472  0  2.247142  0  0  -0.641676  0  2.235663  0  0  -0.36639  -0.598902  0  2.254261  0
O  O65  1  0.84143054  0.25936646  0.75294737  1  0  -0.667165  0  2.003864  0  0  -0.616073  0  2.248134  0  0  -0.641263  0  2.236658  0  0  -0.366214  -0.598499  0  2.255241  0
O  O66  1  0.34140538  0.75937180  0.74705218  1  0  -0.66736  0  2.003309  0  0  -0.616294  0  2.247563  0  0  -0.641497  0  2.236081  0  0  -0.366341  -0.59872  0  2.254681  0
O  O67  1  0.15856199  0.74062992  0.24705339  1  0  -0.667166  0  2.003817  0  0  -0.616204  0  2.248018  0  0  -0.641402  0  2.236549  0  0  -0.366183  -0.598628  0  2.255131  0
O  O68  1  0.50027296  0.40562939  0.23489670  1  0  -0.673539  0  1.980504  0  0  -0.621883  0  2.218943  0  0  -0.645882  0  2.207096  0  0  -0.36689  -0.605134  0  2.226623  0
O  O69  1  0.99973837  0.09437305  0.73490489  1  0  -0.673511  0  1.981353  0  0  -0.621769  0  2.219855  0  0  -0.64577  0  2.208007  0  0  -0.366838  -0.605022  0  2.227531  0
O  O70  1  0.49974416  0.59437262  0.76510553  1  0  -0.673374  0  1.98092  0  0  -0.621641  0  2.219428  0  0  -0.645639  0  2.207584  0  0  -0.366776  -0.604894  0  2.227106  0
O  O71  1  0.00026729  0.90562414  0.26509660  1  0  -0.673398  0  1.981314  0  0  -0.621689  0  2.219809  0  0  -0.645686  0  2.207962  0  0  -0.366812  -0.604951  0  2.227486  0
O  O72  1  0.33328056  0.02115866  0.35923002  1  0  -0.588747  0  2.081236  0  0  -0.540108  0  2.30746  0  0  -0.561376  0  2.289262  0  0  -0.365028  -0.525255  0  2.319621  0
O  O73  1  0.16670867  0.47883228  0.85921686  1  0  -0.588644  0  2.081719  0  0  -0.539941  0  2.307999  0  0  -0.561212  0  2.289817  0  0  -0.364964  -0.525075  0  2.320151  0
O  O74  1  0.66671766  0.97883933  0.64077074  1  0  -0.588808  0  2.081342  0  0  -0.540099  0  2.307628  0  0  -0.561373  0  2.289436  0  0  -0.364968  -0.525235  0  2.319783  0
O  O75  1  0.83329296  0.52115929  0.14076778  1  0  -0.588638  0  2.081324  0  0  -0.539957  0  2.307566  0  0  -0.561225  0  2.289381  0  0  -0.364916  -0.525094  0  2.319714  0
O  O76  1  0.97261986  0.08968194  0.41580707  1  0  -0.59547  0  1.91128  0  0  -0.558638  0  2.134693  0  0  -0.57829  0  2.123954  0  0  -0.347034  -0.545176  0  2.141908  0
O  O77  1  0.52735438  0.41031886  0.91579937  1  0  -0.595591  0  1.910635  0  0  -0.558782  0  2.134138  0  0  -0.578439  0  2.123399  0  0  -0.34711  -0.545309  0  2.141353  0
O  O78  1  0.02737238  0.91030882  0.58420176  1  0  -0.595525  0  1.911062  0  0  -0.558724  0  2.134501  0  0  -0.578383  0  2.12377  0  0  -0.347061  -0.54525  0  2.141713  0
O  O79  1  0.47263105  0.58968475  0.08419992  1  0  -0.59556  0  1.910879  0  0  -0.558707  0  2.134378  0  0  -0.578368  0  2.123648  0  0  -0.347101  -0.545233  0  2.141585  0
O  O80  1  0.39647510  0.37582549  0.64491979  1  0  -0.612661  0  1.968289  0  0  -0.565468  0  2.202168  0  0  -0.587849  0  2.190898  0  0  -0.300438  -0.55006  0  2.209377  0
O  O81  1  0.10354166  0.12418024  0.14492796  1  0  -0.612755  0  1.968204  0  0  -0.565507  0  2.202021  0  0  -0.587884  0  2.190759  0  0  -0.300466  -0.550104  0  2.209234  0
O  O82  1  0.60350991  0.62417009  0.35508244  1  0  -0.61268  0  1.967982  0  0  -0.565503  0  2.201994  0  0  -0.587882  0  2.190702  0  0  -0.300471  -0.550093  0  2.209212  0
O  O83  1  0.89647372  0.87582418  0.85507427  1  0  -0.612961  0  1.968186  0  0  -0.565618  0  2.202055  0  0  -0.587996  0  2.190777  0  0  -0.300496  -0.550204  0  2.209275  0
O  O84  1  0.55439885  0.21389300  0.61403253  1  0  -0.534228  0  2.100265  0  0  -0.482548  0  2.325005  0  0  -0.505661  0  2.309558  0  0  -0.307829  -0.466578  0  2.334407  0
O  O85  1  0.94559153  0.28610651  0.11403299  1  0  -0.534445  0  2.100214  0  0  -0.482744  0  2.324867  0  0  -0.505854  0  2.309377  0  0  -0.307897  -0.466758  0  2.334243  0
O  O86  1  0.44559937  0.78610499  0.38596457  1  0  -0.534548  0  2.100304  0  0  -0.482821  0  2.32481  0  0  -0.505943  0  2.309374  0  0  -0.307901  -0.466845  0  2.334219  0
O  O87  1  0.05441459  0.71389951  0.88597217  1  0  -0.534505  0  2.100128  0  0  -0.48285  0  2.324886  0  0  -0.505968  0  2.309383  0  0  -0.307975  -0.466871  0  2.334294  0
O  O88  1  0.97795361  0.49809667  0.35543765  1  0  -0.621241  0  2.120312  0  0  -0.573577  0  2.364267  0  0  -0.595131  0  2.346336  0  0  -0.399007  -0.558449  0  2.375391  0
O  O89  1  0.52206415  0.00191673  0.85543744  1  0  -0.621165  0  2.120336  0  0  -0.573434  0  2.364429  0  0  -0.594978  0  2.34658  0  0  -0.398921  -0.558306  0  2.375548  0
O  O90  1  0.02203157  0.50190212  0.64455652  1  0  -0.621034  0  2.120469  0  0  -0.573412  0  2.364419  0  0  -0.594958  0  2.346575  0  0  -0.398934  -0.558286  0  2.37554  0
O  O91  1  0.47798380  0.99810294  0.14456332  1  0  -0.621159  0  2.120284  0  0  -0.573552  0  2.364201  0  0  -0.595095  0  2.346403  0  0  -0.399074  -0.558427  0  2.375322  0
O  O92  1  0.79235034  0.38660192  0.46530834  1  0  -0.538703  0  1.946785  0  0  -0.490034  0  2.167348  0  0  -0.511383  0  2.161499  0  0  -0.271497  -0.475388  0  2.171133  0
O  O93  1  0.70764662  0.11339604  0.96531463  1  0  -0.538721  0  1.94673  0  0  -0.489949  0  2.167294  0  0  -0.511333  0  2.161481  0  0  -0.271531  -0.475306  0  2.171081  0
O  O94  1  0.20762911  0.61339446  0.53468289  1  0  -0.538824  0  1.946943  0  0  -0.490086  0  2.167482  0  0  -0.511435  0  2.161636  0  0  -0.271583  -0.475439  0  2.171261  0
O  O95  1  0.29237180  0.88663086  0.03468100  1  0  -0.538639  0  1.946955  0  0  -0.489954  0  2.16749  0  0  -0.511352  0  2.161678  0  0  -0.271494  -0.475309  0  2.171276  0
