# generated using pymatgen
data_Zn3P2H20(C11O7)2
_symmetry_space_group_name_H-M   'P 1'
_cell_length_a   8.91217827
_cell_length_b   11.21067565
_cell_length_c   14.74557516
_cell_angle_alpha   112.32456535
_cell_angle_beta   105.18913851
_cell_angle_gamma   90.00366621
_symmetry_Int_Tables_number   1
_chemical_formula_structural   Zn3P2H20(C11O7)2
_chemical_formula_sum   'Zn6 P4 H40 C44 O28'
_cell_volume   1307.01038597
_cell_formula_units_Z   2
loop_
 _symmetry_equiv_pos_site_id
 _symmetry_equiv_pos_as_xyz
  1  'x, y, z'
loop_
 _atom_site_type_symbol
 _atom_site_label
 _atom_site_symmetry_multiplicity
 _atom_site_fract_x
 _atom_site_fract_y
 _atom_site_fract_z
 _atom_site_occupancy
 _atom_site_hle17_bader_spin_density
 _atom_site_hle17_ddec_charge
 _atom_site_hle17_ddec_spin_density
 _atom_site_hle17_ddec_sum_bond_order
 _atom_site_hle17_magmom
 _atom_site_hse06_10hf_bader_spin_density
 _atom_site_hse06_10hf_ddec_charge
 _atom_site_hse06_10hf_ddec_spin_density
 _atom_site_hse06_10hf_ddec_sum_bond_order
 _atom_site_hse06_10hf_magmom
 _atom_site_hse06_bader_spin_density
 _atom_site_hse06_ddec_charge
 _atom_site_hse06_ddec_spin_density
 _atom_site_hse06_ddec_sum_bond_order
 _atom_site_hse06_magmom
 _atom_site_pbe_bader_spin_density
 _atom_site_pbe_cm5_charge
 _atom_site_pbe_ddec_charge
 _atom_site_pbe_ddec_spin_density
 _atom_site_pbe_ddec_sum_bond_order
 _atom_site_pbe_magmom
Zn  Zn0  1  0.75001841  0.68035883  0.00000244  1  0  1.179181  0  1.780003  0  0  1.011386  0  2.251508  0  0  1.059925  0  2.186907  0  0  0.71302  0.977142  0  2.295912  0
Zn  Zn1  1  0.24998442  0.31964112  0.99999559  1  0  1.179146  0  1.780007  0  0  1.011393  0  2.251509  0  0  1.059931  0  2.186906  0  0  0.713004  0.977159  0  2.295916  0
Zn  Zn2  1  0.57331317  0.90148360  0.09707227  1  0  1.234452  0  1.797206  0  0  1.073231  0  2.275972  0  0  1.118256  0  2.209742  0  0  0.719601  1.041427  0  2.321578  0
Zn  Zn3  1  0.92666062  0.80448903  0.90293226  1  0  1.234958  0  1.797068  0  0  1.073711  0  2.275551  0  0  1.118735  0  2.209321  0  0  0.719972  1.041884  0  2.321216  0
Zn  Zn4  1  0.42668825  0.09851441  0.90292566  1  0  1.234482  0  1.797258  0  0  1.073237  0  2.276026  0  0  1.118266  0  2.209792  0  0  0.719603  1.041439  0  2.321637  0
Zn  Zn5  1  0.07334247  0.19551287  0.09706570  1  0  1.234929  0  1.797069  0  0  1.073684  0  2.27554  0  0  1.118702  0  2.209313  0  0  0.719958  1.041859  0  2.321201  0
P  P6  1  0.57048796  0.82038792  0.86070910  1  0  1.53399  0  4.808718  0  0  1.385193  0  5.294034  0  0  1.433484  0  5.259363  0  0  0.350246  1.35136  0  5.317717  0
P  P7  1  0.92953446  0.95960158  0.13933684  1  0  1.532526  0  4.809748  0  0  1.3842  0  5.295182  0  0  1.432461  0  5.260532  0  0  0.349336  1.350341  0  5.318844  0
P  P8  1  0.42951333  0.17960912  0.13928853  1  0  1.533919  0  4.808968  0  0  1.385101  0  5.294274  0  0  1.433396  0  5.259601  0  0  0.350242  1.35127  0  5.317953  0
P  P9  1  0.07046746  0.04040031  0.86066161  1  0  1.53243  0  4.809684  0  0  1.384074  0  5.295117  0  0  1.432361  0  5.260487  0  0  0.349331  1.350218  0  5.318783  0
H  H10  1  0.29743231  0.74168810  0.79307523  1  0  0.155134  0  0.915874  0  0  0.172644  0  0.962478  0  0  0.174636  0  0.962717  0  0  0.116775  0.171203  0  0.962475  0
H  H11  1  0.20261386  0.94864561  0.20704144  1  0  0.154416  0  0.915983  0  0  0.172189  0  0.962844  0  0  0.174158  0  0.963132  0  0  0.116316  0.170716  0  0.962848  0
H  H12  1  0.70256768  0.25830797  0.20691988  1  0  0.155134  0  0.915803  0  0  0.172615  0  0.962424  0  0  0.174606  0  0.962663  0  0  0.116782  0.171167  0  0.962426  0
H  H13  1  0.79738975  0.05136017  0.79295840  1  0  0.154459  0  0.915895  0  0  0.172197  0  0.962748  0  0  0.174188  0  0.963044  0  0  0.11633  0.170728  0  0.962752  0
H  H14  1  0.38128305  0.73842221  0.69475478  1  0  0.154641  0  0.935513  0  0  0.167249  0  0.992583  0  0  0.169812  0  0.992083  0  0  0.115546  0.165352  0  0.99316  0
H  H15  1  0.11867470  0.04353242  0.30534467  1  0  0.153899  0  0.936737  0  0  0.167211  0  0.993177  0  0  0.169792  0  0.992666  0  0  0.115476  0.165258  0  0.993808  0
H  H16  1  0.61872056  0.26157484  0.30524119  1  0  0.154677  0  0.935535  0  0  0.167225  0  0.992649  0  0  0.169785  0  0.992157  0  0  0.115575  0.165328  0  0.993223  0
H  H17  1  0.88132619  0.95647044  0.69465458  1  0  0.15391  0  0.93674  0  0  0.167198  0  0.993168  0  0  0.169796  0  0.992667  0  0  0.115471  0.165245  0  0.993801  0
H  H18  1  0.34132064  0.56440528  0.86123270  1  0  0.116251  0  0.924706  0  0  0.127455  0  0.982411  0  0  0.131227  0  0.979449  0  0  0.109694  0.124741  0  0.984641  0
H  H19  1  0.15885253  0.70316165  0.13883123  1  0  0.116235  0  0.924284  0  0  0.127463  0  0.981938  0  0  0.131233  0  0.97897  0  0  0.109567  0.124759  0  0.984141  0
H  H20  1  0.65868077  0.43559274  0.13876252  1  0  0.116285  0  0.924749  0  0  0.127524  0  0.982421  0  0  0.131294  0  0.979458  0  0  0.109757  0.124812  0  0.984647  0
H  H21  1  0.84114940  0.29684024  0.86116587  1  0  0.116221  0  0.924245  0  0  0.127432  0  0.981922  0  0  0.131202  0  0.978954  0  0  0.109589  0.124727  0  0.984126  0
H  H22  1  0.54053515  0.22812039  0.69931612  1  0  0.107725  0  0.967434  0  0  0.112931  0  1.039781  0  0  0.116226  0  1.037298  0  0  0.110439  0.11048  0  1.041607  0
H  H23  1  0.95954038  0.52848212  0.30061394  1  0  0.108218  0  0.966112  0  0  0.112899  0  1.039201  0  0  0.11621  0  1.03672  0  0  0.11069  0.110458  0  1.041001  0
H  H24  1  0.45945644  0.77187373  0.30067439  1  0  0.107655  0  0.967478  0  0  0.112896  0  1.039797  0  0  0.116197  0  1.037303  0  0  0.110446  0.110436  0  1.041639  0
H  H25  1  0.04046271  0.47151978  0.69938470  1  0  0.108207  0  0.966188  0  0  0.112922  0  1.039237  0  0  0.116231  0  1.036759  0  0  0.110698  0.110481  0  1.041036  0
H  H26  1  0.52204648  0.55677530  0.61497926  1  0  0.118422  0  0.949218  0  0  0.126127  0  1.014357  0  0  0.129936  0  1.01111  0  0  0.111157  0.123328  0  1.016794  0
H  H27  1  0.97789667  0.94139853  0.38503576  1  0  0.118546  0  0.948453  0  0  0.126435  0  1.013389  0  0  0.130295  0  1.010107  0  0  0.111214  0.123544  0  1.015937  0
H  H28  1  0.47794872  0.44321979  0.38501210  1  0  0.118439  0  0.949138  0  0  0.126109  0  1.014305  0  0  0.129909  0  1.011081  0  0  0.111122  0.12331  0  1.016741  0
H  H29  1  0.02210538  0.05860434  0.61496232  1  0  0.11852  0  0.948439  0  0  0.126424  0  1.013369  0  0  0.13027  0  1.010104  0  0  0.111234  0.123542  0  1.015906  0
H  H30  1  0.72963830  0.03573701  0.48159626  1  0  0.073915  0  0.934635  0  0  0.087882  0  0.996915  0  0  0.088489  0  0.996171  0  0  0.106846  0.087339  0  0.997573  0
H  H31  1  0.77034451  0.55380965  0.51849112  1  0  0.073694  0  0.935749  0  0  0.088445  0  0.997164  0  0  0.089061  0  0.9964  0  0  0.106756  0.08788  0  0.997855  0
H  H32  1  0.27036261  0.96425713  0.51840318  1  0  0.073996  0  0.934452  0  0  0.087953  0  0.996826  0  0  0.088562  0  0.996067  0  0  0.106862  0.087405  0  0.997487  0
H  H33  1  0.22965522  0.44619321  0.48150659  1  0  0.073677  0  0.935772  0  0  0.088439  0  0.997142  0  0  0.089013  0  0.996428  0  0  0.106788  0.087873  0  0.997839  0
H  H34  1  0.74823886  0.16789462  0.44391175  1  0  0.05461  0  0.933366  0  0  0.068178  0  0.997486  0  0  0.068894  0  0.996284  0  0  0.101256  0.067544  0  0.998489  0
H  H35  1  0.75153901  0.72354765  0.55591588  1  0  0.053925  0  0.933685  0  0  0.067224  0  0.998342  0  0  0.067957  0  0.9971  0  0  0.100927  0.066627  0  0.999328  0
H  H36  1  0.25176683  0.83210050  0.55608805  1  0  0.054613  0  0.933321  0  0  0.068235  0  0.997423  0  0  0.06893  0  0.996245  0  0  0.101265  0.0676  0  0.998423  0
H  H37  1  0.24846097  0.27645715  0.44408107  1  0  0.053852  0  0.933733  0  0  0.067095  0  0.99844  0  0  0.067831  0  0.997188  0  0  0.100862  0.066499  0  0.999423  0
H  H38  1  0.55453215  0.98367420  0.30397394  1  0  0.110312  0  0.964188  0  0  0.133643  0  1.024222  0  0  0.134628  0  1.024629  0  0  0.090696  0.132889  0  1.023997  0
H  H39  1  0.94512078  0.67967797  0.69610943  1  0  0.11109  0  0.963695  0  0  0.134051  0  1.02404  0  0  0.135046  0  1.024423  0  0  0.091023  0.133268  0  1.023855  0
H  H40  1  0.44547262  0.01632285  0.69602288  1  0  0.110331  0  0.964154  0  0  0.133636  0  1.024219  0  0  0.13462  0  1.024626  0  0  0.090686  0.132885  0  1.023992  0
H  H41  1  0.05487662  0.32032488  0.30388723  1  0  0.111184  0  0.963546  0  0  0.134108  0  1.023927  0  0  0.13512  0  1.024292  0  0  0.091034  0.133327  0  1.023739  0
H  H42  1  0.45964490  0.12494691  0.35008660  1  0  0.105196  0  0.957002  0  0  0.124498  0  1.0217  0  0  0.125816  0  1.022006  0  0  0.088313  0.123467  0  1.021606  0
H  H43  1  0.03993906  0.77480985  0.64991334  1  0  0.104254  0  0.957755  0  0  0.123754  0  1.022269  0  0  0.125087  0  1.022555  0  0  0.088228  0.122717  0  1.022177  0
H  H44  1  0.54036014  0.87505208  0.64991218  1  0  0.105209  0  0.95703  0  0  0.124519  0  1.021716  0  0  0.125839  0  1.02202  0  0  0.088298  0.123485  0  1.021624  0
H  H45  1  0.96006079  0.22519399  0.35008535  1  0  0.104258  0  0.957742  0  0  0.123743  0  1.022273  0  0  0.125072  0  1.022568  0  0  0.088228  0.122706  0  1.022178  0
H  H46  1  0.44178788  0.99490551  0.38955089  1  0  0.114685  0  0.949183  0  0  0.136123  0  1.008195  0  0  0.138082  0  1.007702  0  0  0.091978  0.134662  0  1.008633  0
H  H47  1  0.05816683  0.60541077  0.61073364  1  0  0.115285  0  0.950266  0  0  0.135848  0  1.010153  0  0  0.137817  0  1.009655  0  0  0.09206  0.134374  0  1.0106  0
H  H48  1  0.55821483  0.00509347  0.61044617  1  0  0.114697  0  0.949253  0  0  0.136155  0  1.008229  0  0  0.138115  0  1.007735  0  0  0.092004  0.134693  0  1.008669  0
H  H49  1  0.94183187  0.39459306  0.38926555  1  0  0.115358  0  0.950184  0  0  0.135911  0  1.010063  0  0  0.13788  0  1.009568  0  0  0.09208  0.134435  0  1.01051  0
C  C50  1  0.39942277  0.71726370  0.76349452  1  0  -0.486196  0  3.66475  0  0  -0.506717  0  3.893158  0  0  -0.516754  0  3.903079  0  0  -0.156895  -0.500034  0  3.88699  0
C  C51  1  0.10061185  0.95368306  0.23660658  1  0  -0.484231  0  3.662878  0  0  -0.506522  0  3.893735  0  0  -0.51658  0  3.90374  0  0  -0.156328  -0.499718  0  3.88747  0
C  C52  1  0.60057723  0.28273237  0.23650059  1  0  -0.486177  0  3.664715  0  0  -0.506569  0  3.893082  0  0  -0.516601  0  3.90299  0  0  -0.156878  -0.499877  0  3.886899  0
C  C53  1  0.89939124  0.04631883  0.76339206  1  0  -0.484281  0  3.662844  0  0  -0.506458  0  3.893555  0  0  -0.516624  0  3.903663  0  0  -0.156329  -0.499661  0  3.887301  0
C  C54  1  0.42908973  0.57771416  0.74120751  1  0  0.139625  0  3.736067  0  0  0.161972  0  3.977541  0  0  0.160233  0  4.001996  0  0  -0.001023  0.162844  0  3.961148  0
C  C55  1  0.07100375  0.83635455  0.25885426  1  0  0.140076  0  3.733838  0  0  0.162008  0  3.976871  0  0  0.16028  0  4.001307  0  0  -0.000798  0.162856  0  3.960461  0
C  C56  1  0.57090457  0.42228288  0.25878698  1  0  0.139518  0  3.736029  0  0  0.161822  0  3.977543  0  0  0.160083  0  4.001993  0  0  -0.001106  0.162692  0  3.961152  0
C  C57  1  0.92899946  0.16364832  0.74114264  1  0  0.139951  0  3.733848  0  0  0.161938  0  3.976765  0  0  0.160237  0  4.001209  0  0  -0.000813  0.162786  0  3.960364  0
C  C58  1  0.39756697  0.51568541  0.80161546  1  0  -0.092295  0  3.646971  0  0  -0.132006  0  3.903497  0  0  -0.129227  0  3.92055  0  0  -0.07377  -0.133689  0  3.891916  0
C  C59  1  0.10254856  0.71398642  0.19842285  1  0  -0.091019  0  3.644299  0  0  -0.130719  0  3.900699  0  0  -0.12792  0  3.917723  0  0  -0.072807  -0.132388  0  3.889103  0
C  C60  1  0.60243056  0.48430968  0.19837763  1  0  -0.092408  0  3.646936  0  0  -0.132177  0  3.903541  0  0  -0.129403  0  3.920608  0  0  -0.073866  -0.133859  0  3.891958  0
C  C61  1  0.89745595  0.28601742  0.80157657  1  0  -0.090846  0  3.644244  0  0  -0.130563  0  3.900602  0  0  -0.127756  0  3.917605  0  0  -0.072795  -0.132233  0  3.88901  0
C  C62  1  0.44042157  0.39096407  0.78757457  1  0  -0.075579  0  3.772744  0  0  -0.050207  0  4.013742  0  0  -0.061566  0  4.037856  0  0  -0.020393  -0.042997  0  3.997556  0
C  C63  1  0.05970149  0.60326913  0.21246053  1  0  -0.077606  0  3.774116  0  0  -0.051324  0  4.014115  0  0  -0.062714  0  4.038274  0  0  -0.02083  -0.044081  0  3.99789  0
C  C64  1  0.55957467  0.60903006  0.21241804  1  0  -0.075454  0  3.772502  0  0  -0.050066  0  4.013508  0  0  -0.061427  0  4.037621  0  0  -0.020381  -0.042854  0  3.997317  0
C  C65  1  0.94030030  0.39673180  0.78753627  1  0  -0.077631  0  3.774184  0  0  -0.051325  0  4.014168  0  0  -0.062714  0  4.038326  0  0  -0.020836  -0.044081  0  3.997944  0
C  C66  1  0.50950724  0.32527546  0.71035237  1  0  -0.050139  0  3.686863  0  0  -0.097188  0  3.947744  0  0  -0.092145  0  3.965315  0  0  -0.071863  -0.099856  0  3.935507  0
C  C67  1  0.99057882  0.61466085  0.28964654  1  0  -0.049818  0  3.687165  0  0  -0.096556  0  3.947457  0  0  -0.091542  0  3.965047  0  0  -0.072211  -0.099221  0  3.935239  0
C  C68  1  0.49048797  0.67471963  0.28964035  1  0  -0.049995  0  3.686714  0  0  -0.09709  0  3.94754  0  0  -0.092042  0  3.965102  0  0  -0.071795  -0.099758  0  3.935301  0
C  C69  1  0.00942544  0.38534105  0.71035160  1  0  -0.049815  0  3.687317  0  0  -0.096591  0  3.947598  0  0  -0.091578  0  3.965187  0  0  -0.072217  -0.099255  0  3.935379  0
C  C70  1  0.53656405  0.38471599  0.64735772  1  0  -0.075151  0  3.791963  0  0  -0.053489  0  4.037771  0  0  -0.06431  0  4.062135  0  0  -0.017326  -0.046657  0  4.021336  0
C  C71  1  0.96345555  0.73701355  0.35261797  1  0  -0.07648  0  3.794064  0  0  -0.054538  0  4.040095  0  0  -0.065329  0  4.06444  0  0  -0.017486  -0.047721  0  4.023663  0
C  C72  1  0.46342612  0.61527618  0.35263201  1  0  -0.0753  0  3.791919  0  0  -0.053627  0  4.037707  0  0  -0.064443  0  4.062052  0  0  -0.017432  -0.046786  0  4.021255  0
C  C73  1  0.03654908  0.26299126  0.64737904  1  0  -0.076583  0  3.794175  0  0  -0.054655  0  4.040277  0  0  -0.065446  0  4.064617  0  0  -0.017529  -0.047834  0  4.023845  0
C  C74  1  0.49904981  0.51128199  0.66414490  1  0  -0.073223  0  3.614998  0  0  -0.111978  0  3.865241  0  0  -0.108646  0  3.88201  0  0  -0.064704  -0.113531  0  3.853543  0
C  C75  1  0.00098770  0.84681811  0.33587520  1  0  -0.073319  0  3.614843  0  0  -0.112039  0  3.865114  0  0  -0.108766  0  3.881879  0  0  -0.064973  -0.113579  0  3.853557  0
C  C76  1  0.50094423  0.48871310  0.33584628  1  0  -0.07304  0  3.614802  0  0  -0.111739  0  3.864999  0  0  -0.108412  0  3.881773  0  0  -0.064565  -0.113294  0  3.853299  0
C  C77  1  0.99901203  0.15318475  0.66412115  1  0  -0.073215  0  3.614772  0  0  -0.111977  0  3.865053  0  0  -0.108694  0  3.881818  0  0  -0.06495  -0.113525  0  3.853492  0
C  C78  1  0.60108629  0.31493762  0.56028498  1  0  0.580148  0  3.824913  0  0  0.530285  0  4.120376  0  0  0.563457  0  4.113836  0  0  0.23347  0.507754  0  4.124439  0
C  C79  1  0.89891008  0.75428540  0.43969354  1  0  0.580681  0  3.825371  0  0  0.529851  0  4.122174  0  0  0.563017  0  4.11566  0  0  0.233297  0.507307  0  4.126193  0
C  C80  1  0.39890156  0.68505455  0.43970506  1  0  0.580145  0  3.824923  0  0  0.530225  0  4.120352  0  0  0.563452  0  4.113796  0  0  0.233417  0.507679  0  4.124417  0
C  C81  1  0.10108693  0.24571454  0.56030154  1  0  0.580834  0  3.825387  0  0  0.529974  0  4.122201  0  0  0.563161  0  4.115685  0  0  0.233344  0.507427  0  4.126223  0
C  C82  1  0.41229250  0.32666723  0.85410490  1  0  0.691508  0  3.847145  0  0  0.641103  0  4.128685  0  0  0.677269  0  4.121542  0  0  0.23189  0.616505  0  4.132849  0
C  C83  1  0.08778488  0.47250744  0.14591550  1  0  0.692456  0  3.847431  0  0  0.64161  0  4.129379  0  0  0.677778  0  4.12225  0  0  0.231337  0.616992  0  4.133524  0
C  C84  1  0.58770413  0.67332981  0.14588928  1  0  0.691299  0  3.847178  0  0  0.640882  0  4.128715  0  0  0.677048  0  4.121576  0  0  0.231772  0.616284  0  4.132874  0
C  C85  1  0.91221472  0.52749445  0.85408123  1  0  0.692313  0  3.847676  0  0  0.641406  0  4.12967  0  0  0.677573  0  4.122547  0  0  0.231252  0.616787  0  4.133813  0
C  C86  1  0.66755321  0.10951483  0.45984591  1  0  0.144208  0  3.58575  0  0  0.085342  0  3.862172  0  0  0.094794  0  3.867129  0  0  -0.070792  0.079022  0  3.858653  0
C  C87  1  0.83234787  0.64932528  0.54013854  1  0  0.144979  0  3.585796  0  0  0.085535  0  3.862451  0  0  0.095003  0  3.867354  0  0  -0.070233  0.079147  0  3.858969  0
C  C88  1  0.33245235  0.89047931  0.54015359  1  0  0.144179  0  3.585431  0  0  0.08512  0  3.862087  0  0  0.094638  0  3.86702  0  0  -0.070869  0.078804  0  3.858549  0
C  C89  1  0.16765082  0.35067855  0.45985793  1  0  0.14508  0  3.585924  0  0  0.085728  0  3.862402  0  0  0.095237  0  3.867317  0  0  -0.070233  0.079341  0  3.858917  0
C  C90  1  0.52186527  0.05031917  0.37080581  1  0  -0.328134  0  3.690852  0  0  -0.405632  0  3.93508  0  0  -0.409359  0  3.9444  0  0  -0.248942  -0.402669  0  3.928534  0
C  C91  1  0.97790719  0.67943069  0.62928821  1  0  -0.328634  0  3.691669  0  0  -0.405351  0  3.936087  0  0  -0.409094  0  3.94537  0  0  -0.249845  -0.402361  0  3.929594  0
C  C92  1  0.47813951  0.94967788  0.62919237  1  0  -0.32814  0  3.690834  0  0  -0.405636  0  3.93515  0  0  -0.409358  0  3.944445  0  0  -0.248914  -0.402681  0  3.928606  0
C  C93  1  0.02209151  0.32057314  0.37070962  1  0  -0.328838  0  3.691527  0  0  -0.40554  0  3.935966  0  0  -0.409289  0  3.94522  0  0  -0.249897  -0.402552  0  3.929473  0
O  O94  1  0.58109108  0.78411940  0.95597272  1  0  -0.944293  0  2.160801  0  0  -0.830868  0  2.478476  0  0  -0.862532  0  2.448274  0  0  -0.381601  -0.808424  0  2.498372  0
O  O95  1  0.91897902  0.82814315  0.04407379  1  0  -0.944079  0  2.160527  0  0  -0.831083  0  2.478209  0  0  -0.862626  0  2.447864  0  0  -0.38181  -0.808643  0  2.498136  0
O  O96  1  0.41891357  0.21587667  0.04402449  1  0  -0.944325  0  2.16084  0  0  -0.830912  0  2.478532  0  0  -0.862568  0  2.448309  0  0  -0.381617  -0.808474  0  2.498447  0
O  O97  1  0.08102278  0.17185777  0.95592436  1  0  -0.944027  0  2.160443  0  0  -0.831057  0  2.478168  0  0  -0.862589  0  2.447799  0  0  -0.381814  -0.808615  0  2.498097  0
O  O98  1  0.55867140  0.96528530  0.89167662  1  0  -0.872946  0  2.042794  0  0  -0.780559  0  2.352312  0  0  -0.80825  0  2.321846  0  0  -0.383898  -0.760946  0  2.37272  0
O  O99  1  0.94130645  0.07358856  0.10838945  1  0  -0.87282  0  2.043361  0  0  -0.779874  0  2.351967  0  0  -0.807625  0  2.321619  0  0  -0.383636  -0.760218  0  2.372322  0
O  O100  1  0.44132163  0.03471076  0.10832078  1  0  -0.872925  0  2.042886  0  0  -0.780561  0  2.35242  0  0  -0.808256  0  2.321955  0  0  -0.383896  -0.760941  0  2.372825  0
O  O101  1  0.05869884  0.92641237  0.89160994  1  0  -0.872775  0  2.043284  0  0  -0.779871  0  2.351934  0  0  -0.807622  0  2.321583  0  0  -0.383678  -0.760215  0  2.372291  0
O  O102  1  0.71084985  0.77933651  0.81918949  1  0  -0.872744  0  1.997966  0  0  -0.782138  0  2.284042  0  0  -0.81126  0  2.260923  0  0  -0.379158  -0.761492  0  2.299506  0
O  O103  1  0.78912745  0.95999431  0.18080457  1  0  -0.871992  0  1.998587  0  0  -0.781418  0  2.284654  0  0  -0.810545  0  2.261542  0  0  -0.378375  -0.760786  0  2.300168  0
O  O104  1  0.28915156  0.22066150  0.18080844  1  0  -0.872678  0  1.998052  0  0  -0.782035  0  2.284103  0  0  -0.811159  0  2.260984  0  0  -0.37916  -0.761409  0  2.299613  0
O  O105  1  0.21087551  0.04000662  0.81919309  1  0  -0.871939  0  1.998464  0  0  -0.781342  0  2.284531  0  0  -0.81047  0  2.261414  0  0  -0.378346  -0.760709  0  2.300045  0
O  O106  1  0.62405958  0.19209876  0.55058050  1  0  -0.333412  0  2.287419  0  0  -0.257908  0  2.525371  0  0  -0.281333  0  2.526918  0  0  -0.164365  -0.24181  0  2.523949  0
O  O107  1  0.87593013  0.64115210  0.44941620  1  0  -0.332982  0  2.287803  0  0  -0.256853  0  2.525804  0  0  -0.280292  0  2.527399  0  0  -0.163908  -0.240668  0  2.524311  0
O  O108  1  0.37594170  0.80789828  0.44941646  1  0  -0.333564  0  2.287444  0  0  -0.257861  0  2.525321  0  0  -0.281416  0  2.526931  0  0  -0.164337  -0.241737  0  2.523885  0
O  O109  1  0.12407334  0.35885270  0.55058062  1  0  -0.333016  0  2.287813  0  0  -0.256867  0  2.525763  0  0  -0.28035  0  2.52737  0  0  -0.163894  -0.240681  0  2.52427  0
O  O110  1  0.62766530  0.36204642  0.50238997  1  0  -0.536618  0  1.960072  0  0  -0.49615  0  2.180072  0  0  -0.516356  0  2.172982  0  0  -0.278418  -0.482261  0  2.184712  0
O  O111  1  0.87236435  0.85928433  0.49757081  1  0  -0.536949  0  1.958767  0  0  -0.496131  0  2.17917  0  0  -0.516332  0  2.172065  0  0  -0.278747  -0.482221  0  2.183832  0
O  O112  1  0.37231738  0.63794186  0.49759678  1  0  -0.53658  0  1.960112  0  0  -0.496109  0  2.180094  0  0  -0.516304  0  2.172974  0  0  -0.278355  -0.482221  0  2.184741  0
O  O113  1  0.12762672  0.14071463  0.50242170  1  0  -0.537031  0  1.958815  0  0  -0.496202  0  2.179223  0  0  -0.516406  0  2.172118  0  0  -0.278771  -0.482287  0  2.183882  0
O  O114  1  0.31707010  0.37551566  0.90670973  1  0  -0.642693  0  2.074127  0  0  -0.566519  0  2.34648  0  0  -0.596913  0  2.330655  0  0  -0.311313  -0.545394  0  2.356663  0
O  O115  1  0.18291840  0.46879703  0.09325137  1  0  -0.642886  0  2.074243  0  0  -0.566751  0  2.346842  0  0  -0.597112  0  2.330975  0  0  -0.311119  -0.54563  0  2.357113  0
O  O116  1  0.68293442  0.62447945  0.09328649  1  0  -0.642725  0  2.073959  0  0  -0.566501  0  2.346269  0  0  -0.596889  0  2.330438  0  0  -0.311269  -0.545378  0  2.356451  0
O  O117  1  0.81707745  0.53120292  0.90674353  1  0  -0.642786  0  2.074277  0  0  -0.566611  0  2.346857  0  0  -0.596973  0  2.330994  0  0  -0.311063  -0.54549  0  2.357126  0
O  O118  1  0.48476877  0.22855568  0.85400914  1  0  -0.641206  0  2.051462  0  0  -0.568373  0  2.313703  0  0  -0.596766  0  2.296941  0  0  -0.309885  -0.548894  0  2.324759  0
O  O119  1  0.01535855  0.37448197  0.14604405  1  0  -0.641788  0  2.0514  0  0  -0.568788  0  2.313704  0  0  -0.59719  0  2.29696  0  0  -0.309619  -0.549303  0  2.324776  0
O  O120  1  0.51523239  0.77144040  0.14598548  1  0  -0.641037  0  2.051634  0  0  -0.568249  0  2.313909  0  0  -0.596641  0  2.297154  0  0  -0.309875  -0.548769  0  2.324961  0
O  O121  1  0.98464105  0.62551992  0.85395608  1  0  -0.641785  0  2.051594  0  0  -0.568728  0  2.313882  0  0  -0.597131  0  2.297138  0  0  -0.309612  -0.549246  0  2.324955  0
