# generated using pymatgen
data_CaH8(C2O)4
_symmetry_space_group_name_H-M   'P 1'
_cell_length_a   6.78529498
_cell_length_b   9.61077666
_cell_length_c   12.64918038
_cell_angle_alpha   104.24620131
_cell_angle_beta   90.00007314
_cell_angle_gamma   89.99991834
_symmetry_Int_Tables_number   1
_chemical_formula_structural   CaH8(C2O)4
_chemical_formula_sum   'Ca4 H32 C32 O16'
_cell_volume   799.51049785
_cell_formula_units_Z   4
loop_
 _symmetry_equiv_pos_site_id
 _symmetry_equiv_pos_as_xyz
  1  'x, y, z'
loop_
 _atom_site_type_symbol
 _atom_site_label
 _atom_site_symmetry_multiplicity
 _atom_site_fract_x
 _atom_site_fract_y
 _atom_site_fract_z
 _atom_site_occupancy
 _atom_site_hle17_bader_spin_density
 _atom_site_hle17_ddec_charge
 _atom_site_hle17_ddec_spin_density
 _atom_site_hle17_ddec_sum_bond_order
 _atom_site_hle17_magmom
 _atom_site_hse06_10hf_bader_spin_density
 _atom_site_hse06_10hf_ddec_charge
 _atom_site_hse06_10hf_ddec_spin_density
 _atom_site_hse06_10hf_ddec_sum_bond_order
 _atom_site_hse06_10hf_magmom
 _atom_site_hse06_bader_spin_density
 _atom_site_hse06_ddec_charge
 _atom_site_hse06_ddec_spin_density
 _atom_site_hse06_ddec_sum_bond_order
 _atom_site_hse06_magmom
 _atom_site_pbe_bader_spin_density
 _atom_site_pbe_cm5_charge
 _atom_site_pbe_ddec_charge
 _atom_site_pbe_ddec_spin_density
 _atom_site_pbe_ddec_sum_bond_order
 _atom_site_pbe_magmom
Ca  Ca0  1  0.01540673  0.69011638  0.48803220  1  0  1.545555  0  1.136682  0  0  1.416214  0  1.479323  0  0  1.461917  0  1.434944  0  0  0.899939  1.381453  0  1.511301  0
Ca  Ca1  1  0.51540848  0.80988391  0.51196813  1  0  1.54555  0  1.136687  0  0  1.416209  0  1.479339  0  0  1.461921  0  1.434948  0  0  0.899932  1.381455  0  1.511334  0
Ca  Ca2  1  0.98459124  0.30988433  0.51196849  1  0  1.545567  0  1.136644  0  0  1.416231  0  1.479256  0  0  1.461925  0  1.434898  0  0  0.899947  1.381468  0  1.511225  0
Ca  Ca3  1  0.48459244  0.19011573  0.48803236  1  0  1.545532  0  1.136706  0  0  1.416204  0  1.479311  0  0  1.461878  0  1.434986  0  0  0.899943  1.381443  0  1.511304  0
H  H4  1  0.85762449  0.96545438  0.21462933  1  0  0.081243  0  0.908438  0  0  0.097621  0  0.95953  0  0  0.098733  0  0.959987  0  0  0.108359  0.096821  0  0.959402  0
H  H5  1  0.35762376  0.53454562  0.78537118  1  0  0.081223  0  0.908458  0  0  0.097596  0  0.959544  0  0  0.098708  0  0.960001  0  0  0.108355  0.096799  0  0.959421  0
H  H6  1  0.14237643  0.03454526  0.78537116  1  0  0.081229  0  0.908429  0  0  0.097605  0  0.959514  0  0  0.098717  0  0.959971  0  0  0.108363  0.096811  0  0.959387  0
H  H7  1  0.64237569  0.46545402  0.21462931  1  0  0.081244  0  0.908418  0  0  0.097616  0  0.959497  0  0  0.098728  0  0.959953  0  0  0.108372  0.096821  0  0.959371  0
H  H8  1  0.89337274  0.67887377  0.27726503  1  0  0.078517  0  0.969231  0  0  0.09312  0  1.039338  0  0  0.09532  0  1.037132  0  0  0.108179  0.091196  0  1.041817  0
H  H9  1  0.39337129  0.82112513  0.72273371  1  0  0.078533  0  0.969219  0  0  0.093126  0  1.03932  0  0  0.095326  0  1.037116  0  0  0.108201  0.091218  0  1.041783  0
H  H10  1  0.10662670  0.32112587  0.72273546  1  0  0.078493  0  0.969223  0  0  0.093093  0  1.03934  0  0  0.095289  0  1.037132  0  0  0.108186  0.091182  0  1.041807  0
H  H11  1  0.60662816  0.17887344  0.27726578  1  0  0.078501  0  0.96924  0  0  0.093101  0  1.039332  0  0  0.095303  0  1.037126  0  0  0.108193  0.091191  0  1.0418  0
H  H12  1  0.71006590  0.73676432  0.20221133  1  0  0.074562  0  0.914652  0  0  0.095983  0  0.970676  0  0  0.096612  0  0.970505  0  0  0.097616  0.095367  0  0.971075  0
H  H13  1  0.21006326  0.76323581  0.79778831  1  0  0.074551  0  0.914679  0  0  0.095962  0  0.970707  0  0  0.09659  0  0.970539  0  0  0.097612  0.095351  0  0.971108  0
H  H14  1  0.28993502  0.26323532  0.79778837  1  0  0.074529  0  0.914651  0  0  0.095932  0  0.970717  0  0  0.096555  0  0.970546  0  0  0.097593  0.095319  0  0.971117  0
H  H15  1  0.78993618  0.23676490  0.20221159  1  0  0.074569  0  0.914661  0  0  0.095966  0  0.970711  0  0  0.096593  0  0.970545  0  0  0.097612  0.095355  0  0.971107  0
H  H16  1  0.92435136  0.57266434  0.06756715  1  0  0.069508  0  0.977925  0  0  0.08209  0  1.043386  0  0  0.083992  0  1.043195  0  0  0.09234  0.080681  0  1.043784  0
H  H17  1  0.42434724  0.92733776  0.93243221  1  0  0.069498  0  0.977845  0  0  0.082066  0  1.043331  0  0  0.083968  0  1.043141  0  0  0.092332  0.080658  0  1.043729  0
H  H18  1  0.07564956  0.42733637  0.93243275  1  0  0.06952  0  0.977864  0  0  0.082085  0  1.043345  0  0  0.083987  0  1.043156  0  0  0.092348  0.080677  0  1.04374  0
H  H19  1  0.57565221  0.07266296  0.06756769  1  0  0.069501  0  0.977847  0  0  0.082067  0  1.043335  0  0  0.08397  0  1.043145  0  0  0.092335  0.08066  0  1.043731  0
H  H20  1  0.21391486  0.67894539  0.00578902  1  0  0.0713  0  0.976442  0  0  0.08241  0  1.042765  0  0  0.084593  0  1.042485  0  0  0.088839  0.080841  0  1.042983  0
H  H21  1  0.71391479  0.82105581  0.99421161  1  0  0.071315  0  0.976396  0  0  0.082403  0  1.042745  0  0  0.084586  0  1.042466  0  0  0.088852  0.080846  0  1.042949  0
H  H22  1  0.78608459  0.32105532  0.99421167  1  0  0.071313  0  0.976388  0  0  0.08242  0  1.04272  0  0  0.084603  0  1.042439  0  0  0.088847  0.080852  0  1.042937  0
H  H23  1  0.28608614  0.17894383  0.00578809  1  0  0.071313  0  0.976396  0  0  0.0824  0  1.042743  0  0  0.084582  0  1.042465  0  0  0.088849  0.080845  0  1.042946  0
H  H24  1  0.19537901  0.95645330  0.09588574  1  0  0.069388  0  0.932728  0  0  0.088247  0  0.994967  0  0  0.088519  0  0.995598  0  0  0.092767  0.087821  0  0.994746  0
H  H25  1  0.69537929  0.54354792  0.90411410  1  0  0.06939  0  0.932716  0  0  0.08825  0  0.994966  0  0  0.088523  0  0.995596  0  0  0.092772  0.087824  0  0.994744  0
H  H26  1  0.80462191  0.04354742  0.90411495  1  0  0.069391  0  0.932711  0  0  0.088269  0  0.994923  0  0  0.088542  0  0.995554  0  0  0.092766  0.087846  0  0.994697  0
H  H27  1  0.30462163  0.45645280  0.09588580  1  0  0.069399  0  0.932714  0  0  0.08826  0  0.994963  0  0  0.088534  0  0.995592  0  0  0.092768  0.087836  0  0.99474  0
H  H28  1  0.38900523  0.86756028  0.14170653  1  0  0.073469  0  0.929339  0  0  0.092486  0  0.990166  0  0  0.092859  0  0.99081  0  0  0.095731  0.092054  0  0.989989  0
H  H29  1  0.88900521  0.63243970  0.85829399  1  0  0.073479  0  0.929332  0  0  0.0925  0  0.990166  0  0  0.092873  0  0.990811  0  0  0.095729  0.092068  0  0.989986  0
H  H30  1  0.61099422  0.13244043  0.85829416  1  0  0.073489  0  0.929338  0  0  0.092491  0  0.990173  0  0  0.092866  0  0.990818  0  0  0.095727  0.092066  0  0.989989  0
H  H31  1  0.11099424  0.36755994  0.14170570  1  0  0.073483  0  0.929323  0  0  0.0925  0  0.990162  0  0  0.092873  0  0.990808  0  0  0.09573  0.092074  0  0.989977  0
H  H32  1  0.17152268  0.04748075  0.28126600  1  0  0.101384  0  0.958882  0  0  0.108355  0  1.022322  0  0  0.111612  0  1.02107  0  0  0.115837  0.106123  0  1.023203  0
H  H33  1  0.67152168  0.45251850  0.71873369  1  0  0.101392  0  0.958853  0  0  0.108321  0  1.022348  0  0  0.111617  0  1.021043  0  0  0.115845  0.106092  0  1.023227  0
H  H34  1  0.82847825  0.95251889  0.71873528  1  0  0.101393  0  0.958866  0  0  0.108342  0  1.022339  0  0  0.11162  0  1.021059  0  0  0.115845  0.106118  0  1.023218  0
H  H35  1  0.32847776  0.54748114  0.28126601  1  0  0.101383  0  0.958899  0  0  0.108353  0  1.022342  0  0  0.111602  0  1.021102  0  0  0.115832  0.106121  0  1.023224  0
C  C36  1  0.85096912  0.96214027  0.38041112  1  0  0.74716  0  3.770996  0  0  0.698864  0  4.066892  0  0  0.734276  0  4.055395  0  0  0.256591  0.674233  0  4.074184  0
C  C37  1  0.35096946  0.53785867  0.61958918  1  0  0.74714  0  3.771109  0  0  0.698842  0  4.067003  0  0  0.734254  0  4.055507  0  0  0.256589  0.674238  0  4.074249  0
C  C38  1  0.14902886  0.03786366  0.61958858  1  0  0.747186  0  3.770987  0  0  0.698836  0  4.066946  0  0  0.734283  0  4.055399  0  0  0.256576  0.674181  0  4.074268  0
C  C39  1  0.64903146  0.46213668  0.38041130  1  0  0.74719  0  3.771001  0  0  0.698818  0  4.066994  0  0  0.734262  0  4.055451  0  0  0.256573  0.674179  0  4.074297  0
C  C40  1  0.92722218  0.90027515  0.26479835  1  0  -0.121238  0  3.602637  0  0  -0.127766  0  3.836572  0  0  -0.13221  0  3.848705  0  0  -0.074655  -0.124542  0  3.828191  0
C  C41  1  0.42721972  0.59972373  0.73520120  1  0  -0.121234  0  3.602776  0  0  -0.127727  0  3.836633  0  0  -0.13217  0  3.848775  0  0  -0.074673  -0.124517  0  3.828265  0
C  C42  1  0.07277727  0.09972342  0.73520114  1  0  -0.121217  0  3.602598  0  0  -0.127675  0  3.836465  0  0  -0.13213  0  3.848576  0  0  -0.074639  -0.124445  0  3.8281  0
C  C43  1  0.57277678  0.40027699  0.26479949  1  0  -0.121194  0  3.602659  0  0  -0.127632  0  3.836472  0  0  -0.132075  0  3.848577  0  0  -0.074651  -0.124412  0  3.828111  0
C  C44  1  0.87028887  0.74318881  0.21754511  1  0  -0.115709  0  3.739338  0  0  -0.165131  0  3.998426  0  0  -0.164359  0  4.009798  0  0  -0.156748  -0.165589  0  3.990944  0
C  C45  1  0.37028768  0.75680797  0.78245323  1  0  -0.115765  0  3.739363  0  0  -0.165161  0  3.998438  0  0  -0.164391  0  4.009812  0  0  -0.156764  -0.165642  0  3.990968  0
C  C46  1  0.12971206  0.25680976  0.78245439  1  0  -0.115616  0  3.739194  0  0  -0.165053  0  3.998314  0  0  -0.16426  0  4.009658  0  0  -0.156734  -0.16553  0  3.990838  0
C  C47  1  0.62971177  0.24319060  0.21754627  1  0  -0.115742  0  3.739302  0  0  -0.165144  0  3.998366  0  0  -0.164376  0  4.009742  0  0  -0.15675  -0.16562  0  3.990893  0
C  C48  1  0.97984632  0.67580270  0.11527668  1  0  -0.07764  0  3.743389  0  0  -0.093892  0  4.007835  0  0  -0.095512  0  4.029533  0  0  -0.101994  -0.092496  0  3.993174  0
C  C49  1  0.47985556  0.82419399  0.88472488  1  0  -0.077555  0  3.743523  0  0  -0.093822  0  4.007993  0  0  -0.09544  0  4.02969  0  0  -0.101964  -0.092425  0  3.993346  0
C  C50  1  0.02014723  0.32419480  0.88472499  1  0  -0.077632  0  3.743426  0  0  -0.093871  0  4.007896  0  0  -0.095496  0  4.029586  0  0  -0.101979  -0.092466  0  3.993238  0
C  C51  1  0.52014536  0.17580565  0.11527482  1  0  -0.077578  0  3.743519  0  0  -0.093841  0  4.007985  0  0  -0.09546  0  4.029683  0  0  -0.10197  -0.092443  0  3.993338  0
C  C52  1  0.14019370  0.73359975  0.08153380  1  0  -0.102113  0  3.747113  0  0  -0.116113  0  4.008167  0  0  -0.118614  0  4.030038  0  0  -0.111027  -0.11446  0  3.993226  0
C  C53  1  0.64018619  0.76640258  0.91846383  1  0  -0.102071  0  3.747288  0  0  -0.116029  0  4.008349  0  0  -0.118529  0  4.030223  0  0  -0.110999  -0.114384  0  3.993399  0
C  C54  1  0.85981164  0.26640203  0.91846550  1  0  -0.102107  0  3.747107  0  0  -0.11611  0  4.008153  0  0  -0.118609  0  4.030025  0  0  -0.111031  -0.114461  0  3.993213  0
C  C55  1  0.35981473  0.23359814  0.08153607  1  0  -0.102058  0  3.747273  0  0  -0.116011  0  4.008326  0  0  -0.11851  0  4.0302  0  0  -0.110994  -0.114368  0  3.99338  0
C  C56  1  0.22692826  0.87444622  0.14117943  1  0  -0.098055  0  3.714509  0  0  -0.143543  0  3.968009  0  0  -0.143128  0  3.982747  0  0  -0.153354  -0.143471  0  3.957875  0
C  C57  1  0.72692826  0.62555497  0.85882121  1  0  -0.098112  0  3.71448  0  0  -0.143626  0  3.968004  0  0  -0.143217  0  3.982755  0  0  -0.153391  -0.143557  0  3.957869  0
C  C58  1  0.77307119  0.12555450  0.85882126  1  0  -0.098142  0  3.714451  0  0  -0.143616  0  3.967928  0  0  -0.143208  0  3.982673  0  0  -0.153365  -0.143542  0  3.957784  0
C  C59  1  0.27307119  0.37444467  0.14117849  1  0  -0.098108  0  3.714536  0  0  -0.143625  0  3.96807  0  0  -0.143215  0  3.982811  0  0  -0.153374  -0.143561  0  3.957935  0
C  C60  1  0.15058973  0.93073403  0.25902098  1  0  -0.140285  0  3.584598  0  0  -0.144252  0  3.817314  0  0  -0.150447  0  3.829326  0  0  -0.077969  -0.140027  0  3.808949  0
C  C61  1  0.65058809  0.56926722  0.74097962  1  0  -0.14029  0  3.584631  0  0  -0.144232  0  3.817329  0  0  -0.150447  0  3.82934  0  0  -0.077973  -0.140001  0  3.80897  0
C  C62  1  0.84940972  0.06926561  0.74098030  1  0  -0.140303  0  3.584619  0  0  -0.144306  0  3.817353  0  0  -0.150513  0  3.829362  0  0  -0.077983  -0.140084  0  3.808999  0
C  C63  1  0.34941136  0.43073349  0.25901949  1  0  -0.140377  0  3.584774  0  0  -0.144373  0  3.817477  0  0  -0.150565  0  3.829495  0  0  -0.078002  -0.140139  0  3.80912  0
C  C64  1  0.27874790  0.87571110  0.33867255  1  0  0.716523  0  3.788536  0  0  0.667883  0  4.084988  0  0  0.702867  0  4.075038  0  0  0.235755  0.64399  0  4.090835  0
C  C65  1  0.77874891  0.62428789  0.66132692  1  0  0.716497  0  3.788639  0  0  0.667887  0  4.085048  0  0  0.702862  0  4.075119  0  0  0.235776  0.643995  0  4.090891  0
C  C66  1  0.72125302  0.12429068  0.66132754  1  0  0.716623  0  3.78841  0  0  0.668014  0  4.084836  0  0  0.702999  0  4.074886  0  0  0.235839  0.644115  0  4.090692  0
C  C67  1  0.22125054  0.37571067  0.33867258  1  0  0.716573  0  3.788587  0  0  0.667976  0  4.084993  0  0  0.70296  0  4.075043  0  0  0.235797  0.644073  0  4.090848  0
O  O68  1  0.82968207  0.87922703  0.44424834  1  0  -0.754902  0  2.050961  0  0  -0.691334  0  2.307528  0  0  -0.7206  0  2.297867  0  0  -0.387409  -0.669947  0  2.313858  0
O  O69  1  0.32968209  0.62077192  0.55575195  1  0  -0.754885  0  2.050983  0  0  -0.69132  0  2.30755  0  0  -0.720587  0  2.297891  0  0  -0.387386  -0.669928  0  2.313841  0
O  O70  1  0.17031738  0.12077154  0.55575353  1  0  -0.754926  0  2.051156  0  0  -0.691324  0  2.30772  0  0  -0.720593  0  2.298041  0  0  -0.387396  -0.669915  0  2.314038  0
O  O71  1  0.67031883  0.37922879  0.44424716  1  0  -0.754897  0  2.051116  0  0  -0.691291  0  2.30767  0  0  -0.720559  0  2.297992  0  0  -0.387406  -0.669892  0  2.31399  0
O  O72  1  0.81224216  0.09587065  0.40761495  1  0  -0.748969  0  2.023768  0  0  -0.695579  0  2.286463  0  0  -0.723896  0  2.276162  0  0  -0.372211  -0.675222  0  2.293517  0
O  O73  1  0.31224317  0.40412955  0.59238581  1  0  -0.748963  0  2.023816  0  0  -0.695579  0  2.286518  0  0  -0.723897  0  2.276219  0  0  -0.372229  -0.67524  0  2.293563  0
O  O74  1  0.18775729  0.90412791  0.59238455  1  0  -0.749001  0  2.023593  0  0  -0.695588  0  2.286299  0  0  -0.723927  0  2.275983  0  0  -0.372226  -0.675225  0  2.293366  0
O  O75  1  0.68775775  0.59587223  0.40761508  1  0  -0.749007  0  2.023591  0  0  -0.6956  0  2.286335  0  0  -0.723938  0  2.276019  0  0  -0.372225  -0.675243  0  2.293398  0
O  O76  1  0.24012924  0.75866513  0.36482754  1  0  -0.72633  0  2.016843  0  0  -0.661272  0  2.261934  0  0  -0.689313  0  2.251877  0  0  -0.370514  -0.641085  0  2.26794  0
O  O77  1  0.74012701  0.74133712  0.63517172  1  0  -0.726393  0  2.016715  0  0  -0.661357  0  2.261816  0  0  -0.6894  0  2.251763  0  0  -0.370593  -0.641176  0  2.26783  0
O  O78  1  0.75987020  0.24133236  0.63517334  1  0  -0.726391  0  2.016941  0  0  -0.661334  0  2.262009  0  0  -0.689385  0  2.251958  0  0  -0.370559  -0.641145  0  2.268027  0
O  O79  1  0.25986949  0.25866574  0.36482699  1  0  -0.72635  0  2.016857  0  0  -0.661338  0  2.26197  0  0  -0.689374  0  2.251913  0  0  -0.37054  -0.641151  0  2.267986  0
O  O80  1  0.43014144  0.95020451  0.37789608  1  0  -0.743359  0  2.000807  0  0  -0.684413  0  2.25445  0  0  -0.713237  0  2.244404  0  0  -0.386082  -0.663758  0  2.260723  0
O  O81  1  0.93013956  0.54979759  0.62210487  1  0  -0.743275  0  2.001003  0  0  -0.684319  0  2.25458  0  0  -0.713144  0  2.244544  0  0  -0.386022  -0.663674  0  2.260878  0
O  O82  1  0.56985653  0.04979406  0.62210421  1  0  -0.743412  0  2.000735  0  0  -0.684427  0  2.254252  0  0  -0.713251  0  2.244203  0  0  -0.386116  -0.6638  0  2.260606  0
O  O83  1  0.06985547  0.45020635  0.37789563  1  0  -0.743394  0  2.000928  0  0  -0.684394  0  2.254404  0  0  -0.713217  0  2.244353  0  0  -0.386091  -0.663771  0  2.260749  0
