# generated using pymatgen
data_Cd3H20C10Cl6O5
_symmetry_space_group_name_H-M   'P 1'
_cell_length_a   7.16903090
_cell_length_b   10.35212359
_cell_length_c   14.06838230
_cell_angle_alpha   89.99983381
_cell_angle_beta   90.00019249
_cell_angle_gamma   103.69323043
_symmetry_Int_Tables_number   1
_chemical_formula_structural   Cd3H20C10Cl6O5
_chemical_formula_sum   'Cd6 H40 C20 Cl12 O10'
_cell_volume   1014.40488111
_cell_formula_units_Z   2
loop_
 _symmetry_equiv_pos_site_id
 _symmetry_equiv_pos_as_xyz
  1  'x, y, z'
loop_
 _atom_site_type_symbol
 _atom_site_label
 _atom_site_symmetry_multiplicity
 _atom_site_fract_x
 _atom_site_fract_y
 _atom_site_fract_z
 _atom_site_occupancy
 _atom_site_hle17_bader_spin_density
 _atom_site_hle17_ddec_charge
 _atom_site_hle17_ddec_spin_density
 _atom_site_hle17_ddec_sum_bond_order
 _atom_site_hle17_magmom
 _atom_site_hse06_10hf_bader_spin_density
 _atom_site_hse06_10hf_ddec_charge
 _atom_site_hse06_10hf_ddec_spin_density
 _atom_site_hse06_10hf_ddec_sum_bond_order
 _atom_site_hse06_10hf_magmom
 _atom_site_hse06_bader_spin_density
 _atom_site_hse06_ddec_charge
 _atom_site_hse06_ddec_spin_density
 _atom_site_hse06_ddec_sum_bond_order
 _atom_site_hse06_magmom
 _atom_site_pbe_bader_spin_density
 _atom_site_pbe_cm5_charge
 _atom_site_pbe_ddec_charge
 _atom_site_pbe_ddec_spin_density
 _atom_site_pbe_ddec_sum_bond_order
 _atom_site_pbe_magmom
Cd  Cd0  1  0.96716916  0.66200185  0.74996552  1  0  0.983025  0  1.911737  0  0  0.828107  0  2.385098  0  0  0.876324  0  2.339772  0  0  0.533932  0.793946  0  2.415831  0
Cd  Cd1  1  0.03283094  0.33799841  0.24996515  1  0  0.983027  0  1.91171  0  0  0.828129  0  2.38503  0  0  0.876333  0  2.339731  0  0  0.533935  0.793969  0  2.415757  0
Cd  Cd2  1  0.51175999  0.80440736  0.77485697  1  0  0.984379  0  1.923884  0  0  0.829977  0  2.402905  0  0  0.877675  0  2.356869  0  0  0.531232  0.796529  0  2.434352  0
Cd  Cd3  1  0.48823992  0.19559182  0.27485768  1  0  0.984361  0  1.923907  0  0  0.829945  0  2.402965  0  0  0.877653  0  2.356909  0  0  0.531218  0.796498  0  2.434407  0
Cd  Cd4  1  0.74123540  0.23566659  0.76656471  1  0  1.069391  0  1.841852  0  0  0.899479  0  2.264962  0  0  0.954077  0  2.216691  0  0  0.733941  0.861225  0  2.297644  0
Cd  Cd5  1  0.25876619  0.76433362  0.26656452  1  0  1.069323  0  1.841906  0  0  0.899428  0  2.264991  0  0  0.95401  0  2.216724  0  0  0.733903  0.861185  0  2.297643  0
H  H6  1  0.73005238  0.41130209  0.03118927  1  0  0.077677  0  0.925477  0  0  0.087878  0  0.993543  0  0  0.088458  0  0.993229  0  0  0.09685  0.087532  0  0.99365  0
H  H7  1  0.26995004  0.58869685  0.53119074  1  0  0.077664  0  0.925506  0  0  0.087865  0  0.993559  0  0  0.088441  0  0.993241  0  0  0.096839  0.087521  0  0.993668  0
H  H8  1  0.86234568  0.50298720  0.93491153  1  0  0.059269  0  0.954424  0  0  0.068661  0  1.028629  0  0  0.0694  0  1.02754  0  0  0.087033  0.068039  0  1.029521  0
H  H9  1  0.13765159  0.49701346  0.43491384  1  0  0.05928  0  0.954421  0  0  0.068656  0  1.028629  0  0  0.06939  0  1.02754  0  0  0.087027  0.068037  0  1.029522  0
H  H10  1  0.51313773  0.50068316  0.92440114  1  0  0.076628  0  0.94263  0  0  0.088659  0  1.010198  0  0  0.089209  0  1.010044  0  0  0.094541  0.08812  0  1.010493  0
H  H11  1  0.48686063  0.49931258  0.42440262  1  0  0.076591  0  0.942627  0  0  0.088645  0  1.01016  0  0  0.089195  0  1.010006  0  0  0.094538  0.088111  0  1.010457  0
H  H12  1  0.45374395  0.32217714  0.92412691  1  0  0.064204  0  0.930881  0  0  0.076127  0  0.999964  0  0  0.077018  0  0.999032  0  0  0.097341  0.075463  0  1.000583  0
H  H13  1  0.54625753  0.67781961  0.42412882  1  0  0.064197  0  0.930871  0  0  0.076147  0  0.999911  0  0  0.077038  0  0.998979  0  0  0.097321  0.075485  0  1.000529  0
H  H14  1  0.30444650  0.33161419  0.77481962  1  0  0.074689  0  0.960626  0  0  0.083824  0  1.02899  0  0  0.085529  0  1.02772  0  0  0.100663  0.08256  0  1.029936  0
H  H15  1  0.69555341  0.66838499  0.27482110  1  0  0.074675  0  0.96061  0  0  0.083818  0  1.028977  0  0  0.085522  0  1.027709  0  0  0.100653  0.082554  0  1.029926  0
H  H16  1  0.39269459  0.49972227  0.73856233  1  0  0.064338  0  0.969764  0  0  0.071703  0  1.046782  0  0  0.071991  0  1.046421  0  0  0.085669  0.071411  0  1.04706  0
H  H17  1  0.60730373  0.50027701  0.23856402  1  0  0.064305  0  0.969782  0  0  0.071691  0  1.046786  0  0  0.071978  0  1.046426  0  0  0.085654  0.071399  0  1.047062  0
H  H18  1  0.59594211  0.42218256  0.61316935  1  0  0.070062  0  0.946924  0  0  0.079657  0  1.017246  0  0  0.080871  0  1.016197  0  0  0.09071  0.078583  0  1.01834  0
H  H19  1  0.40405657  0.57781612  0.11316981  1  0  0.070065  0  0.946954  0  0  0.079656  0  1.017274  0  0  0.08087  0  1.016228  0  0  0.090712  0.078578  0  1.01837  0
H  H20  1  0.34239925  0.35437929  0.59930478  1  0  0.07383  0  0.924257  0  0  0.088256  0  0.989238  0  0  0.088734  0  0.988652  0  0  0.101795  0.087919  0  0.989672  0
H  H21  1  0.65760108  0.64562043  0.09930696  1  0  0.07374  0  0.924295  0  0  0.088223  0  0.989207  0  0  0.088701  0  0.988622  0  0  0.10178  0.087885  0  0.989641  0
H  H22  1  0.43594642  0.05160299  0.57635230  1  0  0.082378  0  0.930706  0  0  0.0926  0  0.997338  0  0  0.093641  0  0.996247  0  0  0.096163  0.091789  0  0.998259  0
H  H23  1  0.56405066  0.94839579  0.07635224  1  0  0.08241  0  0.930691  0  0  0.092633  0  0.997304  0  0  0.093675  0  0.996217  0  0  0.096175  0.091823  0  0.998226  0
H  H24  1  0.48217558  0.20005650  0.50649624  1  0  0.072814  0  0.960962  0  0  0.083388  0  1.032537  0  0  0.083224  0  1.03318  0  0  0.091888  0.083409  0  1.032231  0
H  H25  1  0.51782111  0.79994249  0.00649643  1  0  0.072883  0  0.960869  0  0  0.083379  0  1.032508  0  0  0.083214  0  1.033155  0  0  0.091918  0.0834  0  1.0322  0
H  H26  1  0.83046822  0.24520616  0.54485485  1  0  0.064012  0  0.966267  0  0  0.071017  0  1.042765  0  0  0.0723  0  1.041432  0  0  0.083348  0.069994  0  1.043907  0
H  H27  1  0.16952795  0.75479470  0.04485595  1  0  0.064018  0  0.966268  0  0  0.071033  0  1.042768  0  0  0.072316  0  1.041435  0  0  0.083371  0.070012  0  1.043911  0
H  H28  1  0.74705989  0.08152776  0.49701790  1  0  0.077722  0  0.923083  0  0  0.092531  0  0.985057  0  0  0.093023  0  0.984842  0  0  0.097726  0.09207  0  0.985429  0
H  H29  1  0.25293912  0.91847272  0.99701792  1  0  0.077718  0  0.923079  0  0  0.092551  0  0.985054  0  0  0.09304  0  0.984835  0  0  0.097738  0.092093  0  0.985428  0
H  H30  1  0.01645420  0.00420049  0.60250994  1  0  0.075323  0  0.926222  0  0  0.089304  0  0.989343  0  0  0.089695  0  0.989193  0  0  0.099298  0.088912  0  0.989562  0
H  H31  1  0.98354541  0.99580120  0.10250908  1  0  0.075299  0  0.926183  0  0  0.089296  0  0.989276  0  0  0.089688  0  0.989129  0  0  0.099305  0.088904  0  0.989498  0
H  H32  1  0.08227971  0.18118503  0.61836308  1  0  0.068163  0  0.930139  0  0  0.079714  0  0.998544  0  0  0.080645  0  0.997699  0  0  0.099223  0.078869  0  0.999364  0
H  H33  1  0.91771893  0.81881760  0.11836320  1  0  0.068147  0  0.93013  0  0  0.079694  0  0.998531  0  0  0.080624  0  0.997686  0  0  0.099217  0.07885  0  0.99935  0
H  H34  1  0.19939092  0.05598787  0.75049365  1  0  0.079352  0  0.956188  0  0  0.085811  0  1.03222  0  0  0.087085  0  1.031059  0  0  0.09257  0.084864  0  1.032955  0
H  H35  1  0.80060952  0.94401338  0.25049401  1  0  0.079331  0  0.956249  0  0  0.085789  0  1.032267  0  0  0.087062  0  1.031109  0  0  0.092574  0.084842  0  1.032999  0
H  H36  1  0.95635877  0.97454336  0.77836717  1  0  0.05389  0  0.972015  0  0  0.062968  0  1.050716  0  0  0.063269  0  1.050457  0  0  0.085257  0.062527  0  1.051176  0
H  H37  1  0.04364182  0.02545780  0.27836748  1  0  0.053916  0  0.971969  0  0  0.062981  0  1.050673  0  0  0.063282  0  1.050415  0  0  0.085268  0.06254  0  1.051131  0
H  H38  1  0.93602783  0.07838490  0.92968117  1  0  0.072728  0  0.924912  0  0  0.082735  0  0.99514  0  0  0.08406  0  0.993694  0  0  0.099215  0.081641  0  0.99639  0
H  H39  1  0.06397705  0.92161781  0.42968102  1  0  0.072686  0  0.924896  0  0  0.08273  0  0.995107  0  0  0.084054  0  0.99366  0  0  0.099207  0.081635  0  0.996357  0
H  H40  1  0.18784915  0.15691311  0.92564160  1  0  0.071203  0  0.923719  0  0  0.084003  0  0.990748  0  0  0.084874  0  0.989532  0  0  0.100731  0.083256  0  0.991778  0
H  H41  1  0.81215506  0.84308762  0.42564219  1  0  0.071216  0  0.923691  0  0  0.084008  0  0.990741  0  0  0.084877  0  0.989529  0  0  0.100741  0.083261  0  0.991771  0
H  H42  1  0.10558034  0.38207992  0.92052414  1  0  0.067617  0  0.941314  0  0  0.078575  0  1.011719  0  0  0.079321  0  1.011234  0  0  0.092899  0.077726  0  1.012379  0
H  H43  1  0.89442417  0.61792182  0.42052394  1  0  0.067638  0  0.941303  0  0  0.078613  0  1.011702  0  0  0.079358  0  1.011218  0  0  0.092924  0.077763  0  1.012364  0
H  H44  1  0.02092675  0.28926627  0.02606667  1  0  0.071544  0  0.975766  0  0  0.082307  0  1.045058  0  0  0.082646  0  1.045227  0  0  0.085099  0.081938  0  1.045125  0
H  H45  1  0.97907630  0.71073468  0.52606696  1  0  0.071562  0  0.975759  0  0  0.082341  0  1.045058  0  0  0.08268  0  1.045228  0  0  0.085125  0.081973  0  1.045127  0
C  C46  1  0.75131392  0.41338633  0.95362086  1  0  0.059587  0  3.608282  0  0  -0.001093  0  3.874553  0  0  0.005867  0  3.880225  0  0  -0.079708  -0.005882  0  3.870878  0
C  C47  1  0.24868904  0.58661430  0.45362175  1  0  0.059623  0  3.608411  0  0  -0.001057  0  3.874662  0  0  0.005923  0  3.880305  0  0  -0.079652  -0.005846  0  3.870991  0
C  C48  1  0.56330288  0.41206085  0.90417081  1  0  0.055559  0  3.606493  0  0  -0.009374  0  3.877935  0  0  -0.002721  0  3.883848  0  0  -0.080572  -0.013806  0  3.873898  0
C  C49  1  0.43669602  0.58793694  0.40417130  1  0  0.055607  0  3.606589  0  0  -0.009341  0  3.877981  0  0  -0.002696  0  3.883891  0  0  -0.080533  -0.013785  0  3.873965  0
C  C50  1  0.42758389  0.40239820  0.74320834  1  0  0.050405  0  3.606853  0  0  -0.011174  0  3.875648  0  0  -0.004489  0  3.881317  0  0  -0.088545  -0.01575  0  3.871832  0
C  C51  1  0.57241444  0.59760107  0.24321047  1  0  0.050511  0  3.606767  0  0  -0.011144  0  3.875631  0  0  -0.004455  0  3.881292  0  0  -0.088522  -0.015722  0  3.871817  0
C  C52  1  0.46794505  0.35617973  0.64483962  1  0  0.048636  0  3.608261  0  0  -0.015676  0  3.876825  0  0  -0.008883  0  3.882461  0  0  -0.081769  -0.020304  0  3.873192  0
C  C53  1  0.53205381  0.64381885  0.14484087  1  0  0.048691  0  3.608136  0  0  -0.015578  0  3.876625  0  0  -0.008813  0  3.882255  0  0  -0.081747  -0.020207  0  3.872993  0
C  C54  1  0.52773869  0.15241787  0.56917660  1  0  0.057437  0  3.579801  0  0  -0.002063  0  3.842901  0  0  0.004637  0  3.849263  0  0  -0.080283  -0.006651  0  3.838668  0
C  C55  1  0.47225975  0.84758094  0.06917732  1  0  0.057328  0  3.579611  0  0  -0.002066  0  3.842718  0  0  0.004599  0  3.849091  0  0  -0.080313  -0.006653  0  3.838494  0
C  C56  1  0.73605515  0.14632529  0.55775970  1  0  0.037642  0  3.62025  0  0  -0.026089  0  3.891742  0  0  -0.019386  0  3.897106  0  0  -0.089884  -0.030782  0  3.888604  0
C  C57  1  0.26394248  0.85367553  0.05776004  1  0  0.03767  0  3.620141  0  0  -0.026129  0  3.891692  0  0  -0.019419  0  3.897055  0  0  -0.089939  -0.030836  0  3.888575  0
C  C58  1  0.99462997  0.08701702  0.64669345  1  0  0.061888  0  3.601897  0  0  0.000999  0  3.871109  0  0  0.00765  0  3.877032  0  0  -0.077524  -0.003522  0  3.86725  0
C  C59  1  0.00536883  0.91298552  0.14669322  1  0  0.061971  0  3.601822  0  0  0.00109  0  3.870966  0  0  0.007736  0  3.87689  0  0  -0.077543  -0.003435  0  3.867114  0
C  C60  1  0.04989902  0.06516066  0.74817341  1  0  0.046943  0  3.606734  0  0  -0.018138  0  3.876628  0  0  -0.011524  0  3.882672  0  0  -0.087142  -0.022486  0  3.872331  0
C  C61  1  0.95010173  0.93484159  0.24817334  1  0  0.046915  0  3.606846  0  0  -0.018131  0  3.876685  0  0  -0.011514  0  3.88272  0  0  -0.087116  -0.022473  0  3.872385  0
C  C62  1  0.04343472  0.16701246  0.90552330  1  0  0.056749  0  3.603247  0  0  -0.008789  0  3.877032  0  0  -0.001895  0  3.882036  0  0  -0.075557  -0.01335  0  3.873744  0
C  C63  1  0.95657003  0.83299032  0.40552274  1  0  0.056742  0  3.603084  0  0  -0.008838  0  3.876984  0  0  -0.001945  0  3.881982  0  0  -0.075604  -0.013399  0  3.873697  0
C  C64  1  0.00558358  0.29238968  0.94857002  1  0  0.052577  0  3.611555  0  0  -0.00992  0  3.878026  0  0  -0.003416  0  3.884195  0  0  -0.084054  -0.014387  0  3.874306  0
C  C65  1  0.99441935  0.70761097  0.44857050  1  0  0.052595  0  3.6114  0  0  -0.009978  0  3.877991  0  0  -0.003474  0  3.884158  0  0  -0.084081  -0.014443  0  3.874273  0
Cl  Cl66  1  0.97307909  0.43968154  0.67412123  1  0  -0.548333  0  0.996944  0  0  -0.484651  0  1.28989  0  0  -0.504518  0  1.267585  0  0  -0.276681  -0.47068  0  1.304768  0
Cl  Cl67  1  0.02691854  0.56031694  0.17412037  1  0  -0.548334  0  0.996936  0  0  -0.484659  0  1.289872  0  0  -0.504524  0  1.267571  0  0  -0.276695  -0.470686  0  1.304734  0
Cl  Cl68  1  0.79866123  0.75831433  0.88421383  1  0  -0.55366  0  0.996791  0  0  -0.482419  0  1.280636  0  0  -0.503341  0  1.259264  0  0  -0.282886  -0.467486  0  1.29499  0
Cl  Cl69  1  0.20133757  0.24168352  0.38421466  1  0  -0.553659  0  0.996763  0  0  -0.482426  0  1.280611  0  0  -0.503348  0  1.259241  0  0  -0.282886  -0.467496  0  1.294965  0
Cl  Cl70  1  0.23578496  0.81926075  0.65534973  1  0  -0.540244  0  1.064326  0  0  -0.469537  0  1.357155  0  0  -0.490316  0  1.335042  0  0  -0.270623  -0.454597  0  1.37178  0
Cl  Cl71  1  0.76421322  0.18073978  0.15535023  1  0  -0.540235  0  1.064312  0  0  -0.469535  0  1.357152  0  0  -0.490309  0  1.335029  0  0  -0.270627  -0.454598  0  1.371773  0
Cl  Cl72  1  0.24904717  0.64352312  0.87104566  1  0  -0.557885  0  1.040804  0  0  -0.486289  0  1.332175  0  0  -0.507288  0  1.310914  0  0  -0.275719  -0.470914  0  1.34625  0
Cl  Cl73  1  0.75095467  0.35647578  0.37104506  1  0  -0.557889  0  1.04082  0  0  -0.48631  0  1.332216  0  0  -0.507308  0  1.310955  0  0  -0.275735  -0.470939  0  1.346293  0
Cl  Cl74  1  0.69063957  0.71803155  0.64206227  1  0  -0.537191  0  1.003342  0  0  -0.460591  0  1.282623  0  0  -0.481594  0  1.260844  0  0  -0.279452  -0.445466  0  1.298043  0
Cl  Cl75  1  0.30935788  0.28196703  0.14206249  1  0  -0.537185  0  1.003347  0  0  -0.460578  0  1.282619  0  0  -0.481583  0  1.26084  0  0  -0.279447  -0.44546  0  1.29804  0
Cl  Cl76  1  0.52399428  0.02792141  0.85173943  1  0  -0.539953  0  1.005966  0  0  -0.477249  0  1.299956  0  0  -0.49665  0  1.27608  0  0  -0.276864  -0.463497  0  1.315924  0
Cl  Cl77  1  0.47601058  0.97207856  0.35174059  1  0  -0.5399  0  1.005963  0  0  -0.477201  0  1.299969  0  0  -0.496608  0  1.276102  0  0  -0.276832  -0.463451  0  1.315933  0
O  O78  1  0.81142313  0.29609743  0.92469163  1  0  -0.330656  0  2.379042  0  0  -0.23543  0  2.622303  0  0  -0.25691  0  2.626343  0  0  -0.23806  -0.220564  0  2.619228  0
O  O79  1  0.18858246  0.70390331  0.42469287  1  0  -0.330726  0  2.379021  0  0  -0.235434  0  2.622264  0  0  -0.25692  0  2.626296  0  0  -0.238109  -0.22057  0  2.619189  0
O  O80  1  0.59603693  0.41239236  0.80259341  1  0  -0.356051  0  2.363176  0  0  -0.258445  0  2.60841  0  0  -0.281216  0  2.613557  0  0  -0.239454  -0.242462  0  2.604398  0
O  O81  1  0.40396206  0.58760773  0.30259457  1  0  -0.356125  0  2.363305  0  0  -0.25851  0  2.608532  0  0  -0.281282  0  2.613683  0  0  -0.239457  -0.242527  0  2.604522  0
O  O82  1  0.49545242  0.22263841  0.65481748  1  0  -0.337539  0  2.329695  0  0  -0.241013  0  2.572289  0  0  -0.263008  0  2.576485  0  0  -0.237867  -0.225397  0  2.568824  0
O  O83  1  0.50454510  0.77736014  0.15481840  1  0  -0.337485  0  2.329587  0  0  -0.241069  0  2.572226  0  0  -0.262983  0  2.576368  0  0  -0.237872  -0.225455  0  2.568763  0
O  O84  1  0.79463738  0.09131651  0.64444852  1  0  -0.341697  0  2.337296  0  0  -0.249963  0  2.585683  0  0  -0.271637  0  2.589529  0  0  -0.238826  -0.235145  0  2.583459  0
O  O85  1  0.20536280  0.90868605  0.14444936  1  0  -0.341763  0  2.337218  0  0  -0.250003  0  2.585602  0  0  -0.27168  0  2.589447  0  0  -0.238797  -0.23518  0  2.583385  0
O  O86  1  0.03140292  0.17929765  0.80357695  1  0  -0.33845  0  2.374336  0  0  -0.240371  0  2.616361  0  0  -0.262427  0  2.621219  0  0  -0.235648  -0.22518  0  2.612596  0
O  O87  1  0.96859987  0.82070542  0.30357643  1  0  -0.338412  0  2.374329  0  0  -0.240361  0  2.616391  0  0  -0.262407  0  2.621231  0  0  -0.235645  -0.225172  0  2.612626  0
