# generated using pymatgen
data_AgH12C12N3O2
_symmetry_space_group_name_H-M   'P 1'
_cell_length_a   6.76156627
_cell_length_b   6.76173620
_cell_length_c   14.34161393
_cell_angle_alpha   76.09222853
_cell_angle_beta   76.09177528
_cell_angle_gamma   80.85621623
_symmetry_Int_Tables_number   1
_chemical_formula_structural   AgH12C12N3O2
_chemical_formula_sum   'Ag2 H24 C24 N6 O4'
_cell_volume   614.24539525
_cell_formula_units_Z   2
loop_
 _symmetry_equiv_pos_site_id
 _symmetry_equiv_pos_as_xyz
  1  'x, y, z'
loop_
 _atom_site_type_symbol
 _atom_site_label
 _atom_site_symmetry_multiplicity
 _atom_site_fract_x
 _atom_site_fract_y
 _atom_site_fract_z
 _atom_site_occupancy
 _atom_site_hle17_bader_spin_density
 _atom_site_hle17_ddec_charge
 _atom_site_hle17_ddec_spin_density
 _atom_site_hle17_ddec_sum_bond_order
 _atom_site_hle17_magmom
 _atom_site_hse06_10hf_bader_spin_density
 _atom_site_hse06_10hf_ddec_charge
 _atom_site_hse06_10hf_ddec_spin_density
 _atom_site_hse06_10hf_ddec_sum_bond_order
 _atom_site_hse06_10hf_magmom
 _atom_site_hse06_bader_spin_density
 _atom_site_hse06_ddec_charge
 _atom_site_hse06_ddec_spin_density
 _atom_site_hse06_ddec_sum_bond_order
 _atom_site_hse06_magmom
 _atom_site_pbe_bader_spin_density
 _atom_site_pbe_cm5_charge
 _atom_site_pbe_ddec_charge
 _atom_site_pbe_ddec_spin_density
 _atom_site_pbe_ddec_sum_bond_order
 _atom_site_pbe_magmom
Ag  Ag0  1  0.07217092  0.48927384  0.89423198  1  0  0.508155  0  1.38652  0  0  0.359032  0  1.810719  0  0  0.393536  0  1.765503  0  0  0.450312  0.335244  0  1.841635  0
Ag  Ag1  1  0.48926426  0.07217039  0.39423798  1  0  0.508169  0  1.386412  0  0  0.359055  0  1.810601  0  0  0.39356  0  1.765388  0  0  0.45032  0.335294  0  1.841472  0
H  H2  1  0.71821521  0.25230934  0.86343820  1  0  0.114612  0  0.943006  0  0  0.12848  0  1.000019  0  0  0.132698  0  0.997243  0  0  0.105722  0.125458  0  1.002172  0
H  H3  1  0.25231834  0.71820842  0.36342926  1  0  0.11459  0  0.942912  0  0  0.128434  0  0.999963  0  0  0.132652  0  0.997187  0  0  0.105707  0.125411  0  1.002119  0
H  H4  1  0.89596581  0.02825216  0.59462749  1  0  0.104078  0  0.984028  0  0  0.114966  0  1.047925  0  0  0.117788  0  1.048247  0  0  0.100693  0.112987  0  1.047814  0
H  H5  1  0.02824325  0.89593297  0.09462787  1  0  0.104076  0  0.984169  0  0  0.115055  0  1.047953  0  0  0.117875  0  1.048279  0  0  0.10072  0.113076  0  1.047838  0
H  H6  1  0.99737125  0.68831149  0.69345697  1  0  0.060629  0  0.948074  0  0  0.074171  0  1.01053  0  0  0.076039  0  1.008034  0  0  0.109096  0.07275  0  1.012413  0
H  H7  1  0.68829768  0.99736735  0.19345718  1  0  0.060663  0  0.948033  0  0  0.074202  0  1.010485  0  0  0.076069  0  1.007989  0  0  0.109079  0.072781  0  1.012365  0
H  H8  1  0.68160723  0.48937119  0.71126133  1  0  0.108047  0  0.965858  0  0  0.129199  0  1.028486  0  0  0.130772  0  1.027769  0  0  0.090033  0.128053  0  1.029017  0
H  H9  1  0.48937286  0.68157626  0.21125862  1  0  0.10804  0  0.96587  0  0  0.129203  0  1.028506  0  0  0.130781  0  1.027788  0  0  0.090043  0.128056  0  1.029036  0
H  H10  1  0.63058561  0.37444036  0.62153275  1  0  0.129963  0  0.941197  0  0  0.151493  0  1.000328  0  0  0.15379  0  0.999205  0  0  0.099005  0.14986  0  1.001115  0
H  H11  1  0.37444165  0.63054862  0.12153288  1  0  0.129844  0  0.941197  0  0  0.151447  0  1.000251  0  0  0.153743  0  0.99913  0  0  0.098992  0.149816  0  1.001031  0
H  H12  1  0.87989349  0.43716428  0.61090644  1  0  0.102328  0  0.954383  0  0  0.124295  0  1.018493  0  0  0.125985  0  1.017763  0  0  0.0911  0.123066  0  1.019043  0
H  H13  1  0.43718507  0.87985382  0.11089778  1  0  0.102363  0  0.954316  0  0  0.124274  0  1.018519  0  0  0.125965  0  1.017787  0  0  0.091104  0.123041  0  1.019072  0
H  H14  1  0.24542157  0.33404794  0.69714551  1  0  0.080234  0  0.935501  0  0  0.089729  0  1.000546  0  0  0.09299  0  0.996607  0  0  0.114801  0.087231  0  1.003484  0
H  H15  1  0.33404458  0.24540052  0.19713933  1  0  0.080215  0  0.935427  0  0  0.089701  0  1.000481  0  0  0.093042  0  0.996452  0  0  0.114762  0.087205  0  1.003424  0
H  H16  1  0.46419357  0.69748023  0.76564453  1  0  0.090529  0  0.963194  0  0  0.100754  0  1.029596  0  0  0.104196  0  1.025481  0  0  0.104073  0.09814  0  1.032711  0
H  H17  1  0.69746276  0.46420288  0.26564691  1  0  0.090663  0  0.96318  0  0  0.100911  0  1.029551  0  0  0.104346  0  1.025436  0  0  0.104074  0.098297  0  1.032669  0
H  H18  1  0.40185417  0.72192856  0.94408646  1  0  0.111513  0  0.940623  0  0  0.124575  0  0.994301  0  0  0.127672  0  0.993431  0  0  0.109739  0.122259  0  0.995234  0
H  H19  1  0.72193089  0.40186427  0.44408229  1  0  0.111575  0  0.940744  0  0  0.124651  0  0.99439  0  0  0.127747  0  0.993523  0  0  0.109811  0.122348  0  0.995313  0
H  H20  1  0.26449311  0.06588535  0.98715348  1  0  0.076419  0  0.965113  0  0  0.084225  0  1.033517  0  0  0.086771  0  1.030923  0  0  0.11088  0.082322  0  1.035451  0
H  H21  1  0.06588775  0.26450234  0.48714544  1  0  0.076402  0  0.965054  0  0  0.084204  0  1.033462  0  0  0.086752  0  1.030868  0  0  0.110837  0.082301  0  1.0354  0
H  H22  1  0.74234549  0.00078075  0.01011900  1  0  0.31678  0  0.886431  0  0  0.3138  0  0.928071  0  0  0.318868  0  0.925066  0  0  0.314083  0.310237  0  0.930161  0
H  H23  1  0.00079077  0.74235076  0.51011744  1  0  0.316707  0  0.886543  0  0  0.313742  0  0.928164  0  0  0.318808  0  0.925168  0  0  0.314035  0.310179  0  0.930258  0
H  H24  1  0.82507180  0.73994773  0.01246154  1  0  0.339429  0  0.930357  0  0  0.319777  0  0.998446  0  0  0.328099  0  0.99118  0  0  0.290319  0.31387  0  1.003579  0
H  H25  1  0.73995233  0.82510256  0.51246090  1  0  0.339535  0  0.930288  0  0  0.319892  0  0.99835  0  0  0.328214  0  0.991084  0  0  0.29035  0.313984  0  1.003488  0
C  C26  1  0.83516980  0.93175590  0.87484947  1  0  0.48499  0  3.852352  0  0  0.459072  0  4.106853  0  0  0.479105  0  4.122852  0  0  0.221981  0.445754  0  4.095403  0
C  C27  1  0.93176059  0.83517440  0.37484157  1  0  0.485068  0  3.85222  0  0  0.459081  0  4.10684  0  0  0.479108  0  4.122848  0  0  0.221963  0.445765  0  4.095391  0
C  C28  1  0.77917759  0.13095429  0.82275512  1  0  -0.303164  0  3.68651  0  0  -0.323809  0  3.931159  0  0  -0.33678  0  3.951755  0  0  -0.105281  -0.315377  0  3.917281  0
C  C29  1  0.13095757  0.77916703  0.32274733  1  0  -0.302984  0  3.686598  0  0  -0.323569  0  3.931193  0  0  -0.336537  0  3.951792  0  0  -0.105194  -0.315137  0  3.917309  0
C  C30  1  0.80094563  0.17050871  0.72181761  1  0  0.213535  0  3.782729  0  0  0.235476  0  4.017948  0  0  0.243277  0  4.040758  0  0  0.003671  0.230443  0  4.002363  0
C  C31  1  0.17051344  0.80093674  0.22181365  1  0  0.213214  0  3.78312  0  0  0.235199  0  4.018289  0  0  0.242997  0  4.041101  0  0  0.003604  0.230168  0  4.0027  0
C  C32  1  0.87916782  0.00685154  0.67363339  1  0  -0.216591  0  3.737341  0  0  -0.239647  0  3.991668  0  0  -0.250692  0  4.01501  0  0  -0.113738  -0.232548  0  3.976237  0
C  C33  1  0.00685073  0.87915022  0.17362905  1  0  -0.216465  0  3.737348  0  0  -0.239602  0  3.99165  0  0  -0.250646  0  4.014993  0  0  -0.113698  -0.232502  0  3.976211  0
C  C34  1  0.93328395  0.81745324  0.72838192  1  0  0.135455  0  3.793014  0  0  0.102334  0  4.050388  0  0  0.112103  0  4.069855  0  0  0.028767  0.096031  0  4.037072  0
C  C35  1  0.81744744  0.93327806  0.22837928  1  0  0.13532  0  3.793075  0  0  0.102201  0  4.050483  0  0  0.111973  0  4.069945  0  0  0.028724  0.095898  0  4.037166  0
C  C36  1  0.74439674  0.37895341  0.66416440  1  0  -0.337537  0  3.695423  0  0  -0.41987  0  3.930132  0  0  -0.42326  0  3.938163  0  0  -0.237304  -0.41726  0  3.924448  0
C  C37  1  0.37896296  0.74437149  0.16415953  1  0  -0.337343  0  3.695286  0  0  -0.41976  0  3.930077  0  0  -0.423156  0  3.938114  0  0  -0.237278  -0.417153  0  3.9244  0
C  C38  1  0.28110221  0.19613410  0.75048541  1  0  0.113564  0  3.691632  0  0  0.07472  0  3.93778  0  0  0.082487  0  3.957182  0  0  0.047193  0.0699  0  3.924622  0
C  C39  1  0.19613359  0.28111347  0.25047742  1  0  0.113502  0  3.691594  0  0  0.074675  0  3.937728  0  0  0.08238  0  3.957113  0  0  0.047205  0.069845  0  3.92458  0
C  C40  1  0.36354744  0.01534939  0.71846268  1  0  -0.10235  0  3.734794  0  0  -0.073431  0  3.961405  0  0  -0.085708  0  3.987029  0  0  -0.013751  -0.06588  0  3.94468  0
C  C41  1  0.01534274  0.36357041  0.21845488  1  0  -0.102014  0  3.734671  0  0  -0.073077  0  3.961243  0  0  -0.085361  0  3.986895  0  0  -0.013715  -0.065527  0  3.94452  0
C  C42  1  0.40413896  0.84071550  0.78933018  1  0  -0.01781  0  3.714083  0  0  -0.048256  0  3.965662  0  0  -0.042723  0  3.981994  0  0  -0.065444  -0.051547  0  3.954716  0
C  C43  1  0.84070730  0.40415388  0.28933498  1  0  -0.018038  0  3.714121  0  0  -0.048517  0  3.965712  0  0  -0.042974  0  3.982027  0  0  -0.065358  -0.051807  0  3.954768  0
C  C44  1  0.36946554  0.85463267  0.88736382  1  0  -0.121012  0  3.741403  0  0  -0.132759  0  3.998739  0  0  -0.140136  0  4.018758  0  0  -0.087759  -0.128223  0  3.985547  0
C  C45  1  0.85463161  0.36948701  0.38736496  1  0  -0.121112  0  3.741705  0  0  -0.132891  0  3.9991  0  0  -0.140265  0  4.019108  0  0  -0.087925  -0.128368  0  3.985917  0
C  C46  1  0.29149744  0.04298773  0.91223007  1  0  0.123177  0  3.698923  0  0  0.088425  0  3.95341  0  0  0.097248  0  3.970335  0  0  0.038734  0.082715  0  3.941902  0
C  C47  1  0.04298211  0.29150948  0.41222474  1  0  0.123162  0  3.698831  0  0  0.088436  0  3.953331  0  0  0.097255  0  3.970254  0  0  0.038814  0.082723  0  3.941835  0
C  C48  1  0.41074488  0.01221974  0.61032359  1  0  0.625704  0  3.9802  0  0  0.576978  0  4.272028  0  0  0.610242  0  4.268383  0  0  0.183867  0.554494  0  4.273723  0
C  C49  1  0.01218821  0.41074414  0.11031642  1  0  0.625441  0  3.980221  0  0  0.576694  0  4.272104  0  0  0.609957  0  4.268469  0  0  0.183817  0.554209  0  4.273791  0
N  N50  1  0.91415488  0.77686298  0.82713093  1  0  -0.436223  0  3.291626  0  0  -0.34891  0  3.57112  0  0  -0.374302  0  3.586218  0  0  -0.367384  -0.331735  0  3.560286  0
N  N51  1  0.77686843  0.91415915  0.32712587  1  0  -0.436253  0  3.291743  0  0  -0.348946  0  3.571284  0  0  -0.374336  0  3.586384  0  0  -0.367442  -0.331776  0  3.560453  0
N  N52  1  0.81550241  0.89013192  0.97374673  1  0  -0.689143  0  3.128715  0  0  -0.65321  0  3.355684  0  0  -0.675123  0  3.355498  0  0  -0.580856  -0.637706  0  3.355372  0
N  N53  1  0.89013882  0.81551095  0.47374233  1  0  -0.689241  0  3.128622  0  0  -0.653303  0  3.355651  0  0  -0.675215  0  3.355459  0  0  -0.580823  -0.637804  0  3.355347  0
N  N54  1  0.24439543  0.21061244  0.84529797  1  0  -0.313371  0  3.334312  0  0  -0.228939  0  3.619969  0  0  -0.249058  0  3.636479  0  0  -0.346739  -0.215375  0  3.608327  0
N  N55  1  0.21061374  0.24440228  0.34529305  1  0  -0.313319  0  3.334152  0  0  -0.228902  0  3.619821  0  0  -0.249026  0  3.636362  0  0  -0.346753  -0.215339  0  3.608188  0
O  O56  1  0.38556311  0.18337770  0.55093612  1  0  -0.64427  0  1.946172  0  0  -0.582929  0  2.189623  0  0  -0.610759  0  2.178654  0  0  -0.347923  -0.563327  0  2.196366  0
O  O57  1  0.18334580  0.38554588  0.05092868  1  0  -0.644111  0  1.94619  0  0  -0.582783  0  2.189694  0  0  -0.610595  0  2.178692  0  0  -0.347875  -0.563179  0  2.196434  0
O  O58  1  0.47522807  0.84079190  0.58598758  1  0  -0.657653  0  1.924334  0  0  -0.599723  0  2.147084  0  0  -0.625113  0  2.137167  0  0  -0.347887  -0.581823  0  2.153272  0
O  O59  1  0.84073393  0.47519471  0.08599302  1  0  -0.657681  0  1.924163  0  0  -0.599722  0  2.146899  0  0  -0.625128  0  2.137014  0  0  -0.347904  -0.58182  0  2.15308  0
