# generated using pymatgen
data_CuH16C11(N2Cl)2
_symmetry_space_group_name_H-M   'P 1'
_cell_length_a   8.69108490
_cell_length_b   8.71789610
_cell_length_c   9.63089695
_cell_angle_alpha   80.90060776
_cell_angle_beta   63.68447802
_cell_angle_gamma   87.67676660
_symmetry_Int_Tables_number   1
_chemical_formula_structural   CuH16C11(N2Cl)2
_chemical_formula_sum   'Cu2 H32 C22 N8 Cl4'
_cell_volume   645.49868016
_cell_formula_units_Z   2
loop_
 _symmetry_equiv_pos_site_id
 _symmetry_equiv_pos_as_xyz
  1  'x, y, z'
loop_
 _atom_site_type_symbol
 _atom_site_label
 _atom_site_symmetry_multiplicity
 _atom_site_fract_x
 _atom_site_fract_y
 _atom_site_fract_z
 _atom_site_occupancy
 _atom_site_hle17_ddec_charge
 _atom_site_hle17_ddec_spin_density
 _atom_site_hle17_ddec_sum_bond_order
 _atom_site_hle17_magmom
 _atom_site_hse06_10hf_ddec_charge
 _atom_site_hse06_10hf_ddec_spin_density
 _atom_site_hse06_10hf_ddec_sum_bond_order
 _atom_site_hse06_10hf_magmom
 _atom_site_hse06_ddec_charge
 _atom_site_hse06_ddec_spin_density
 _atom_site_hse06_ddec_sum_bond_order
 _atom_site_hse06_magmom
 _atom_site_pbe_cm5_charge
 _atom_site_pbe_ddec_charge
 _atom_site_pbe_ddec_spin_density
 _atom_site_pbe_ddec_sum_bond_order
 _atom_site_pbe_magmom
Cu  Cu0  1  0.36581959  0.08312751  0.89948453  1  0.723961  -0.624516  1.926033  -0.457  0.705855  -0.728967  2.333273  -0.576  0.797469  -0.795614  2.256847  -0.66  0.606585  0.65325  -0.687093  2.382908  -0.527
Cu  Cu1  1  0.63417987  0.91687295  0.10051554  1  0.723988  -0.624517  1.925984  -0.457  0.70588  -0.728974  2.33324  -0.576  0.797507  -0.79562  2.256798  -0.66  0.606582  0.653261  -0.687096  2.382864  -0.527
H  H2  1  0.02707339  0.18404729  0.90810644  1  0.281006  0.00024  0.943397  0.0  0.260822  -0.000282  1.014095  0.0  0.268404  -0.000173  1.00798  0.0  0.291351  0.255404  -0.000369  1.018608  0.0
H  H3  1  0.97292606  0.81595317  0.09189363  1  0.280983  0.000241  0.943391  0.0  0.260799  -0.000283  1.014093  0.0  0.268381  -0.000173  1.007978  0.0  0.291345  0.255381  -0.000369  1.018606  0.0
H  H4  1  0.24711768  0.90019913  0.24648608  1  0.278516  0.00076  0.953005  0.0  0.256643  0.000229  1.026102  0.0  0.263918  0.000218  1.020825  0.0  0.28962  0.251487  0.000206  1.030042  0.0
H  H5  1  0.75288297  0.09979901  0.75351387  1  0.278572  0.000753  0.952948  0.0  0.256664  0.000229  1.026054  0.0  0.26394  0.000218  1.020777  0.0  0.289644  0.25151  0.000206  1.029996  0.0
H  H6  1  0.69670690  0.88914487  0.38818205  1  0.116273  -0.000217  0.944759  0.0  0.130081  -0.00019  1.018171  0.0  0.132264  -3.7e-05  1.016231  0.0  0.092228  0.128579  -0.000355  1.019402  0.0
H  H7  1  0.30329516  0.11085672  0.61181472  1  0.116236  -0.000203  0.944816  0.0  0.130042  -0.00019  1.018236  0.0  0.132228  -3.7e-05  1.016292  0.0  0.092212  0.128541  -0.000355  1.019469  0.0
H  H8  1  0.57330437  0.82655351  0.59267939  1  0.124056  0.000403  0.955218  0.0  0.144262  0.000303  1.015484  0.0  0.146343  0.000304  1.01494  0.0  0.092241  0.142851  0.000277  1.015731  0.0
H  H9  1  0.42670026  0.17344810  0.40731738  1  0.124029  0.000407  0.955212  0.0  0.14423  0.000304  1.015471  0.0  0.146309  0.000304  1.01493  0.0  0.092223  0.142819  0.000277  1.01572  0.0
H  H10  1  0.65842177  0.68745028  0.46347006  1  0.112518  0.000412  0.954053  0.0  0.131839  0.000268  1.017949  0.0  0.133629  0.000308  1.018188  0.0  0.092588  0.130538  0.000238  1.017854  0.0
H  H11  1  0.34158286  0.31255133  0.53652671  1  0.112459  0.000422  0.954136  0.0  0.131781  0.000267  1.018024  0.0  0.133568  0.000308  1.018267  0.0  0.092577  0.130482  0.000238  1.01793  0.0
H  H12  1  0.94125934  0.66704989  0.53702802  1  0.109968  -3e-05  0.947956  0.0  0.130995  -1.3e-05  1.008173  0.0  0.132692  7.1e-05  1.007626  0.0  0.093052  0.129825  -7.1e-05  1.008567  0.0
H  H13  1  0.05873622  0.33294945  0.46297586  1  0.109951  -3.4e-05  0.947957  0.0  0.130974  -1.3e-05  1.008181  0.0  0.132672  7.1e-05  1.007633  0.0  0.093045  0.129805  -7.1e-05  1.008574  0.0
H  H14  1  0.90923420  0.81156912  0.65699630  1  0.127952  9.9e-05  0.957002  0.0  0.144476  -1.6e-05  1.023681  0.0  0.147087  2.9e-05  1.022274  0.0  0.091491  0.142671  -5.5e-05  1.024653  0.0
H  H15  1  0.09077035  0.18843025  0.34300605  1  0.127915  9.9e-05  0.957006  0.0  0.144446  -1.6e-05  1.023671  0.0  0.147056  2.8e-05  1.022264  0.0  0.09148  0.142631  -5.5e-05  1.024651  0.0
H  H16  1  0.94405312  0.86564241  0.45897139  1  0.125748  -0.000525  0.945959  0.0  0.14708  -0.000583  1.003714  0.0  0.148957  -0.000437  1.003566  0.0  0.094798  0.145761  -0.000701  1.003854  0.0
H  H17  1  0.05594762  0.13435809  0.54103024  1  0.125743  -0.000528  0.945941  0.0  0.147071  -0.000583  1.003705  0.0  0.148946  -0.000437  1.00356  0.0  0.094813  0.145753  -0.000701  1.003843  0.0
H  H18  1  0.29380729  0.75139625  0.77878887  1  0.085112  0.000414  0.952487  0.0  0.098222  0.000279  1.021333  0.0  0.099292  0.000263  1.020296  0.0  0.089788  0.097328  0.000281  1.022223  0.0
H  H19  1  0.70619336  0.24860189  0.22121108  1  0.085132  0.000415  0.952446  0.0  0.098215  0.000279  1.021337  0.0  0.099286  0.000263  1.020295  0.0  0.08978  0.097322  0.000281  1.022227  0.0
H  H20  1  0.08213820  0.74763432  0.80247833  1  0.085842  -0.000416  0.964104  -0.001  0.097047  -0.000286  1.034523  0.0  0.098403  -0.000163  1.034096  0.0  0.087423  0.09619  -0.000406  1.034706  -0.001
H  H21  1  0.91786263  0.25236850  0.19752290  1  0.085884  -0.000416  0.964046  -0.001  0.097075  -0.000286  1.034482  0.0  0.09843  -0.000163  1.034053  0.0  0.087441  0.096221  -0.000406  1.034666  -0.001
H  H22  1  0.59421634  0.46838042  0.66009415  1  0.111023  0.000352  0.952556  0.0  0.128579  0.000173  1.019332  0.0  0.130268  0.000261  1.019449  0.0  0.090391  0.127367  0.00011  1.019281  0.0
H  H23  1  0.40578059  0.53162119  0.33990571  1  0.110997  0.000353  0.952576  0.0  0.128555  0.000173  1.019358  0.0  0.13024  0.000261  1.019479  0.0  0.090378  0.127343  0.00011  1.019308  0.0
H  H24  1  0.50509096  0.59432089  0.80288725  1  0.122067  -0.000589  0.980355  0.0  0.144837  -0.000624  1.038028  0.0  0.147486  -0.000422  1.03663  0.0  0.083546  0.143202  -0.000786  1.038683  0.0
H  H25  1  0.49490726  0.40568073  0.19711313  1  0.122054  -0.000613  0.980386  0.0  0.144849  -0.000623  1.038024  0.0  0.1475  -0.000421  1.036627  0.0  0.083563  0.143215  -0.000786  1.038682  0.0
H  H26  1  0.53874067  0.39613591  0.86012343  1  0.12295  -0.000834  0.972854  0.0  0.140623  -0.000882  1.038606  0.0  0.142634  -0.000619  1.038212  0.0  0.08596  0.139147  -0.001079  1.03915  0.0
H  H27  1  0.46125883  0.60386571  0.13987644  1  0.122919  -0.00083  0.972855  0.0  0.140588  -0.000882  1.038631  0.0  0.142599  -0.000619  1.038235  0.0  0.085947  0.139112  -0.001079  1.039173  0.0
H  H28  1  0.79010898  0.37089579  0.91534960  1  0.128512  0.00011  0.96119  0.0  0.146295  -1e-06  1.024809  0.0  0.148982  2.1e-05  1.023264  0.0  0.090521  0.144438  -2.5e-05  1.025898  0.0
H  H29  1  0.20989043  0.62910351  0.08465066  1  0.128497  0.000104  0.961204  0.0  0.146282  -1e-06  1.024823  0.0  0.148969  2.1e-05  1.023277  0.0  0.090525  0.144425  -2.5e-05  1.025912  0.0
H  H30  1  0.84483488  0.57323324  0.85391725  1  0.129883  -4.2e-05  0.940002  0.0  0.151217  -0.00016  0.996602  0.0  0.152839  -9.1e-05  0.996846  0.0  0.100029  0.150021  -0.000206  0.996513  0.0
H  H31  1  0.15516329  0.42676717  0.14608022  1  0.129867  -5.7e-05  0.940022  0.0  0.151211  -0.000159  0.996601  0.0  0.152834  -9.1e-05  0.996844  0.0  0.100026  0.150015  -0.000206  0.996514  0.0
H  H32  1  0.89198129  0.44731199  0.71325347  1  0.110156  -5.8e-05  0.949863  0.0  0.131045  -8e-06  1.010883  0.0  0.132494  7.8e-05  1.010767  0.0  0.092357  0.12998  -6.6e-05  1.011042  0.0
H  H33  1  0.10801679  0.55268610  0.28674440  1  0.110171  -7e-05  0.949818  0.0  0.131054  -8e-06  1.010839  0.0  0.132503  7.8e-05  1.010723  0.0  0.092361  0.129989  -6.6e-05  1.010999  0.0
C  C34  1  0.60095176  0.80226191  0.47558658  1  -0.343622  0.000297  3.702584  0.0  -0.422686  1.9e-05  3.942928  0.0  -0.426235  0.000154  3.949864  0.0  -0.238439  -0.420257  -8.8e-05  3.938037  0.0
C  C35  1  0.39905159  0.19773970  0.52441070  1  -0.343528  0.000254  3.702626  0.0  -0.422562  1.9e-05  3.942963  0.0  -0.426106  0.000154  3.949899  0.0  -0.238418  -0.420134  -8.8e-05  3.938073  0.0
C  C36  1  0.44132279  0.80722144  0.45404299  1  0.21593  0.002676  3.73175  0.0  0.214694  -0.000715  3.997504  -0.002  0.226135  0.001137  4.017757  -0.001  0.098455  0.207421  -0.002048  3.983701  -0.003
C  C37  1  0.55867790  0.19277786  0.54595675  1  0.215901  0.00269  3.731671  0.0  0.214607  -0.000717  3.997503  -0.002  0.226047  0.001139  4.017759  -0.001  0.098444  0.207337  -0.002049  3.983698  -0.003
C  C38  1  0.27086966  0.76360099  0.56620327  1  -0.135811  -0.005855  3.717406  -0.006  -0.124812  -0.002964  3.969538  -0.003  -0.134603  -0.002259  3.993685  -0.003  -0.035435  -0.118132  -0.003596  3.952745  -0.004
C  C39  1  0.72913103  0.23639833  0.43379752  1  -0.135721  -0.005861  3.717392  -0.006  -0.124691  -0.002962  3.969443  -0.003  -0.134482  -0.00226  3.993588  -0.003  -0.035444  -0.11801  -0.003596  3.952647  -0.004
C  C40  1  0.16986652  0.79817857  0.48584835  1  0.21732  0.00092  3.71766  0.0  0.202297  -0.000109  3.987045  -0.001  0.213075  0.001347  4.003972  0.0  0.099864  0.195702  -0.001312  3.974654  -0.002
C  C41  1  0.83013537  0.20181841  0.51415128  1  0.217106  0.000923  3.71782  0.0  0.202137  -0.000109  3.987029  -0.001  0.212914  0.001349  4.003957  0.0  0.099809  0.195542  -0.001311  3.974634  -0.002
C  C42  1  0.98141501  0.78492205  0.53744052  1  -0.347829  -0.000937  3.703859  -0.001  -0.422245  -0.00096  3.938829  -0.001  -0.425655  -0.000666  3.945091  -0.001  -0.234478  -0.419726  -0.001164  3.934245  -0.001
C  C43  1  0.01858564  0.21507611  0.46256046  1  -0.347683  -0.000925  3.70385  -0.001  -0.422128  -0.00096  3.938825  -0.001  -0.425538  -0.000666  3.945087  -0.001  -0.234465  -0.4196  -0.001164  3.934251  -0.001
C  C44  1  0.20987004  0.70185840  0.73754159  1  -0.117691  -0.002165  3.758405  -0.002  -0.158571  -0.001624  3.995367  -0.002  -0.157292  -0.001121  4.009706  -0.001  -0.156059  -0.159261  -0.002093  3.985895  -0.002
C  C45  1  0.79012813  0.29814208  0.26246002  1  -0.117765  -0.002166  3.758352  -0.002  -0.158651  -0.001625  3.995321  -0.002  -0.157365  -0.00112  4.009649  -0.001  -0.156094  -0.159342  -0.002093  3.985851  -0.002
C  C46  1  0.19991074  0.52789864  0.78345987  1  -0.137633  -0.006997  3.700873  -0.007  -0.127081  -0.003138  3.955249  -0.004  -0.137304  -0.002294  3.979329  -0.003  -0.035398  -0.120472  -0.004009  3.938935  -0.004
C  C47  1  0.80008615  0.47210184  0.21654226  1  -0.137671  -0.006992  3.700859  -0.007  -0.12714  -0.00314  3.955228  -0.004  -0.137368  -0.002293  3.97931  -0.003  -0.035423  -0.120533  -0.004009  3.938914  -0.004
C  C48  1  0.32413247  0.43218743  0.80799026  1  0.222263  0.003129  3.727422  0.001  0.220175  -0.000633  3.99562  -0.002  0.232584  0.001328  4.015006  0.0  0.099596  0.212521  -0.002016  3.982301  -0.003
C  C49  1  0.67586442  0.56781305  0.19201187  1  0.222289  0.003138  3.727365  0.001  0.220221  -0.000631  3.995551  -0.002  0.232633  0.001327  4.014936  0.0  0.099638  0.212565  -0.002016  3.982229  -0.003
C  C50  1  0.49997375  0.47509732  0.78163090  1  -0.353913  -0.00203  3.701911  -0.003  -0.431283  -0.002029  3.933965  -0.002  -0.435697  -0.001329  3.940419  -0.002  -0.245448  -0.428065  -0.002612  3.929204  -0.003
C  C51  1  0.50002442  0.52490314  0.21836968  1  -0.353845  -0.002012  3.701931  -0.003  -0.431246  -0.002029  3.933978  -0.002  -0.435657  -0.00133  3.940435  -0.002  -0.24545  -0.428031  -0.002611  3.929219  -0.003
C  C52  1  0.05776126  0.42874886  0.82636235  1  0.226327  0.000886  3.716653  0.0  0.211094  -7.2e-05  3.986425  -0.001  0.222099  0.00143  4.003709  0.0  0.102002  0.204068  -0.001237  3.974279  -0.002
C  C53  1  0.94223691  0.57125160  0.17363823  1  0.226332  0.000871  3.716732  0.0  0.211147  -7e-05  3.986444  -0.001  0.222153  0.001428  4.00373  0.0  0.102049  0.20412  -0.001237  3.974293  -0.002
C  C54  1  0.88728171  0.45660543  0.82765487  1  -0.348794  -0.000458  3.699923  -0.001  -0.423139  -0.000501  3.936069  -0.001  -0.426609  -0.000327  3.942798  -0.001  -0.234924  -0.420571  -0.000661  3.931313  -0.001
C  C55  1  0.11271642  0.54339382  0.17234280  1  -0.348797  -0.00041  3.69992  -0.001  -0.423164  -0.000503  3.936091  -0.001  -0.426633  -0.000327  3.942821  -0.001  -0.234968  -0.420597  -0.000661  3.931335  -0.001
N  N56  1  0.25925824  0.28510192  0.86472863  1  -0.277101  -0.071726  3.245462  -0.091  -0.255634  -0.057392  3.562237  -0.077  -0.28499  -0.04864  3.585286  -0.07  -0.282001  -0.238636  -0.062022  3.548472  -0.079
N  N57  1  0.74073993  0.71489854  0.13527195  1  -0.277176  -0.071742  3.245467  -0.091  -0.255725  -0.057394  3.562267  -0.077  -0.285086  -0.048638  3.585315  -0.07  -0.282042  -0.238723  -0.062024  3.54849  -0.079
N  N58  1  0.09918159  0.28592833  0.87447463  1  -0.212479  -0.003191  3.515536  -0.003  -0.15727  -0.002686  3.753559  -0.003  -0.168848  -0.00188  3.774529  -0.002  -0.294279  -0.149213  -0.003302  3.739584  -0.003
N  N59  1  0.90081654  0.71407096  0.12552511  1  -0.212358  -0.003179  3.515533  -0.003  -0.157159  -0.002685  3.753539  -0.003  -0.168735  -0.001881  3.774508  -0.002  -0.294247  -0.149102  -0.003302  3.739555  -0.003
N  N60  1  0.44263307  0.86316888  0.31463179  1  -0.268158  -0.07224  3.270986  -0.092  -0.244893  -0.05676  3.583701  -0.076  -0.274133  -0.047742  3.607061  -0.069  -0.28219  -0.228311  -0.061358  3.570138  -0.079
N  N61  1  0.55736638  0.13683161  0.68537034  1  -0.268048  -0.072245  3.270954  -0.092  -0.244846  -0.056758  3.583694  -0.076  -0.274084  -0.047743  3.607058  -0.069  -0.282182  -0.228272  -0.061357  3.570142  -0.079
N  N62  1  0.27885671  0.85593156  0.33602263  1  -0.206121  -0.001154  3.509381  -0.001  -0.150164  -0.001208  3.745894  -0.001  -0.161507  -0.000619  3.767414  -0.001  -0.290119  -0.142307  -0.00163  3.731859  -0.002
N  N63  1  0.72114266  0.14406659  0.66397887  1  -0.206167  -0.001145  3.509348  -0.001  -0.150092  -0.001208  3.745708  -0.001  -0.161432  -0.00062  3.767219  -0.001  -0.290052  -0.142236  -0.001631  3.731676  -0.002
Cl  Cl64  1  0.11235937  0.00366201  0.11742793  1  -0.508815  -0.097519  1.081158  -0.118  -0.499155  -0.064565  1.373441  -0.082  -0.527469  -0.048645  1.350124  -0.067  -0.256511  -0.482074  -0.074175  1.390247  -0.089
Cl  Cl65  1  0.88764252  0.99633495  0.88257067  1  -0.50882  -0.097525  1.081129  -0.118  -0.499163  -0.064566  1.373423  -0.082  -0.527484  -0.048645  1.350102  -0.067  -0.256521  -0.48208  -0.074175  1.390226  -0.089
Cl  Cl66  1  0.48039975  0.84149051  0.92477942  1  -0.51944  -0.119201  1.05636  -0.148  -0.52126  -0.073901  1.35717  -0.098  -0.556733  -0.053871  1.331158  -0.078  -0.278597  -0.500736  -0.086577  1.376096  -0.108
Cl  Cl67  1  0.51960359  0.15851110  0.07521787  1  -0.519422  -0.119195  1.056326  -0.148  -0.521248  -0.073898  1.357146  -0.098  -0.556723  -0.053869  1.331133  -0.078  -0.278587  -0.50072  -0.086572  1.37607  -0.108
