# generated using pymatgen
data_HoAgH12C18(N2O5)2
_symmetry_space_group_name_H-M   'P 1'
_cell_length_a   9.52726135
_cell_length_b   9.89283963
_cell_length_c   12.10596529
_cell_angle_alpha   65.87973119
_cell_angle_beta   80.06459682
_cell_angle_gamma   65.05250978
_symmetry_Int_Tables_number   1
_chemical_formula_structural   HoAgH12C18(N2O5)2
_chemical_formula_sum   'Ho2 Ag2 H24 C36 N8 O20'
_cell_volume   944.21889277
_cell_formula_units_Z   2
loop_
 _symmetry_equiv_pos_site_id
 _symmetry_equiv_pos_as_xyz
  1  'x, y, z'
loop_
 _atom_site_type_symbol
 _atom_site_label
 _atom_site_symmetry_multiplicity
 _atom_site_fract_x
 _atom_site_fract_y
 _atom_site_fract_z
 _atom_site_occupancy
 _atom_site_pbe_bader_spin_density
 _atom_site_pbe_cm5_charge
 _atom_site_pbe_ddec_charge
 _atom_site_pbe_ddec_spin_density
 _atom_site_pbe_ddec_sum_bond_order
 _atom_site_pbe_magmom
Ho  Ho0  1  0.73376824  0.68069166  0.51286816  1  0  1.514355  2.089304  0  2.111226  0
Ho  Ho1  1  0.23362296  0.19360552  0.48716534  1  0  1.514409  2.089254  0  2.111243  0
Ag  Ag2  1  0.91010453  0.30532319  0.17065220  1  0  0.472406  0.389951  0  1.850719  0
Ag  Ag3  1  0.41025605  0.47596285  0.82936332  1  0  0.472558  0.390574  0  1.851513  0
H  H4  1  0.47304446  0.61372331  0.45886947  1  0  0.318936  0.404842  0  0.894257  0
H  H5  1  0.97304379  0.07265523  0.54105817  1  0  0.320274  0.406133  0  0.894497  0
H  H6  1  0.52771356  0.73179702  0.33747828  1  0  0.293094  0.373727  0  0.976398  0
H  H7  1  0.02767382  0.06915903  0.66251751  1  0  0.292892  0.373408  0  0.976795  0
H  H8  1  0.83164899  0.32460783  0.54964134  1  0  0.30528  0.421536  0  0.896655  0
H  H9  1  0.33162017  0.87416324  0.45040169  1  0  0.305629  0.421554  0  0.896356  0
H  H10  1  0.64576330  0.39643464  0.57317105  1  0  0.295121  0.396394  0  0.941968  0
H  H11  1  0.14575116  0.96956995  0.42684750  1  0  0.296562  0.397372  0  0.940684  0
H  H12  1  0.48852059  0.94424850  0.11464692  1  0  0.309085  0.29478  0  1.004139  0
H  H13  1  0.98845203  0.05899966  0.88521951  1  0  0.310339  0.295501  0  1.003088  0
H  H14  1  0.31495480  0.56076157  0.25711462  1  0  0.314011  0.303598  0  0.974919  0
H  H15  1  0.81502235  0.81796476  0.74296710  1  0  0.313432  0.304362  0  0.973632  0
H  H16  1  0.27190872  0.02988341  0.25559269  1  0  0.139681  0.104226  0  1.036207  0
H  H17  1  0.77186125  0.28574211  0.74433935  1  0  0.139985  0.103508  0  1.037204  0
H  H18  1  0.95806663  0.38963159  0.87640501  1  0  0.107229  0.115341  0  1.034969  0
H  H19  1  0.45795781  0.26592036  0.12362178  1  0  0.106266  0.114497  0  1.037004  0
H  H20  1  0.52969766  0.08907836  0.84633077  1  0  0.108056  0.128075  0  0.992941  0
H  H21  1  0.02967757  0.93561384  0.15351861  1  0  0.108729  0.128933  0  0.992621  0
H  H22  1  0.58002402  0.37601968  0.34655834  1  0  0.146743  0.111371  0  0.966724  0
H  H23  1  0.08011681  0.72277582  0.65337185  1  0  0.146693  0.111294  0  0.967953  0
H  H24  1  0.20099643  0.82195751  0.01625339  1  0  0.106535  0.120599  0  1.012547  0
H  H25  1  0.70112203  0.83808132  0.98396311  1  0  0.107177  0.121917  0  1.011528  0
H  H26  1  0.75691850  0.54767943  0.91637789  1  0  0.104983  0.113832  0  1.031104  0
H  H27  1  0.25724872  0.46401368  0.08351761  1  0  0.105106  0.114615  0  1.030964  0
C  C28  1  0.58714199  0.74271139  0.72095092  1  0  0.203581  0.606902  0  4.195409  0
C  C29  1  0.08723812  0.46311416  0.27901235  1  0  0.203554  0.609168  0  4.196628  0
C  C30  1  0.26146120  0.07939802  0.15771683  1  0  0.161065  0.190455  0  3.886655  0
C  C31  1  0.76144789  0.23728385  0.84223688  1  0  0.160986  0.191689  0  3.887094  0
C  C32  1  0.17142927  0.22269657  0.97550376  1  0  0.076993  0.116473  0  4.084946  0
C  C33  1  0.67139649  0.19818088  0.02449649  1  0  0.078006  0.116182  0  4.086392  0
C  C34  1  0.08176584  0.32215434  0.87215971  1  0  -0.087653  -0.158513  0  3.998613  0
C  C35  1  0.58164881  0.19420159  0.12784321  1  0  -0.085531  -0.156996  0  3.998486  0
C  C36  1  0.15193870  0.33274488  0.75940691  1  0  -0.021388  -0.092176  0  3.984094  0
C  C37  1  0.65184723  0.09209544  0.24056477  1  0  -0.023685  -0.09385  0  3.98722  0
C  C38  1  0.04290493  0.41969331  0.65550326  1  0  0.22651  0.644143  0  4.177792  0
C  C39  1  0.54288200  0.07493937  0.34451045  1  0  0.227354  0.645073  0  4.178062  0
C  C40  1  0.31554325  0.25598164  0.74883338  1  0  -0.009477  -0.049477  0  3.934519  0
C  C41  1  0.81547057  0.00496639  0.25108700  1  0  -0.008687  -0.048772  0  3.933619  0
C  C42  1  0.40199651  0.30486817  0.63011035  1  0  0.228159  0.638306  0  4.154371  0
C  C43  1  0.90188063  0.93514784  0.36980291  1  0  0.225637  0.635079  0  4.156152  0
C  C44  1  0.40491965  0.14978720  0.85315523  1  0  -0.094713  -0.198857  0  3.994712  0
C  C45  1  0.90489367  0.00307969  0.14676116  1  0  -0.094476  -0.20015  0  3.996408  0
C  C46  1  0.33033198  0.12922115  0.96544258  1  0  0.094102  0.147345  0  4.033472  0
C  C47  1  0.83029154  0.09467423  0.03450409  1  0  0.093662  0.147425  0  4.03293  0
C  C48  1  0.55979908  0.45614077  0.25205110  1  0  0.173732  0.214928  0  3.888002  0
C  C49  1  0.05988517  0.70835153  0.74790040  1  0  0.175098  0.213296  0  3.891048  0
C  C50  1  0.42932860  0.64319815  0.08607682  1  0  0.091775  0.137546  0  4.011241  0
C  C51  1  0.92943934  0.72911937  0.91401928  1  0  0.092014  0.138626  0  4.011255  0
C  C52  1  0.32203741  0.76306221  0.99588541  1  0  -0.086349  -0.168087  0  3.972404  0
C  C53  1  0.82218047  0.75881735  0.00425077  1  0  -0.086336  -0.170768  0  3.973699  0
C  C54  1  0.37281178  0.80432166  0.87547381  1  0  -0.023334  -0.08054  0  3.977993  0
C  C55  1  0.87299447  0.67948972  0.12464666  1  0  -0.023318  -0.078973  0  3.978163  0
C  C56  1  0.26160240  0.93090943  0.77507798  1  0  0.222974  0.614043  0  4.168937  0
C  C57  1  0.76175004  0.70576818  0.22504339  1  0  0.223786  0.615799  0  4.167499  0
C  C58  1  0.52998851  0.72483782  0.84777223  1  0  -0.015855  -0.043924  0  3.954479  0
C  C59  1  0.03019963  0.57229545  0.15223325  1  0  -0.013749  -0.04366  0  3.954331  0
C  C60  1  0.63758798  0.60983934  0.93881184  1  0  -0.090428  -0.187312  0  3.988043  0
C  C61  1  0.13785109  0.54850065  0.06115770  1  0  -0.091643  -0.188842  0  3.992332  0
C  C62  1  0.58732083  0.56942812  0.05871285  1  0  0.088547  0.142139  0  4.062769  0
C  C63  1  0.08748199  0.62805665  0.94128292  1  0  0.089804  0.141105  0  4.066418  0
N  N64  1  0.38195146  0.03792168  0.08306328  1  0  -0.37709  -0.27045  0  3.613092  0
N  N65  1  0.88189617  0.12105415  0.91685723  1  0  -0.379707  -0.271158  0  3.611732  0
N  N66  1  0.13257832  0.19054582  0.09710485  1  0  -0.366338  -0.312615  0  3.559294  0
N  N67  1  0.63259714  0.28776761  0.90292785  1  0  -0.367234  -0.313436  0  3.562762  0
N  N68  1  0.66666701  0.45498333  0.16494968  1  0  -0.366849  -0.321117  0  3.568214  0
N  N69  1  0.16678091  0.61996139  0.83497030  1  0  -0.367926  -0.320932  0  3.572569  0
N  N70  1  0.41662555  0.56772811  0.21022936  1  0  -0.373663  -0.269175  0  3.553333  0
N  N71  1  0.91672314  0.77796919  0.78984198  1  0  -0.374662  -0.268786  0  3.551103  0
O  O72  1  0.55267651  0.66829330  0.67098489  1  0  -0.394766  -0.633688  0  2.250784  0
O  O73  1  0.05262365  0.33879857  0.32887987  1  0  -0.394111  -0.633908  0  2.250393  0
O  O74  1  0.68058163  0.81136187  0.67143229  1  0  -0.327187  -0.579982  0  2.230609  0
O  O75  1  0.18073057  0.48201263  0.32866292  1  0  -0.327924  -0.580844  0  2.234142  0
O  O76  1  0.91227218  0.52631747  0.66564460  1  0  -0.407894  -0.662723  0  2.325006  0
O  O77  1  0.41224220  0.19161595  0.33445460  1  0  -0.408574  -0.663745  0  2.326831  0
O  O78  1  0.07763280  0.37882113  0.56454556  1  0  -0.407268  -0.67167  0  2.370336  0
O  O79  1  0.57770738  0.94306782  0.43541209  1  0  -0.407114  -0.67091  0  2.370063  0
O  O80  1  0.40563803  0.25813633  0.54624964  1  0  -0.403861  -0.651391  0  2.284886  0
O  O81  1  0.90571523  0.80438077  0.45356607  1  0  -0.401315  -0.648446  0  2.284729  0
O  O82  1  0.47032608  0.39375408  0.62487262  1  0  -0.31324  -0.563033  0  2.177994  0
O  O83  1  0.97006460  0.01888947  0.37508379  1  0  -0.313308  -0.562637  0  2.179367  0
O  O84  1  0.11598564  0.97756361  0.79604443  1  0  -0.31243  -0.570979  0  2.264053  0
O  O85  1  0.61613431  0.77368937  0.20404277  1  0  -0.313557  -0.571328  0  2.26325  0
O  O86  1  0.31764971  0.98642576  0.67137615  1  0  -0.389268  -0.651862  0  2.34832  0
O  O87  1  0.81773755  0.65754066  0.32876132  1  0  -0.38972  -0.653963  0  2.348445  0
O  O88  1  0.49143105  0.71324527  0.42438006  1  0  -0.588266  -0.803305  0  2.11772  0
O  O89  1  0.99144347  0.13758278  0.57562722  1  0  -0.589742  -0.804465  0  2.119405  0
O  O90  1  0.74029896  0.42180835  0.55097078  1  0  -0.645783  -0.878799  0  2.094812  0
O  O91  1  0.24022714  0.97260491  0.44922865  1  0  -0.647484  -0.879971  0  2.093628  0
