# generated using pymatgen
data_Cd2P2H10C12N2O11
_symmetry_space_group_name_H-M   'P 1'
_cell_length_a   7.10964161
_cell_length_b   7.10960251
_cell_length_c   18.86166049
_cell_angle_alpha   85.25516557
_cell_angle_beta   85.25510571
_cell_angle_gamma   62.75363297
_symmetry_Int_Tables_number   1
_chemical_formula_structural   Cd2P2H10C12N2O11
_chemical_formula_sum   'Cd4 P4 H20 C24 N4 O22'
_cell_volume   843.62460241
_cell_formula_units_Z   2
loop_
 _symmetry_equiv_pos_site_id
 _symmetry_equiv_pos_as_xyz
  1  'x, y, z'
loop_
 _atom_site_type_symbol
 _atom_site_label
 _atom_site_symmetry_multiplicity
 _atom_site_fract_x
 _atom_site_fract_y
 _atom_site_fract_z
 _atom_site_occupancy
 _atom_site_hle17_bader_spin_density
 _atom_site_hle17_ddec_charge
 _atom_site_hle17_ddec_spin_density
 _atom_site_hle17_ddec_sum_bond_order
 _atom_site_hle17_magmom
 _atom_site_hse06_10hf_bader_spin_density
 _atom_site_hse06_10hf_ddec_charge
 _atom_site_hse06_10hf_ddec_spin_density
 _atom_site_hse06_10hf_ddec_sum_bond_order
 _atom_site_hse06_10hf_magmom
 _atom_site_hse06_bader_spin_density
 _atom_site_hse06_ddec_charge
 _atom_site_hse06_ddec_spin_density
 _atom_site_hse06_ddec_sum_bond_order
 _atom_site_hse06_magmom
 _atom_site_pbe_bader_spin_density
 _atom_site_pbe_cm5_charge
 _atom_site_pbe_ddec_charge
 _atom_site_pbe_ddec_spin_density
 _atom_site_pbe_ddec_sum_bond_order
 _atom_site_pbe_magmom
Cd  Cd0  1  0.48186217  0.34622872  0.68477046  1  0  1.294323  0  1.629699  0  0  1.116914  0  2.079636  0  0  1.168891  0  2.023317  0  0  0.809473  1.079542  0  2.118567  0
Cd  Cd1  1  0.65378161  0.51811992  0.81523032  1  0  1.294296  0  1.629717  0  0  1.11686  0  2.079639  0  0  1.168837  0  2.02332  0  0  0.809459  1.079488  0  2.118566  0
Cd  Cd2  1  0.51812434  0.65377763  0.31522926  1  0  1.294295  0  1.629828  0  0  1.116883  0  2.079768  0  0  1.16886  0  2.023447  0  0  0.809464  1.079511  0  2.118697  0
Cd  Cd3  1  0.34622617  0.48187043  0.18477080  1  0  1.294317  0  1.629707  0  0  1.116916  0  2.079644  0  0  1.168893  0  2.023323  0  0  0.809478  1.079543  0  2.118576  0
P  P4  1  0.55595597  0.82636224  0.65232501  1  0  1.508598  0  4.82135  0  0  1.341604  0  5.323134  0  0  1.395497  0  5.281342  0  0  0.364661  1.303846  0  5.351582  0
P  P5  1  0.17363726  0.44403677  0.84767377  1  0  1.508615  0  4.821309  0  0  1.341697  0  5.323077  0  0  1.395575  0  5.281278  0  0  0.36472  1.303942  0  5.35153  0
P  P6  1  0.44403901  0.17363768  0.34767358  1  0  1.508654  0  4.821209  0  0  1.341797  0  5.322937  0  0  1.395682  0  5.281137  0  0  0.364743  1.304045  0  5.351385  0
P  P7  1  0.82636625  0.55595678  0.15232686  1  0  1.508799  0  4.821206  0  0  1.341785  0  5.322998  0  0  1.395675  0  5.281206  0  0  0.364748  1.30402  0  5.351443  0
H  H8  1  0.97430224  0.57032154  0.70248381  1  0  0.097605  0  0.995784  0  0  0.104028  0  1.06189  0  0  0.107286  0  1.058165  0  0  0.118333  0.101597  0  1.064576  0
H  H9  1  0.42967993  0.02568879  0.79751477  1  0  0.097574  0  0.99585  0  0  0.103998  0  1.061938  0  0  0.107253  0  1.05822  0  0  0.118311  0.101568  0  1.064623  0
H  H10  1  0.02568920  0.42967686  0.29751549  1  0  0.097616  0  0.995815  0  0  0.104039  0  1.061906  0  0  0.107295  0  1.058187  0  0  0.118336  0.10161  0  1.064589  0
H  H11  1  0.57032427  0.97430315  0.20248483  1  0  0.097575  0  0.995854  0  0  0.104001  0  1.061945  0  0  0.107256  0  1.058226  0  0  0.118317  0.101572  0  1.064628  0
H  H12  1  0.71027869  0.88522081  0.50273704  1  0  0.114752  0  0.957052  0  0  0.125307  0  1.018782  0  0  0.128551  0  1.015387  0  0  0.116312  0.122872  0  1.021273  0
H  H13  1  0.11479246  0.28970739  0.99726411  1  0  0.114755  0  0.956951  0  0  0.125315  0  1.018688  0  0  0.12857  0  1.015268  0  0  0.116313  0.122879  0  1.021179  0
H  H14  1  0.28970864  0.11479660  0.49726438  1  0  0.114808  0  0.956963  0  0  0.125351  0  1.018706  0  0  0.128605  0  1.015284  0  0  0.116317  0.122915  0  1.021198  0
H  H15  1  0.88522594  0.71028124  0.00273616  1  0  0.11479  0  0.95697  0  0  0.125359  0  1.018699  0  0  0.128608  0  1.015293  0  0  0.116323  0.122923  0  1.021191  0
H  H16  1  0.38301062  0.54301598  0.53063048  1  0  0.090261  0  0.983331  0  0  0.096008  0  1.051757  0  0  0.099547  0  1.046583  0  0  0.119545  0.09338  0  1.055545  0
H  H17  1  0.45699704  0.61697572  0.96936696  1  0  0.090232  0  0.983336  0  0  0.095975  0  1.051786  0  0  0.099519  0  1.046602  0  0  0.119536  0.093347  0  1.055576  0
H  H18  1  0.61697886  0.45700926  0.46937005  1  0  0.090232  0  0.983328  0  0  0.09598  0  1.051758  0  0  0.099522  0  1.046583  0  0  0.119535  0.093352  0  1.055547  0
H  H19  1  0.54301924  0.38301450  0.03063333  1  0  0.090227  0  0.983369  0  0  0.095977  0  1.051801  0  0  0.099517  0  1.046625  0  0  0.119576  0.093351  0  1.055588  0
H  H20  1  0.24937852  0.99318243  0.59964911  1  0  0.427314  0  0.88611  0  0  0.389704  0  0.960361  0  0  0.402396  0  0.942379  0  0  0.301211  0.380806  0  0.972926  0
H  H21  1  0.00681715  0.75061410  0.90035140  1  0  0.427355  0  0.886048  0  0  0.389676  0  0.960406  0  0  0.402367  0  0.942425  0  0  0.301196  0.380777  0  0.972971  0
H  H22  1  0.75061365  0.00681754  0.40035063  1  0  0.427335  0  0.886075  0  0  0.389673  0  0.960411  0  0  0.402366  0  0.942427  0  0  0.301188  0.380776  0  0.972974  0
H  H23  1  0.99318709  0.24938102  0.09964968  1  0  0.42729  0  0.886139  0  0  0.38967  0  0.960406  0  0  0.402362  0  0.942425  0  0  0.301183  0.380774  0  0.972966  0
H  H24  1  0.92018731  0.14960873  0.71018982  1  0  0.440726  0  0.841133  0  0  0.407642  0  0.906231  0  0  0.419568  0  0.888912  0  0  0.300506  0.399136  0  0.918564  0
H  H25  1  0.85040143  0.07980740  0.78980504  1  0  0.440773  0  0.841143  0  0  0.407683  0  0.906187  0  0  0.419607  0  0.888871  0  0  0.300534  0.399179  0  0.918515  0
H  H26  1  0.07981047  0.85040051  0.28980463  1  0  0.440757  0  0.841087  0  0  0.407661  0  0.906197  0  0  0.419583  0  0.888887  0  0  0.300526  0.399158  0  0.918524  0
H  H27  1  0.14961118  0.92018433  0.21018950  1  0  0.440761  0  0.841143  0  0  0.407695  0  0.906165  0  0  0.419617  0  0.888853  0  0  0.300539  0.39919  0  0.918496  0
C  C28  1  0.99057289  0.61590751  0.64649987  1  0  0.167739  0  3.663386  0  0  0.124015  0  3.91074  0  0  0.135957  0  3.92576  0  0  0.059631  0.116385  0  3.900475  0
C  C29  1  0.38409572  0.00941389  0.85349881  1  0  0.167809  0  3.663423  0  0  0.124146  0  3.910795  0  0  0.136076  0  3.925804  0  0  0.059704  0.116519  0  3.900535  0
C  C30  1  0.00941788  0.38409564  0.35350034  1  0  0.167713  0  3.663371  0  0  0.124062  0  3.91075  0  0  0.135993  0  3.92576  0  0  0.059651  0.116437  0  3.900489  0
C  C31  1  0.61590779  0.99057965  0.14650182  1  0  0.167821  0  3.66339  0  0  0.1241  0  3.910736  0  0  0.136042  0  3.925753  0  0  0.059696  0.116465  0  3.900463  0
C  C32  1  0.81404356  0.73874962  0.60651706  1  0  -0.287036  0  3.722861  0  0  -0.239689  0  3.971554  0  0  -0.256771  0  3.993432  0  0  -0.018956  -0.228855  0  3.957324  0
C  C33  1  0.26125256  0.18594632  0.89348270  1  0  -0.287111  0  3.722679  0  0  -0.239964  0  3.97163  0  0  -0.257002  0  3.993452  0  0  -0.019033  -0.229148  0  3.957421  0
C  C34  1  0.18594792  0.26125195  0.39348319  1  0  -0.287042  0  3.722657  0  0  -0.239929  0  3.971621  0  0  -0.256972  0  3.99345  0  0  -0.019022  -0.229113  0  3.957417  0
C  C35  1  0.73875664  0.81404403  0.10651890  1  0  -0.287175  0  3.722582  0  0  -0.239827  0  3.971313  0  0  -0.256906  0  3.993184  0  0  -0.018993  -0.228974  0  3.957056  0
C  C36  1  0.84607803  0.79135245  0.53485074  1  0  0.029316  0  3.653618  0  0  -0.016022  0  3.902417  0  0  -0.006661  0  3.918649  0  0  -0.05019  -0.021711  0  3.891346  0
C  C37  1  0.20865777  0.15390242  0.96514959  1  0  0.029418  0  3.653618  0  0  -0.015862  0  3.902415  0  0  -0.00651  0  3.918637  0  0  -0.050156  -0.021548  0  3.891358  0
C  C38  1  0.15390999  0.20866336  0.46515018  1  0  0.029312  0  3.653632  0  0  -0.015927  0  3.902408  0  0  -0.006572  0  3.918631  0  0  -0.050166  -0.021616  0  3.891356  0
C  C39  1  0.79135214  0.84608634  0.03485204  1  0  0.029225  0  3.653775  0  0  -0.016146  0  3.902587  0  0  -0.006789  0  3.918825  0  0  -0.050285  -0.021838  0  3.891506  0
C  C40  1  0.05355079  0.72246727  0.50607297  1  0  -0.134588  0  3.71142  0  0  -0.10632  0  3.956298  0  0  -0.12179  0  3.98096  0  0  -0.015606  -0.09665  0  3.940055  0
C  C41  1  0.27753694  0.94643970  0.99392690  1  0  -0.134553  0  3.711567  0  0  -0.106255  0  3.956388  0  0  -0.121726  0  3.981054  0  0  -0.015543  -0.096585  0  3.94014  0
C  C42  1  0.94643655  0.27755014  0.49392897  1  0  -0.134571  0  3.711673  0  0  -0.106289  0  3.956474  0  0  -0.121762  0  3.981141  0  0  -0.015576  -0.096618  0  3.94023  0
C  C43  1  0.72247365  0.05354746  0.00607424  1  0  -0.134565  0  3.711412  0  0  -0.106275  0  3.956277  0  0  -0.121744  0  3.980939  0  0  -0.015563  -0.096606  0  3.940032  0
C  C44  1  0.21989945  0.60047599  0.55049278  1  0  0.162309  0  3.651668  0  0  0.116165  0  3.90477  0  0  0.128485  0  3.919065  0  0  0.060745  0.108177  0  3.895073  0
C  C45  1  0.39953448  0.78008283  0.94950708  1  0  0.16233  0  3.651601  0  0  0.116131  0  3.904789  0  0  0.128453  0  3.919081  0  0  0.060731  0.108142  0  3.895092  0
C  C46  1  0.78008997  0.39953979  0.44950757  1  0  0.162327  0  3.651704  0  0  0.116167  0  3.904812  0  0  0.128484  0  3.919107  0  0  0.060777  0.108178  0  3.895116  0
C  C47  1  0.60047826  0.21990589  0.05049445  1  0  0.162413  0  3.65154  0  0  0.116231  0  3.904697  0  0  0.128553  0  3.91899  0  0  0.060757  0.108241  0  3.895  0
C  C48  1  0.11385329  0.76555685  0.43002880  1  0  0.674847  0  3.888393  0  0  0.615021  0  4.19345  0  0  0.649793  0  4.189009  0  0  0.218861  0.591541  0  4.195673  0
C  C49  1  0.23445906  0.88612746  0.06997041  1  0  0.674687  0  3.888517  0  0  0.614894  0  4.193542  0  0  0.649664  0  4.189103  0  0  0.218797  0.591415  0  4.195759  0
C  C50  1  0.88613334  0.23446215  0.56997312  1  0  0.674672  0  3.888539  0  0  0.614869  0  4.193555  0  0  0.64964  0  4.189119  0  0  0.218776  0.59139  0  4.195777  0
C  C51  1  0.76556075  0.11386114  0.93002928  1  0  0.674674  0  3.888291  0  0  0.614828  0  4.193396  0  0  0.649596  0  4.18896  0  0  0.218733  0.59135  0  4.195613  0
N  N52  1  0.18983822  0.54712056  0.61877152  1  0  -0.347416  0  3.240965  0  0  -0.268266  0  3.520862  0  0  -0.290268  0  3.535043  0  0  -0.328179  -0.253361  0  3.510812  0
N  N53  1  0.45288558  0.81015183  0.88122715  1  0  -0.347398  0  3.241141  0  0  -0.268231  0  3.521034  0  0  -0.290232  0  3.535217  0  0  -0.328169  -0.253324  0  3.510981  0
N  N54  1  0.81015044  0.45289049  0.38122796  1  0  -0.347386  0  3.241106  0  0  -0.268227  0  3.520977  0  0  -0.290227  0  3.535159  0  0  -0.328188  -0.25332  0  3.510924  0
N  N55  1  0.54712290  0.18984008  0.11877336  1  0  -0.347432  0  3.241234  0  0  -0.268273  0  3.52112  0  0  -0.290274  0  3.5353  0  0  -0.328195  -0.253366  0  3.511068  0
O  O56  1  0.56082592  0.63909196  0.70034408  1  0  -0.904327  0  2.042461  0  0  -0.804472  0  2.334845  0  0  -0.837008  0  2.311201  0  0  -0.386156  -0.781202  0  2.350399  0
O  O57  1  0.36091577  0.43916219  0.79965770  1  0  -0.904321  0  2.042489  0  0  -0.804492  0  2.334894  0  0  -0.837024  0  2.311249  0  0  -0.386152  -0.78123  0  2.350464  0
O  O58  1  0.43916489  0.36091437  0.29965707  1  0  -0.904327  0  2.04242  0  0  -0.804499  0  2.334815  0  0  -0.837032  0  2.311169  0  0  -0.386147  -0.781235  0  2.350385  0
O  O59  1  0.63909061  0.56083448  0.20034325  1  0  -0.904303  0  2.042406  0  0  -0.804507  0  2.334899  0  0  -0.837039  0  2.311252  0  0  -0.386183  -0.781242  0  2.350469  0
O  O60  1  0.40507179  0.87800948  0.58935727  1  0  -0.753059  0  2.051744  0  0  -0.68091  0  2.286363  0  0  -0.703758  0  2.261158  0  0  -0.380069  -0.664672  0  2.303471  0
O  O61  1  0.12198627  0.59492090  0.91064489  1  0  -0.753109  0  2.051652  0  0  -0.680916  0  2.286274  0  0  -0.703787  0  2.26112  0  0  -0.380127  -0.664675  0  2.303377  0
O  O62  1  0.59491685  0.12198900  0.41064424  1  0  -0.75308  0  2.051684  0  0  -0.680953  0  2.286332  0  0  -0.703826  0  2.261169  0  0  -0.380113  -0.664713  0  2.303436  0
O  O63  1  0.87801799  0.40507110  0.08935736  1  0  -0.75317  0  2.05177  0  0  -0.680941  0  2.286326  0  0  -0.703802  0  2.261149  0  0  -0.380084  -0.664701  0  2.303429  0
O  O64  1  0.50355967  0.01970935  0.69381599  1  0  -0.875411  0  2.017087  0  0  -0.787205  0  2.297161  0  0  -0.816677  0  2.272497  0  0  -0.383834  -0.766027  0  2.313391  0
O  O65  1  0.98029250  0.49643994  0.80618066  1  0  -0.875462  0  2.017088  0  0  -0.787268  0  2.29716  0  0  -0.816737  0  2.272495  0  0  -0.383866  -0.766091  0  2.313392  0
O  O66  1  0.49644166  0.98028887  0.30618084  1  0  -0.875476  0  2.017031  0  0  -0.787284  0  2.297077  0  0  -0.816751  0  2.272409  0  0  -0.38389  -0.766108  0  2.313316  0
O  O67  1  0.01971029  0.50355203  0.19381952  1  0  -0.875498  0  2.017004  0  0  -0.787295  0  2.297088  0  0  -0.816767  0  2.272429  0  0  -0.383879  -0.766126  0  2.313341  0
O  O68  1  0.97275460  0.85690918  0.38402723  1  0  -0.62905  0  2.006255  0  0  -0.561903  0  2.224569  0  0  -0.589114  0  2.21423  0  0  -0.304704  -0.542946  0  2.231173  0
O  O69  1  0.14310841  0.02723294  0.11597412  1  0  -0.628976  0  2.006207  0  0  -0.561905  0  2.224529  0  0  -0.589117  0  2.214192  0  0  -0.304698  -0.542949  0  2.231131  0
O  O70  1  0.02723974  0.14309865  0.61597269  1  0  -0.628976  0  2.006385  0  0  -0.561859  0  2.224676  0  0  -0.589076  0  2.214338  0  0  -0.304669  -0.542901  0  2.231284  0
O  O71  1  0.85690785  0.97275414  0.88402629  1  0  -0.628988  0  2.00613  0  0  -0.561819  0  2.224421  0  0  -0.589032  0  2.214086  0  0  -0.304605  -0.542861  0  2.231023  0
O  O72  1  0.31030585  0.70191620  0.41655164  1  0  -0.646418  0  2.059448  0  0  -0.578724  0  2.322373  0  0  -0.608773  0  2.312193  0  0  -0.316498  -0.557713  0  2.328698  0
O  O73  1  0.29809694  0.68968237  0.08344680  1  0  -0.646254  0  2.059437  0  0  -0.578595  0  2.322358  0  0  -0.608636  0  2.312172  0  0  -0.316475  -0.557588  0  2.328686  0
O  O74  1  0.68967932  0.29810591  0.58344756  1  0  -0.646256  0  2.059239  0  0  -0.578617  0  2.322182  0  0  -0.608662  0  2.312002  0  0  -0.316474  -0.557609  0  2.328508  0
O  O75  1  0.70192148  0.31030628  0.91655454  1  0  -0.646282  0  2.05951  0  0  -0.578537  0  2.322355  0  0  -0.608579  0  2.312171  0  0  -0.316446  -0.557532  0  2.32868  0
O  O76  1  0.81066726  0.18932798  0.74999824  1  0  -0.861099  0  1.936984  0  0  -0.785798  0  2.145008  0  0  -0.810308  0  2.105948  0  0  -0.570157  -0.76828  0  2.172207  0
O  O77  1  0.18933406  0.81067023  0.24999806  1  0  -0.861133  0  1.936969  0  0  -0.785823  0  2.145015  0  0  -0.810329  0  2.105959  0  0  -0.570194  -0.768306  0  2.172214  0
