# generated using pymatgen
data_Co3H29(C2N)12
_symmetry_space_group_name_H-M   'P 1'
_cell_length_a   14.63381908
_cell_length_b   14.63275598
_cell_length_c   14.63030055
_cell_angle_alpha   109.47335470
_cell_angle_beta   109.48353040
_cell_angle_gamma   109.47312363
_symmetry_Int_Tables_number   1
_chemical_formula_structural   Co3H29(C2N)12
_chemical_formula_sum   'Co6 H58 C48 N24'
_cell_volume   2411.16826679
_cell_formula_units_Z   2
loop_
 _symmetry_equiv_pos_site_id
 _symmetry_equiv_pos_as_xyz
  1  'x, y, z'
loop_
 _atom_site_type_symbol
 _atom_site_label
 _atom_site_symmetry_multiplicity
 _atom_site_fract_x
 _atom_site_fract_y
 _atom_site_fract_z
 _atom_site_occupancy
 _atom_site_pbe_bader_charge
 _atom_site_pbe_bader_spin_density
 _atom_site_pbe_cm5_charge
 _atom_site_pbe_ddec_charge
 _atom_site_pbe_ddec_spin_density
 _atom_site_pbe_ddec_sum_bond_order
 _atom_site_pbe_magmom
Co  Co0  1  0.74933743  0.49975717  0.24898808  1  1.118183  2.453772  0.721276  0.69676  2.671718  2.752143  2.378
Co  Co1  1  0.25014821  0.49999318  0.75007234  1  1.119762  2.530807  0.715362  0.684988  2.751955  2.730627  2.455
Co  Co2  1  0.24959245  0.74968632  0.49953732  1  1.118913  2.531226  0.715438  0.686435  2.752893  2.727224  2.456
Co  Co3  1  0.75014984  0.25034327  0.49992448  1  1.121514  2.495361  0.720115  0.690186  2.714934  2.737489  2.42
Co  Co4  1  0.50015848  0.24945571  0.74900057  1  1.12197  2.488405  0.719687  0.700354  2.708828  2.72789  2.413
Co  Co5  1  0.50031556  0.75033563  0.25020135  1  1.116715  2.529406  0.715495  0.681791  2.750731  2.742053  2.454
H  H6  1  0.88246260  0.76028559  0.41498161  1  0.084578  0.002019  0.110308  0.103334  0.000637  1.028415  0.001
H  H7  1  0.11627692  0.53303930  0.87785009  1  0.082059  0.002002  0.110565  0.102771  0.00064  1.027223  0.001
H  H8  1  0.34710578  0.46890711  0.58531682  1  0.084171  0.002003  0.109477  0.101756  0.000622  1.028562  0.001
H  H9  1  0.41527233  0.88310875  0.76131425  1  0.083131  0.002026  0.109899  0.102581  0.000649  1.027545  0.001
H  H10  1  0.12180927  0.65396684  0.23718601  1  0.07216  0.002042  0.110666  0.103256  0.000684  1.026185  0.001
H  H11  1  0.87820918  0.11701702  0.53218114  1  0.077012  0.002053  0.109922  0.102211  0.000645  1.027947  0.001
H  H12  1  0.58480145  0.34756945  0.46770853  1  0.073628  0.002088  0.109607  0.102797  0.000689  1.02567  0.001
H  H13  1  0.23946118  0.12248214  0.65587961  1  0.077812  0.002017  0.110256  0.102354  0.000653  1.028257  0.001
H  H14  1  0.53149849  0.87841345  0.11658806  1  0.081946  0.002027  0.110088  0.103085  0.00066  1.026843  0.001
H  H15  1  0.46963024  0.58599827  0.34777753  1  0.075616  0.002026  0.110192  0.102604  0.000616  1.027645  0.001
H  H16  1  0.41479351  0.76220609  0.88370732  1  0.083556  0.00199  0.110087  0.10246  0.000611  1.027695  0.001
H  H17  1  0.12265621  0.23846275  0.65386099  1  0.075514  0.001974  0.110242  0.103494  0.000601  1.026831  0.001
H  H18  1  0.87818484  0.52817305  0.11413051  1  0.08798  0.003756  0.111908  0.120888  0.001327  1.022094  0.001
H  H19  1  0.58427307  0.46782056  0.34569294  1  0.080937  0.002014  0.110126  0.102258  0.000852  1.028985  0.001
H  H20  1  0.76205353  0.88416592  0.41502649  1  0.08481  0.002009  0.109759  0.102018  0.000614  1.028734  0.001
H  H21  1  0.23859846  0.65242553  0.12123617  1  0.06042  0.002024  0.110608  0.104078  0.000608  1.024264  0.001
H  H22  1  0.53287706  0.11572589  0.87821326  1  0.09149  0.000819  0.112319  0.105487  -0.001451  1.024092  0.001
H  H23  1  0.46598171  0.34430318  0.58177718  1  0.067663  0.002034  0.109384  0.101775  0.000727  1.028707  0.001
H  H24  1  0.88365717  0.41727272  0.76152095  1  0.093111  0.000738  0.112969  0.106308  -0.001768  1.023345  0.001
H  H25  1  0.65058753  0.12251571  0.23672760  1  0.083385  0.003734  0.111848  0.118518  0.001224  1.027592  0.001
H  H26  1  0.11535545  0.87767373  0.53004062  1  0.121697  0.001956  0.110628  0.10393  0.000602  1.02546  0.001
H  H27  1  0.34518876  0.58359609  0.46717694  1  0.081627  0.002013  0.109717  0.101837  0.000622  1.028448  0.001
H  H28  1  0.91471372  0.43471089  0.26132804  1  0.081025  0.002223  0.098199  0.143154  0.001097  1.017091  0.0
H  H29  1  0.04121729  0.48897053  0.38547466  1  0.032542  0.00071  0.099726  0.152578  6.6e-05  0.986858  0.0
H  H30  1  0.04706154  0.50785392  0.27396611  1  0.034772  0.000976  0.096179  0.137694  0.00046  1.01044  0.0
H  H31  1  0.85183562  0.48550476  0.56882104  1  0.082303  -0.000656  0.099357  0.146651  -0.00118  1.019107  -0.001
H  H32  1  0.75744630  0.52647637  0.50745618  1  0.039656  0.000885  0.093757  0.132879  0.000344  1.008373  0.001
H  H33  1  0.88222195  0.56309024  0.50098039  1  0.074835  0.000925  0.098917  0.150311  0.000358  1.00138  0.0
H  H34  1  0.93044310  0.30913190  0.43663382  1  0.060705  0.001685  0.099053  0.149578  0.000868  1.006791  0.0
H  H35  1  0.98993507  0.23412429  0.48177555  1  0.043775  0.000301  0.093377  0.132511  2e-06  1.009077  0.0
H  H36  1  0.07905489  0.37065651  0.51338396  1  0.081998  0.001998  0.097629  0.144038  0.000788  1.020907  0.0
H  H37  1  0.13554273  0.62530112  0.70032188  1  0.079465  0.001733  0.098574  0.147984  0.000641  1.012665  0.0
H  H38  1  0.13391084  0.69855091  0.62399723  1  0.072998  0.001736  0.098067  0.145721  0.000643  1.015691  0.0
H  H39  1  0.24808938  0.76172503  0.76022910  1  0.060972  0.000278  0.093809  0.132781  -1e-06  1.007925  0.0
H  H40  1  0.25105003  0.02007756  0.49671539  1  0.053008  0.000404  0.093313  0.131821  8.1e-05  1.010666  0.0
H  H41  1  0.28409715  0.91822514  0.43400434  1  0.055971  0.002237  0.098243  0.145017  0.000896  1.018692  0.0
H  H42  1  0.38213176  0.06398458  0.50273313  1  0.064353  0.001216  0.098895  0.149845  0.000541  1.004191  0.0
H  H43  1  0.50763706  0.75232183  0.51827954  1  0.042987  0.000298  0.093555  0.132403  3e-06  1.009054  0.0
H  H44  1  0.49301287  0.87230201  0.56300420  1  0.064895  0.001512  0.099371  0.149765  0.000549  1.007911  0.0
H  H45  1  0.56521622  0.85717266  0.48659338  1  0.058019  0.002067  0.098002  0.144479  0.000828  1.020204  0.0
H  H46  1  0.50964738  0.07441483  0.37555629  1  0.060838  0.001702  0.0984  0.146801  0.000725  1.014457  0.0
H  H47  1  0.43528295  0.92481448  0.29929473  1  0.072028  0.001803  0.098726  0.148123  0.000643  1.011838  0.0
H  H48  1  0.48753261  0.00144172  0.23927330  1  0.054777  0.000452  0.093781  0.133378  0.000283  1.008211  0.0
H  H49  1  0.65683308  0.10473268  0.61378990  1  0.065651  0.000402  0.098386  0.150488  0.000321  0.989302  0.0
H  H50  1  0.65258633  0.17379971  0.73686741  1  0.060419  0.001728  0.096678  0.140668  0.000231  1.022587  0.0
H  H51  1  0.77290979  0.23603216  0.72594229  1  0.025202  0.000135  0.095561  0.137631  -0.000714  1.012445  0.0
H  H52  1  0.44204562  0.33324455  0.95028156  1  0.057903  0.000637  0.097645  0.148728  0.000566  0.997274  0.0
H  H53  1  0.51907515  0.35609038  0.08667002  1  0.064553  -0.000933  0.097485  0.142658  -0.001677  1.022991  -0.002
H  H54  1  0.46673262  0.22758774  0.96614561  1  0.037063  -0.000312  0.095015  0.137054  -0.001324  1.009652  0.0
H  H55  1  0.56478253  0.49291520  0.87030017  1  0.088856  0.001365  0.09878  0.148699  0.000975  1.00859  0.0
H  H56  1  0.48845269  0.56574857  0.86042292  1  0.08496  0.001902  0.098717  0.147314  0.000713  1.014169  0.0
H  H57  1  0.51664869  0.50974037  0.75207401  1  0.03777  0.000249  0.093903  0.133569  -4.7e-05  1.007757  0.0
H  H58  1  0.22998017  0.47521526  0.97732899  1  0.050436  0.00039  0.094206  0.133441  8.2e-05  1.009654  0.0
H  H59  1  0.36431039  0.51665389  0.08245288  1  0.051347  0.002306  0.098524  0.14528  0.000951  1.018095  0.0
H  H60  1  0.32035441  0.43968166  0.93768998  1  0.043439  0.001197  0.098218  0.147178  0.000398  1.008227  0.0
H  H61  1  0.62713180  0.70488630  0.13931528  1  0.037384  0.001971  0.098997  0.147524  0.000726  1.014323  0.0
H  H62  1  0.69351993  0.62215142  0.12952485  1  0.062029  0.001658  0.098955  0.149179  0.001069  1.00925  0.0
H  H63  1  0.76395234  0.75762692  0.24739481  1  0.034875  0.000335  0.093504  0.132013  1.6e-05  1.008636  0.0
C  C64  1  0.94157573  0.73148324  0.41370037  1  0.369607  0.009976  -0.027925  -0.071884  0.006078  4.079324  0.008
C  C65  1  0.67967991  0.27225732  0.21419660  1  0.362379  -0.770823  0.047374  0.030503  -0.827089  3.415881  -0.433
C  C66  1  0.05743825  0.47229378  0.78990304  1  0.278392  0.010593  -0.027005  -0.068587  0.006445  4.077068  0.008
C  C67  1  0.31870358  0.52859620  0.58601124  1  0.269123  0.010743  -0.027213  -0.067514  0.006356  4.078316  0.008
C  C68  1  0.41415680  0.94216174  0.73237774  1  0.396989  0.010695  -0.027263  -0.068323  0.006659  4.075067  0.009
C  C69  1  0.20977195  0.68118233  0.26659887  1  0.282506  0.010335  -0.028008  -0.072952  0.006136  4.085498  0.008
C  C70  1  0.79025232  0.05803983  0.47167385  1  0.417229  0.010478  -0.026555  -0.06745  0.006537  4.076651  0.009
C  C71  1  0.58521681  0.31866315  0.52703846  1  0.406015  0.010346  -0.026244  -0.066583  0.006527  4.074705  0.009
C  C72  1  0.72818382  0.40798843  0.94182769  1  0.359552  -0.774963  0.048484  0.032598  -0.831043  3.41643  -0.435
C  C73  1  0.26842907  0.21033393  0.68285179  1  0.387895  0.010042  -0.026944  -0.068989  0.006189  4.079508  0.008
C  C74  1  0.47133211  0.79040452  0.05760791  1  0.421071  0.010193  -0.027216  -0.068568  0.006273  4.076524  0.008
C  C75  1  0.52919390  0.58660931  0.31919368  1  0.289237  0.010749  -0.026446  -0.065692  0.006357  4.074394  0.008
C  C76  1  0.41370500  0.73299189  0.94257480  1  0.282156  0.010625  -0.026148  -0.066789  0.006336  4.076546  0.008
C  C77  1  0.21073408  0.26763234  0.68204028  1  0.292856  0.010734  -0.027258  -0.068328  0.006381  4.077366  0.008
C  C78  1  0.78989099  0.46901936  0.05642054  1  0.384077  -0.002903  -0.039544  -0.134825  0.003143  4.11127  -0.014
C  C79  1  0.58594775  0.52838491  0.31833640  1  0.378189  0.010579  -0.026795  -0.069313  0.006632  4.077987  0.008
C  C80  1  0.73288198  0.94304053  0.41390818  1  0.295028  0.01047  -0.027353  -0.068219  0.00624  4.078663  0.008
C  C81  1  0.26748269  0.68076264  0.20932733  1  0.401923  0.010623  -0.025981  -0.064758  0.006424  4.074069  0.009
C  C82  1  0.47227616  0.05717273  0.79014547  1  0.288195  0.010475  -0.02576  -0.067106  0.006547  4.07107  0.008
C  C83  1  0.52665920  0.31714540  0.58347078  1  0.307534  0.010686  -0.027843  -0.069982  0.006541  4.081217  0.009
C  C84  1  0.94242664  0.41509004  0.73238911  1  0.388904  0.009934  -0.025509  -0.069761  0.006014  4.073773  0.008
C  C85  1  0.67905932  0.21068466  0.26720660  1  0.368626  -0.002764  -0.038292  -0.133296  0.00309  4.110482  -0.015
C  C86  1  0.05655713  0.78943268  0.47061734  1  0.26664  0.010494  -0.025616  -0.06446  0.006234  4.075342  0.008
C  C87  1  0.31789842  0.58539804  0.52780686  1  0.38893  0.01048  -0.026915  -0.068379  0.006384  4.079419  0.008
C  C88  1  0.99970871  0.61197972  0.36834058  1  0.954282  0.01084  0.194701  0.373125  0.007349  3.982642  0.009
C  C89  1  0.00046285  0.50523560  0.31937987  1  -0.036583  0.004818  -0.232667  -0.468695  0.003017  3.9555  0.003
C  C90  1  0.75797595  0.38999477  0.39021352  1  0.938991  -0.011066  0.19647  0.383198  -0.015517  3.947709  -0.018
C  C91  1  0.81522336  0.49666493  0.49747743  1  -0.078635  0.001167  -0.233707  -0.468182  6.7e-05  3.955891  0.0
C  C92  1  0.99998798  0.36930977  0.61240755  1  0.960597  0.011465  0.194872  0.375329  0.007572  3.976832  0.009
C  C93  1  0.99992204  0.31808077  0.50552618  1  -0.078306  0.004535  -0.23407  -0.47005  0.002856  3.956087  0.002
C  C94  1  0.24285434  0.63045121  0.63029160  1  0.947734  0.011542  0.194438  0.372853  0.007587  3.982751  0.009
C  C95  1  0.18723086  0.68169888  0.68144238  1  -0.101004  0.004387  -0.234478  -0.469867  0.002744  3.955444  0.002
C  C96  1  0.36958915  0.00005592  0.61256695  1  0.959414  0.011743  0.19542  0.375744  0.007735  3.97788  0.009
C  C97  1  0.31886210  0.00042919  0.50586048  1  -0.063097  0.004422  -0.234624  -0.468657  0.002758  3.954541  0.002
C  C98  1  0.38720008  0.75642398  0.38725590  1  0.956817  0.011349  0.195542  0.37713  0.007477  3.975584  0.009
C  C99  1  0.49388974  0.81242981  0.49435511  1  -0.061744  0.004473  -0.234773  -0.47069  0.002792  3.956037  0.002
C  C100  1  0.61257448  0.00036626  0.36921367  1  0.95571  0.011475  0.194286  0.373336  0.007603  3.980436  0.009
C  C101  1  0.50565786  0.00022575  0.31809515  1  -0.076374  0.004409  -0.233876  -0.469498  0.002935  3.953679  0.002
C  C102  1  0.63053982  0.24365578  0.62962898  1  0.952681  0.010942  0.196702  0.377318  0.005526  3.980415  0.009
C  C103  1  0.68094457  0.18678930  0.67941739  1  -0.029843  0.002755  -0.233508  -0.469554  -0.00105  3.959616  0.002
C  C104  1  0.61068245  0.36799493  0.00013937  1  0.966663  -0.011878  0.197188  0.385292  -0.017667  3.951249  -0.018
C  C105  1  0.50423181  0.31865167  0.00095147  1  -0.053345  -0.000907  -0.234294  -0.46945  -0.003848  3.962125  0.0
C  C106  1  0.38837051  0.38790200  0.75757271  1  0.920898  0.011464  0.19485  0.372159  0.007638  3.983378  0.009
C  C107  1  0.49512183  0.49469282  0.81295255  1  -0.080051  0.004467  -0.233892  -0.469858  0.002703  3.953525  0.002
C  C108  1  0.36896077  0.61272706  0.99993619  1  0.956186  0.011221  0.194973  0.374856  0.007409  3.979435  0.009
C  C109  1  0.31824248  0.50560924  0.99956229  1  -0.033587  0.004549  -0.234313  -0.468645  0.002805  3.956055  0.002
C  C110  1  0.63066086  0.63062922  0.24287179  1  0.950106  0.011832  0.196411  0.378719  0.007763  3.97065  0.009
C  C111  1  0.68151374  0.68157008  0.18691219  1  -0.023052  0.004201  -0.234097  -0.46815  0.002787  3.950987  0.002
N  N112  1  0.90595431  0.61956458  0.34887915  1  -1.222445  0.095307  -0.385235  -0.368756  0.048838  3.622041  0.06
N  N113  1  0.72745167  0.38172875  0.28768183  1  -1.289747  0.037517  -0.385698  -0.394532  0.035576  3.725077  0.033
N  N114  1  0.09346489  0.44288088  0.71407651  1  -1.237035  0.095169  -0.386025  -0.370397  0.04811  3.625435  0.059
N  N115  1  0.27153767  0.55742507  0.65078633  1  -1.217496  0.095756  -0.386705  -0.371713  0.048424  3.627982  0.06
N  N116  1  0.34918194  0.90640670  0.62045692  1  -1.243328  0.096114  -0.385702  -0.371186  0.048485  3.625836  0.06
N  N117  1  0.28544838  0.72851498  0.37872921  1  -1.216136  0.095137  -0.386346  -0.370962  0.04805  3.626738  0.06
N  N118  1  0.71420010  0.09392289  0.44296107  1  -1.255951  0.096709  -0.385718  -0.366889  0.049117  3.617068  0.06
N  N119  1  0.65085556  0.27249322  0.55657772  1  -1.250712  0.09623  -0.387488  -0.371374  0.048882  3.623952  0.06
N  N120  1  0.61878199  0.34595244  0.90582655  1  -1.287895  0.036066  -0.384436  -0.395266  0.034947  3.725671  0.032
N  N121  1  0.38041540  0.28638259  0.73019483  1  -1.219581  0.095197  -0.386065  -0.369484  0.048556  3.61938  0.059
N  N122  1  0.44260390  0.71431717  0.09350134  1  -1.249491  0.095834  -0.385799  -0.370404  0.048414  3.628246  0.06
N  N123  1  0.55789851  0.65126763  0.27187203  1  -1.218162  0.095528  -0.385533  -0.369816  0.048264  3.623743  0.06
N  N124  1  0.34894048  0.62102294  0.90649849  1  -1.244239  0.095879  -0.386748  -0.369963  0.048327  3.625547  0.06
N  N125  1  0.28660628  0.37957959  0.72896459  1  -1.219777  0.095458  -0.386014  -0.370367  0.04822  3.624975  0.059
N  N126  1  0.71298796  0.44198964  0.09279774  1  -1.206877  0.055523  -0.379516  -0.356234  0.025677  3.619798  0.029
N  N127  1  0.65024890  0.55673337  0.27058619  1  -1.215596  0.095253  -0.385774  -0.367461  0.048681  3.619762  0.06
N  N128  1  0.62087282  0.90695325  0.34911725  1  -1.240822  0.095485  -0.386386  -0.370574  0.048229  3.628138  0.06
N  N129  1  0.37934731  0.72804216  0.28567673  1  -1.218233  0.095623  -0.387114  -0.372461  0.048266  3.629982  0.06
N  N130  1  0.44358659  0.09338244  0.71432863  1  -1.236983  0.096695  -0.386172  -0.369011  0.049572  3.617315  0.061
N  N131  1  0.55586049  0.27021943  0.64842626  1  -1.227511  0.094022  -0.385343  -0.371575  0.045949  3.629701  0.06
N  N132  1  0.90651197  0.34982219  0.62047391  1  -1.227324  0.094477  -0.386689  -0.369914  0.047939  3.626939  0.059
N  N133  1  0.72932111  0.28763874  0.38059124  1  -1.177451  0.056062  -0.378083  -0.350346  0.027375  3.607932  0.028
N  N134  1  0.09291344  0.71388166  0.44148302  1  -1.236853  0.094902  -0.386275  -0.371933  0.047957  3.625104  0.059
N  N135  1  0.27041445  0.64989282  0.55625877  1  -1.223039  0.096196  -0.386168  -0.367737  0.04866  3.621109  0.06
